MODEL 1
REMARK VINA RESULT:      -7.3      0.000      0.000
REMARK  14 active torsions:
REMARK  status: ('A' for Active; 'I' for Inactive)
REMARK    1  A    between atoms: C_2  and  C_3 
REMARK    2  A    between atoms: C_3  and  C_4 
REMARK    3  A    between atoms: C_4  and  C_5 
REMARK    4  A    between atoms: C_8  and  C_25 
REMARK    5  A    between atoms: N_10  and  C_11 
REMARK    6  A    between atoms: C_14  and  O_17 
REMARK    7  A    between atoms: O_17  and  C_18 
REMARK    8  A    between atoms: C_28  and  O_31 
REMARK    9  A    between atoms: O_31  and  C_32 
REMARK   10  A    between atoms: C_32  and  C_33 
REMARK   11  A    between atoms: C_33  and  C_34 
REMARK   12  A    between atoms: C_34  and  N_35 
REMARK   13  A    between atoms: N_35  and  C_36 
REMARK   14  A    between atoms: N_35  and  C_38 
ROOT
HETATM    1  C   UNK N   1      37.116  12.909  12.295  0.00  0.00     0.088 A 
HETATM    2  N   UNK N   1      37.305  12.269  13.478  0.00  0.00    -0.344 N 
ATOM      3  HN  UNK N   1      38.010  11.570  13.712  1.00  0.00     0.167 HD
HETATM    4  C   UNK N   1      36.334  12.783  14.273  0.00  0.00     0.060 A 
HETATM    5  C   UNK N   1      35.606  13.703  13.588  0.00  0.00     0.129 A 
HETATM    6  N   UNK N   1      36.077  13.779  12.354  0.00  0.00    -0.310 N 
ENDROOT
BRANCH   4   7
HETATM    7  C   UNK N   1      35.999  12.501  15.669  0.00  0.00    -0.008 A 
HETATM    8  C   UNK N   1      35.461  13.418  16.582  0.00  0.00     0.016 A 
HETATM    9  C   UNK N   1      35.141  12.976  17.885  0.00  0.00     0.037 A 
HETATM   10  C   UNK N   1      35.345  11.626  18.246  0.00  0.00     0.068 A 
HETATM   11  C   UNK N   1      35.911  10.757  17.329  0.00  0.00     0.037 A 
HETATM   12  C   UNK N   1      36.235  11.186  16.075  0.00  0.00     0.016 A 
BRANCH  10  13
HETATM   13  O   UNK N   1      34.971  11.167  19.463  0.00  0.00    -0.351 OA
BRANCH  13  14
HETATM   14  C   UNK N   1      35.793  10.399  20.290  0.00  0.00     0.177 C 
BRANCH  14  15
HETATM   15  C   UNK N   1      35.098   9.670  21.454  0.00  0.00     0.057 C 
BRANCH  15  16
HETATM   16  C   UNK N   1      33.587   9.800  21.422  0.00  0.00     0.274 C 
BRANCH  16  17
HETATM   17  N   UNK N   1      32.998   8.496  21.180  0.00  0.00     0.087 N 
BRANCH  17  18
HETATM   18  C   UNK N   1      31.968   8.279  22.180  0.00  0.00     0.268 C 
HETATM   19  C   UNK N   1      32.602   7.727  23.444  0.00  0.00     0.037 C 
ENDBRANCH  17  18
BRANCH  17  20
HETATM   20  C   UNK N   1      32.361   8.556  19.876  0.00  0.00     0.268 C 
HETATM   21  C   UNK N   1      30.930   8.070  19.992  0.00  0.00     0.037 C 
ENDBRANCH  17  20
ENDBRANCH  16  17
ENDBRANCH  15  16
ENDBRANCH  14  15
ENDBRANCH  13  14
ENDBRANCH  10  13
ENDBRANCH   4   7
BRANCH   1  22
HETATM   22  C   UNK N   1      37.987  12.694  11.085  0.00  0.00     0.077 C 
BRANCH  22  23
HETATM   23  C   UNK N   1      37.321  11.741  10.097  0.00  0.00     0.007 C 
BRANCH  23  24
HETATM   24  C   UNK N   1      37.401  12.278   8.677  0.00  0.00    -0.004 C 
HETATM   25  C   UNK N   1      37.713  13.764   8.685  0.00  0.00     0.005 C 
ENDBRANCH  23  24
ENDBRANCH  22  23
ENDBRANCH   1  22
BRANCH   6  26
HETATM   26  C   UNK N   1      35.481  14.664  11.414  0.00  0.00     0.040 A 
HETATM   27  C   UNK N   1      34.384  14.224  10.635  0.00  0.00     0.033 A 
HETATM   28  C   UNK N   1      33.718  15.098   9.779  0.00  0.00     0.039 A 
HETATM   29  C   UNK N   1      34.164  16.412   9.691  0.00  0.00     0.076 A 
HETATM   30  C   UNK N   1      35.324  16.807  10.394  0.00  0.00     0.039 A 
HETATM   31  C   UNK N   1      35.968  15.949  11.256  0.00  0.00     0.033 A 
BRANCH  29  32
HETATM   32  O   UNK N   1      33.434  17.353   9.043  0.00  0.00    -0.311 OA
BRANCH  32  33
HETATM   33  C   UNK N   1      33.140  17.110   7.744  0.00  0.00     0.076 A 
HETATM   34  C   UNK N   1      34.146  17.130   6.779  0.00  0.00     0.039 A 
HETATM   35  C   UNK N   1      33.796  17.175   5.425  0.00  0.00     0.026 A 
HETATM   36  C   UNK N   1      32.447  17.196   5.044  0.00  0.00     0.034 A 
HETATM   37  C   UNK N   1      31.444  17.105   6.004  0.00  0.00     0.026 A 
HETATM   38 Cl   UNK N   1      32.003  17.389   3.367  0.00  0.00    -0.084 Cl
HETATM   39  C   UNK N   1      31.788  17.057   7.345  0.00  0.00     0.039 A 
ENDBRANCH  32  33
ENDBRANCH  29  32
ENDBRANCH   6  26
TORSDOF 14
ENDMDL
MODEL 2
REMARK VINA RESULT:      -7.3      8.803     15.418
REMARK  14 active torsions:
REMARK  status: ('A' for Active; 'I' for Inactive)
REMARK    1  A    between atoms: C_2  and  C_3 
REMARK    2  A    between atoms: C_3  and  C_4 
REMARK    3  A    between atoms: C_4  and  C_5 
REMARK    4  A    between atoms: C_8  and  C_25 
REMARK    5  A    between atoms: N_10  and  C_11 
REMARK    6  A    between atoms: C_14  and  O_17 
REMARK    7  A    between atoms: O_17  and  C_18 
REMARK    8  A    between atoms: C_28  and  O_31 
REMARK    9  A    between atoms: O_31  and  C_32 
REMARK   10  A    between atoms: C_32  and  C_33 
REMARK   11  A    between atoms: C_33  and  C_34 
REMARK   12  A    between atoms: C_34  and  N_35 
REMARK   13  A    between atoms: N_35  and  C_36 
REMARK   14  A    between atoms: N_35  and  C_38 
ROOT
HETATM    1  C   UNK N   1      28.588  17.795   6.835  0.00  0.00     0.088 A 
HETATM    2  N   UNK N   1      27.430  18.485   6.675  0.00  0.00    -0.344 N 
ATOM      3  HN  UNK N   1      26.785  18.812   7.395  1.00  0.00     0.167 HD
HETATM    4  C   UNK N   1      27.338  18.637   5.330  0.00  0.00     0.060 A 
HETATM    5  C   UNK N   1      28.409  18.068   4.720  0.00  0.00     0.129 A 
HETATM    6  N   UNK N   1      29.186  17.531   5.646  0.00  0.00    -0.310 N 
ENDROOT
BRANCH   4   7
HETATM    7  C   UNK N   1      26.314  19.292   4.516  0.00  0.00    -0.008 A 
HETATM    8  C   UNK N   1      26.552  20.227   3.499  0.00  0.00     0.016 A 
HETATM    9  C   UNK N   1      25.455  20.730   2.764  0.00  0.00     0.037 A 
HETATM   10  C   UNK N   1      24.148  20.276   3.042  0.00  0.00     0.068 A 
HETATM   11  C   UNK N   1      23.946  19.377   4.076  0.00  0.00     0.037 A 
HETATM   12  C   UNK N   1      25.003  18.903   4.797  0.00  0.00     0.016 A 
BRANCH  10  13
HETATM   13  O   UNK N   1      23.096  20.687   2.295  0.00  0.00    -0.351 OA
BRANCH  13  14
HETATM   14  C   UNK N   1      21.772  20.661   2.738  0.00  0.00     0.177 C 
BRANCH  14  15
HETATM   15  C   UNK N   1      20.841  19.650   2.045  0.00  0.00     0.057 C 
BRANCH  15  16
HETATM   16  C   UNK N   1      20.180  18.687   3.015  0.00  0.00     0.274 C 
BRANCH  16  17
HETATM   17  N   UNK N   1      20.020  17.396   2.373  0.00  0.00     0.087 N 
BRANCH  17  18
HETATM   18  C   UNK N   1      20.167  17.587   0.942  0.00  0.00     0.268 C 
HETATM   19  C   UNK N   1      19.604  16.381   0.213  0.00  0.00     0.037 C 
ENDBRANCH  17  18
BRANCH  17  20
HETATM   20  C   UNK N   1      21.112  16.556   2.835  0.00  0.00     0.268 C 
HETATM   21  C   UNK N   1      21.316  16.768   4.322  0.00  0.00     0.037 C 
ENDBRANCH  17  20
ENDBRANCH  16  17
ENDBRANCH  15  16
ENDBRANCH  14  15
ENDBRANCH  13  14
ENDBRANCH  10  13
ENDBRANCH   4   7
BRANCH   1  22
HETATM   22  C   UNK N   1      29.147  17.409   8.180  0.00  0.00     0.077 C 
BRANCH  22  23
HETATM   23  C   UNK N   1      30.177  18.430   8.654  0.00  0.00     0.007 C 
BRANCH  23  24
HETATM   24  C   UNK N   1      31.588  17.871   8.558  0.00  0.00    -0.004 C 
HETATM   25  C   UNK N   1      31.571  16.357   8.665  0.00  0.00     0.005 C 
ENDBRANCH  23  24
ENDBRANCH  22  23
ENDBRANCH   1  22
BRANCH   6  26
HETATM   26  C   UNK N   1      30.379  16.854   5.275  0.00  0.00     0.040 A 
HETATM   27  C   UNK N   1      31.497  17.596   4.825  0.00  0.00     0.033 A 
HETATM   28  C   UNK N   1      32.709  16.969   4.549  0.00  0.00     0.039 A 
HETATM   29  C   UNK N   1      32.797  15.591   4.708  0.00  0.00     0.076 A 
HETATM   30  C   UNK N   1      31.644  14.850   5.054  0.00  0.00     0.039 A 
HETATM   31  C   UNK N   1      30.453  15.474   5.348  0.00  0.00     0.033 A 
BRANCH  29  32
HETATM   32  O   UNK N   1      33.996  14.959   4.659  0.00  0.00    -0.311 OA
BRANCH  32  33
HETATM   33  C   UNK N   1      34.526  14.567   5.842  0.00  0.00     0.076 A 
HETATM   34  C   UNK N   1      34.589  13.214   6.171  0.00  0.00     0.039 A 
HETATM   35  C   UNK N   1      34.855  12.841   7.493  0.00  0.00     0.026 A 
HETATM   36  C   UNK N   1      35.061  13.821   8.475  0.00  0.00     0.034 A 
HETATM   37  C   UNK N   1      35.068  15.169   8.133  0.00  0.00     0.026 A 
HETATM   38 Cl   UNK N   1      35.259  13.368  10.150  0.00  0.00    -0.084 Cl
HETATM   39  C   UNK N   1      34.807  15.540   6.824  0.00  0.00     0.039 A 
ENDBRANCH  32  33
ENDBRANCH  29  32
ENDBRANCH   6  26
TORSDOF 14
ENDMDL
MODEL 3
REMARK VINA RESULT:      -7.2      1.375      1.886
REMARK  14 active torsions:
REMARK  status: ('A' for Active; 'I' for Inactive)
REMARK    1  A    between atoms: C_2  and  C_3 
REMARK    2  A    between atoms: C_3  and  C_4 
REMARK    3  A    between atoms: C_4  and  C_5 
REMARK    4  A    between atoms: C_8  and  C_25 
REMARK    5  A    between atoms: N_10  and  C_11 
REMARK    6  A    between atoms: C_14  and  O_17 
REMARK    7  A    between atoms: O_17  and  C_18 
REMARK    8  A    between atoms: C_28  and  O_31 
REMARK    9  A    between atoms: O_31  and  C_32 
REMARK   10  A    between atoms: C_32  and  C_33 
REMARK   11  A    between atoms: C_33  and  C_34 
REMARK   12  A    between atoms: C_34  and  N_35 
REMARK   13  A    between atoms: N_35  and  C_36 
REMARK   14  A    between atoms: N_35  and  C_38 
ROOT
HETATM    1  C   UNK N   1      37.286  13.120  11.781  0.00  0.00     0.088 A 
HETATM    2  N   UNK N   1      37.508  12.498  12.967  0.00  0.00    -0.344 N 
ATOM      3  HN  UNK N   1      38.292  11.901  13.229  1.00  0.00     0.167 HD
HETATM    4  C   UNK N   1      36.439  12.862  13.718  0.00  0.00     0.060 A 
HETATM    5  C   UNK N   1      35.623  13.680  13.005  0.00  0.00     0.129 A 
HETATM    6  N   UNK N   1      36.134  13.837  11.795  0.00  0.00    -0.310 N 
ENDROOT
BRANCH   4   7
HETATM    7  C   UNK N   1      36.083  12.518  15.095  0.00  0.00    -0.008 A 
HETATM    8  C   UNK N   1      35.402  13.349  15.995  0.00  0.00     0.016 A 
HETATM    9  C   UNK N   1      35.084  12.850  17.278  0.00  0.00     0.037 A 
HETATM   10  C   UNK N   1      35.431  11.528  17.630  0.00  0.00     0.068 A 
HETATM   11  C   UNK N   1      36.134  10.747  16.728  0.00  0.00     0.037 A 
HETATM   12  C   UNK N   1      36.456  11.234  15.494  0.00  0.00     0.016 A 
BRANCH  10  13
HETATM   13  O   UNK N   1      35.065  11.007  18.825  0.00  0.00    -0.351 OA
BRANCH  13  14
HETATM   14  C   UNK N   1      35.380   9.711  19.237  0.00  0.00     0.177 C 
BRANCH  14  15
HETATM   15  C   UNK N   1      34.190   8.782  19.539  0.00  0.00     0.057 C 
BRANCH  15  16
HETATM   16  C   UNK N   1      34.012   8.504  21.020  0.00  0.00     0.274 C 
BRANCH  16  17
HETATM   17  N   UNK N   1      32.642   8.101  21.271  0.00  0.00     0.087 N 
BRANCH  17  18
HETATM   18  C   UNK N   1      32.193   8.773  22.477  0.00  0.00     0.268 C 
HETATM   19  C   UNK N   1      32.478  10.259  22.361  0.00  0.00     0.037 C 
ENDBRANCH  17  18
BRANCH  17  20
HETATM   20  C   UNK N   1      31.847   8.589  20.156  0.00  0.00     0.268 C 
HETATM   21  C   UNK N   1      30.591   7.750  20.029  0.00  0.00     0.037 C 
ENDBRANCH  17  20
ENDBRANCH  16  17
ENDBRANCH  15  16
ENDBRANCH  14  15
ENDBRANCH  13  14
ENDBRANCH  10  13
ENDBRANCH   4   7
BRANCH   1  22
HETATM   22  C   UNK N   1      38.234  13.045  10.612  0.00  0.00     0.077 C 
BRANCH  22  23
HETATM   23  C   UNK N   1      37.944  11.815   9.755  0.00  0.00     0.007 C 
BRANCH  23  24
HETATM   24  C   UNK N   1      37.756  12.196   8.295  0.00  0.00    -0.004 C 
HETATM   25  C   UNK N   1      37.893  13.697   8.112  0.00  0.00     0.005 C 
ENDBRANCH  23  24
ENDBRANCH  22  23
ENDBRANCH   1  22
BRANCH   6  26
HETATM   26  C   UNK N   1      35.465  14.642  10.834  0.00  0.00     0.040 A 
HETATM   27  C   UNK N   1      35.633  16.047  10.857  0.00  0.00     0.033 A 
HETATM   28  C   UNK N   1      35.071  16.851   9.869  0.00  0.00     0.039 A 
HETATM   29  C   UNK N   1      34.323  16.248   8.865  0.00  0.00     0.076 A 
HETATM   30  C   UNK N   1      34.075  14.858   8.915  0.00  0.00     0.039 A 
HETATM   31  C   UNK N   1      34.649  14.061   9.879  0.00  0.00     0.033 A 
BRANCH  29  32
HETATM   32  O   UNK N   1      33.932  16.947   7.771  0.00  0.00    -0.311 OA
BRANCH  32  33
HETATM   33  C   UNK N   1      32.612  17.228   7.666  0.00  0.00     0.076 A 
HETATM   34  C   UNK N   1      31.984  18.025   8.622  0.00  0.00     0.039 A 
HETATM   35  C   UNK N   1      30.586  18.062   8.672  0.00  0.00     0.026 A 
HETATM   36  C   UNK N   1      29.826  17.307   7.766  0.00  0.00     0.034 A 
HETATM   37  C   UNK N   1      30.452  16.569   6.768  0.00  0.00     0.026 A 
HETATM   38 Cl   UNK N   1      28.087  17.242   7.909  0.00  0.00    -0.084 Cl
HETATM   39  C   UNK N   1      31.836  16.533   6.715  0.00  0.00     0.039 A 
ENDBRANCH  32  33
ENDBRANCH  29  32
ENDBRANCH   6  26
TORSDOF 14
ENDMDL
MODEL 4
REMARK VINA RESULT:      -7.1      1.651      2.639
REMARK  14 active torsions:
REMARK  status: ('A' for Active; 'I' for Inactive)
REMARK    1  A    between atoms: C_2  and  C_3 
REMARK    2  A    between atoms: C_3  and  C_4 
REMARK    3  A    between atoms: C_4  and  C_5 
REMARK    4  A    between atoms: C_8  and  C_25 
REMARK    5  A    between atoms: N_10  and  C_11 
REMARK    6  A    between atoms: C_14  and  O_17 
REMARK    7  A    between atoms: O_17  and  C_18 
REMARK    8  A    between atoms: C_28  and  O_31 
REMARK    9  A    between atoms: O_31  and  C_32 
REMARK   10  A    between atoms: C_32  and  C_33 
REMARK   11  A    between atoms: C_33  and  C_34 
REMARK   12  A    between atoms: C_34  and  N_35 
REMARK   13  A    between atoms: N_35  and  C_36 
REMARK   14  A    between atoms: N_35  and  C_38 
ROOT
HETATM    1  C   UNK N   1      37.013  13.362  11.279  0.00  0.00     0.088 A 
HETATM    2  N   UNK N   1      37.167  12.934  12.558  0.00  0.00    -0.344 N 
ATOM      3  HN  UNK N   1      37.804  12.220  12.912  1.00  0.00     0.167 HD
HETATM    4  C   UNK N   1      36.275  13.684  13.250  0.00  0.00     0.060 A 
HETATM    5  C   UNK N   1      35.626  14.533  12.413  0.00  0.00     0.129 A 
HETATM    6  N   UNK N   1      36.069  14.332  11.182  0.00  0.00    -0.310 N 
ENDROOT
BRANCH   4   7
HETATM    7  C   UNK N   1      35.951  13.699  14.677  0.00  0.00    -0.008 A 
HETATM    8  C   UNK N   1      34.907  12.990  15.287  0.00  0.00     0.016 A 
HETATM    9  C   UNK N   1      34.757  13.067  16.689  0.00  0.00     0.037 A 
HETATM   10  C   UNK N   1      35.660  13.832  17.458  0.00  0.00     0.068 A 
HETATM   11  C   UNK N   1      36.659  14.548  16.819  0.00  0.00     0.037 A 
HETATM   12  C   UNK N   1      36.795  14.487  15.463  0.00  0.00     0.016 A 
BRANCH  10  13
HETATM   13  O   UNK N   1      35.580  13.853  18.809  0.00  0.00    -0.351 OA
BRANCH  13  14
HETATM   14  C   UNK N   1      34.960  12.857  19.566  0.00  0.00     0.177 C 
BRANCH  14  15
HETATM   15  C   UNK N   1      35.825  11.636  19.925  0.00  0.00     0.057 C 
BRANCH  15  16
HETATM   16  C   UNK N   1      35.020  10.358  20.071  0.00  0.00     0.274 C 
BRANCH  16  17
HETATM   17  N   UNK N   1      34.589   9.910  18.761  0.00  0.00     0.087 N 
BRANCH  17  18
HETATM   18  C   UNK N   1      35.775   9.675  17.957  0.00  0.00     0.268 C 
HETATM   19  C   UNK N   1      35.364   9.404  16.521  0.00  0.00     0.037 C 
ENDBRANCH  17  18
BRANCH  17  20
HETATM   20  C   UNK N   1      33.910   8.640  18.951  0.00  0.00     0.268 C 
HETATM   21  C   UNK N   1      32.767   8.822  19.929  0.00  0.00     0.037 C 
ENDBRANCH  17  20
ENDBRANCH  16  17
ENDBRANCH  15  16
ENDBRANCH  14  15
ENDBRANCH  13  14
ENDBRANCH  10  13
ENDBRANCH   4   7
BRANCH   1  22
HETATM   22  C   UNK N   1      37.826  12.839  10.123  0.00  0.00     0.077 C 
BRANCH  22  23
HETATM   23  C   UNK N   1      38.891  13.850   9.706  0.00  0.00     0.007 C 
BRANCH  23  24
HETATM   24  C   UNK N   1      39.061  13.876   8.195  0.00  0.00    -0.004 C 
HETATM   25  C   UNK N   1      38.261  12.760   7.548  0.00  0.00     0.005 C 
ENDBRANCH  23  24
ENDBRANCH  22  23
ENDBRANCH   1  22
BRANCH   6  26
HETATM   26  C   UNK N   1      35.541  15.086  10.100  0.00  0.00     0.040 A 
HETATM   27  C   UNK N   1      35.270  16.465  10.271  0.00  0.00     0.033 A 
HETATM   28  C   UNK N   1      34.848  17.250   9.202  0.00  0.00     0.039 A 
HETATM   29  C   UNK N   1      34.678  16.649   7.960  0.00  0.00     0.076 A 
HETATM   30  C   UNK N   1      34.850  15.252   7.829  0.00  0.00     0.039 A 
HETATM   31  C   UNK N   1      35.289  14.481   8.881  0.00  0.00     0.033 A 
BRANCH  29  32
HETATM   32  O   UNK N   1      34.476  17.394   6.846  0.00  0.00    -0.311 OA
BRANCH  32  33
HETATM   33  C   UNK N   1      33.296  17.221   6.203  0.00  0.00     0.076 A 
HETATM   34  C   UNK N   1      33.207  17.430   4.828  0.00  0.00     0.039 A 
HETATM   35  C   UNK N   1      31.946  17.540   4.232  0.00  0.00     0.026 A 
HETATM   36  C   UNK N   1      30.784  17.438   5.011  0.00  0.00     0.034 A 
HETATM   37  C   UNK N   1      30.873  17.159   6.371  0.00  0.00     0.026 A 
HETATM   38 Cl   UNK N   1      29.214  17.710   4.300  0.00  0.00    -0.084 Cl
HETATM   39  C   UNK N   1      32.120  17.046   6.963  0.00  0.00     0.039 A 
ENDBRANCH  32  33
ENDBRANCH  29  32
ENDBRANCH   6  26
TORSDOF 14
ENDMDL
MODEL 5
REMARK VINA RESULT:      -7.1      7.525     12.822
REMARK  14 active torsions:
REMARK  status: ('A' for Active; 'I' for Inactive)
REMARK    1  A    between atoms: C_2  and  C_3 
REMARK    2  A    between atoms: C_3  and  C_4 
REMARK    3  A    between atoms: C_4  and  C_5 
REMARK    4  A    between atoms: C_8  and  C_25 
REMARK    5  A    between atoms: N_10  and  C_11 
REMARK    6  A    between atoms: C_14  and  O_17 
REMARK    7  A    between atoms: O_17  and  C_18 
REMARK    8  A    between atoms: C_28  and  O_31 
REMARK    9  A    between atoms: O_31  and  C_32 
REMARK   10  A    between atoms: C_32  and  C_33 
REMARK   11  A    between atoms: C_33  and  C_34 
REMARK   12  A    between atoms: C_34  and  N_35 
REMARK   13  A    between atoms: N_35  and  C_36 
REMARK   14  A    between atoms: N_35  and  C_38 
ROOT
HETATM    1  C   UNK N   1      27.199  17.168   4.161  0.00  0.00     0.088 A 
HETATM    2  N   UNK N   1      28.427  17.742   4.093  0.00  0.00    -0.344 N 
ATOM      3  HN  UNK N   1      28.727  18.525   3.512  1.00  0.00     0.167 HD
HETATM    4  C   UNK N   1      29.159  17.025   4.982  0.00  0.00     0.060 A 
HETATM    5  C   UNK N   1      28.386  16.072   5.563  0.00  0.00     0.129 A 
HETATM    6  N   UNK N   1      27.169  16.144   5.051  0.00  0.00    -0.310 N 
ENDROOT
BRANCH   4   7
HETATM    7  C   UNK N   1      30.564  17.142   5.371  0.00  0.00    -0.008 A 
HETATM    8  C   UNK N   1      31.648  17.269   4.491  0.00  0.00     0.016 A 
HETATM    9  C   UNK N   1      32.946  17.428   5.025  0.00  0.00     0.037 A 
HETATM   10  C   UNK N   1      33.136  17.478   6.423  0.00  0.00     0.068 A 
HETATM   11  C   UNK N   1      32.047  17.315   7.263  0.00  0.00     0.037 A 
HETATM   12  C   UNK N   1      30.795  17.146   6.748  0.00  0.00     0.016 A 
BRANCH  10  13
HETATM   13  O   UNK N   1      34.361  17.709   6.951  0.00  0.00    -0.351 OA
BRANCH  13  14
HETATM   14  C   UNK N   1      34.570  18.243   8.224  0.00  0.00     0.177 C 
BRANCH  14  15
HETATM   15  C   UNK N   1      34.837  17.230   9.353  0.00  0.00     0.057 C 
BRANCH  15  16
HETATM   16  C   UNK N   1      35.042  15.814   8.846  0.00  0.00     0.274 C 
BRANCH  16  17
HETATM   17  N   UNK N   1      34.429  14.881   9.772  0.00  0.00     0.087 N 
BRANCH  17  18
HETATM   18  C   UNK N   1      33.179  14.428   9.186  0.00  0.00     0.268 C 
HETATM   19  C   UNK N   1      33.431  13.958   7.765  0.00  0.00     0.037 C 
ENDBRANCH  17  18
BRANCH  17  20
HETATM   20  C   UNK N   1      35.322  13.739   9.875  0.00  0.00     0.268 C 
HETATM   21  C   UNK N   1      36.746  14.229  10.044  0.00  0.00     0.037 C 
ENDBRANCH  17  20
ENDBRANCH  16  17
ENDBRANCH  15  16
ENDBRANCH  14  15
ENDBRANCH  13  14
ENDBRANCH  10  13
ENDBRANCH   4   7
BRANCH   1  22
HETATM   22  C   UNK N   1      26.012  17.648   3.366  0.00  0.00     0.077 C 
BRANCH  22  23
HETATM   23  C   UNK N   1      25.286  18.774   4.097  0.00  0.00     0.007 C 
BRANCH  23  24
HETATM   24  C   UNK N   1      25.809  20.135   3.664  0.00  0.00    -0.004 C 
HETATM   25  C   UNK N   1      26.645  20.762   4.766  0.00  0.00     0.005 C 
ENDBRANCH  23  24
ENDBRANCH  22  23
ENDBRANCH   1  22
BRANCH   6  26
HETATM   26  C   UNK N   1      26.157  15.242   5.478  0.00  0.00     0.040 A 
HETATM   27  C   UNK N   1      26.283  13.861   5.195  0.00  0.00     0.033 A 
HETATM   28  C   UNK N   1      25.360  12.943   5.687  0.00  0.00     0.039 A 
HETATM   29  C   UNK N   1      24.296  13.411   6.449  0.00  0.00     0.076 A 
HETATM   30  C   UNK N   1      24.124  14.802   6.633  0.00  0.00     0.039 A 
HETATM   31  C   UNK N   1      25.050  15.706   6.166  0.00  0.00     0.033 A 
BRANCH  29  32
HETATM   32  O   UNK N   1      23.492  12.553   7.124  0.00  0.00    -0.311 OA
BRANCH  32  33
HETATM   33  C   UNK N   1      23.483  12.661   8.474  0.00  0.00     0.076 A 
HETATM   34  C   UNK N   1      24.650  12.448   9.205  0.00  0.00     0.039 A 
HETATM   35  C   UNK N   1      24.568  12.268  10.591  0.00  0.00     0.026 A 
HETATM   36  C   UNK N   1      23.324  12.306  11.236  0.00  0.00     0.034 A 
HETATM   37  C   UNK N   1      22.167  12.589  10.516  0.00  0.00     0.026 A 
HETATM   38 Cl   UNK N   1      23.199  11.948  12.940  0.00  0.00    -0.084 Cl
HETATM   39  C   UNK N   1      22.246  12.770   9.145  0.00  0.00     0.039 A 
ENDBRANCH  32  33
ENDBRANCH  29  32
ENDBRANCH   6  26
TORSDOF 14
ENDMDL
MODEL 6
REMARK VINA RESULT:      -7.0      2.676      3.981
REMARK  14 active torsions:
REMARK  status: ('A' for Active; 'I' for Inactive)
REMARK    1  A    between atoms: C_2  and  C_3 
REMARK    2  A    between atoms: C_3  and  C_4 
REMARK    3  A    between atoms: C_4  and  C_5 
REMARK    4  A    between atoms: C_8  and  C_25 
REMARK    5  A    between atoms: N_10  and  C_11 
REMARK    6  A    between atoms: C_14  and  O_17 
REMARK    7  A    between atoms: O_17  and  C_18 
REMARK    8  A    between atoms: C_28  and  O_31 
REMARK    9  A    between atoms: O_31  and  C_32 
REMARK   10  A    between atoms: C_32  and  C_33 
REMARK   11  A    between atoms: C_33  and  C_34 
REMARK   12  A    between atoms: C_34  and  N_35 
REMARK   13  A    between atoms: N_35  and  C_36 
REMARK   14  A    between atoms: N_35  and  C_38 
ROOT
HETATM    1  C   UNK N   1      37.301  14.021  10.598  0.00  0.00     0.088 A 
HETATM    2  N   UNK N   1      37.432  13.412  11.804  0.00  0.00    -0.344 N 
ATOM      3  HN  UNK N   1      38.225  12.876  12.158  1.00  0.00     0.167 HD
HETATM    4  C   UNK N   1      36.258  13.687  12.425  0.00  0.00     0.060 A 
HETATM    5  C   UNK N   1      35.468  14.441  11.619  0.00  0.00     0.129 A 
HETATM    6  N   UNK N   1      36.102  14.644  10.476  0.00  0.00    -0.310 N 
ENDROOT
BRANCH   4   7
HETATM    7  C   UNK N   1      35.774  13.309  13.753  0.00  0.00    -0.008 A 
HETATM    8  C   UNK N   1      34.661  12.498  14.017  0.00  0.00     0.016 A 
HETATM    9  C   UNK N   1      34.353  12.179  15.358  0.00  0.00     0.037 A 
HETATM   10  C   UNK N   1      35.169  12.656  16.407  0.00  0.00     0.068 A 
HETATM   11  C   UNK N   1      36.240  13.483  16.110  0.00  0.00     0.037 A 
HETATM   12  C   UNK N   1      36.529  13.805  14.817  0.00  0.00     0.016 A 
BRANCH  10  13
HETATM   13  O   UNK N   1      34.935  12.296  17.690  0.00  0.00    -0.351 OA
BRANCH  13  14
HETATM   14  C   UNK N   1      35.574  11.231  18.327  0.00  0.00     0.177 C 
BRANCH  14  15
HETATM   15  C   UNK N   1      35.523   9.873  17.602  0.00  0.00     0.057 C 
BRANCH  15  16
HETATM   16  C   UNK N   1      36.896   9.345  17.231  0.00  0.00     0.274 C 
BRANCH  16  17
HETATM   17  N   UNK N   1      36.912   9.001  15.821  0.00  0.00     0.087 N 
BRANCH  17  18
HETATM   18  C   UNK N   1      35.536   8.859  15.381  0.00  0.00     0.268 C 
HETATM   19  C   UNK N   1      35.512   8.586  13.888  0.00  0.00     0.037 C 
ENDBRANCH  17  18
BRANCH  17  20
HETATM   20  C   UNK N   1      37.500  10.129  15.118  0.00  0.00     0.268 C 
HETATM   21  C   UNK N   1      38.904   9.770  14.675  0.00  0.00     0.037 C 
ENDBRANCH  17  20
ENDBRANCH  16  17
ENDBRANCH  15  16
ENDBRANCH  14  15
ENDBRANCH  13  14
ENDBRANCH  10  13
ENDBRANCH   4   7
BRANCH   1  22
HETATM   22  C   UNK N   1      38.381  14.026   9.547  0.00  0.00     0.077 C 
BRANCH  22  23
HETATM   23  C   UNK N   1      38.985  12.634   9.382  0.00  0.00     0.007 C 
BRANCH  23  24
HETATM   24  C   UNK N   1      39.919  12.581   8.183  0.00  0.00    -0.004 C 
HETATM   25  C   UNK N   1      41.149  11.748   8.500  0.00  0.00     0.005 C 
ENDBRANCH  23  24
ENDBRANCH  22  23
ENDBRANCH   1  22
BRANCH   6  26
HETATM   26  C   UNK N   1      35.488  15.399   9.441  0.00  0.00     0.040 A 
HETATM   27  C   UNK N   1      35.003  16.701   9.715  0.00  0.00     0.033 A 
HETATM   28  C   UNK N   1      34.488  17.501   8.698  0.00  0.00     0.039 A 
HETATM   29  C   UNK N   1      34.440  16.989   7.407  0.00  0.00     0.076 A 
HETATM   30  C   UNK N   1      34.828  15.651   7.169  0.00  0.00     0.039 A 
HETATM   31  C   UNK N   1      35.358  14.870   8.169  0.00  0.00     0.033 A 
BRANCH  29  32
HETATM   32  O   UNK N   1      34.148  17.788   6.351  0.00  0.00    -0.311 OA
BRANCH  32  33
HETATM   33  C   UNK N   1      32.980  17.548   5.710  0.00  0.00     0.076 A 
HETATM   34  C   UNK N   1      31.859  17.124   6.423  0.00  0.00     0.039 A 
HETATM   35  C   UNK N   1      30.763  16.599   5.729  0.00  0.00     0.026 A 
HETATM   36  C   UNK N   1      30.792  16.505   4.330  0.00  0.00     0.034 A 
HETATM   37  C   UNK N   1      31.880  16.994   3.615  0.00  0.00     0.026 A 
HETATM   38 Cl   UNK N   1      29.488  15.728   3.468  0.00  0.00    -0.084 Cl
HETATM   39  C   UNK N   1      32.965  17.516   4.300  0.00  0.00     0.039 A 
ENDBRANCH  32  33
ENDBRANCH  29  32
ENDBRANCH   6  26
TORSDOF 14
ENDMDL
MODEL 7
REMARK VINA RESULT:      -6.8      4.073     12.187
REMARK  14 active torsions:
REMARK  status: ('A' for Active; 'I' for Inactive)
REMARK    1  A    between atoms: C_2  and  C_3 
REMARK    2  A    between atoms: C_3  and  C_4 
REMARK    3  A    between atoms: C_4  and  C_5 
REMARK    4  A    between atoms: C_8  and  C_25 
REMARK    5  A    between atoms: N_10  and  C_11 
REMARK    6  A    between atoms: C_14  and  O_17 
REMARK    7  A    between atoms: O_17  and  C_18 
REMARK    8  A    between atoms: C_28  and  O_31 
REMARK    9  A    between atoms: O_31  and  C_32 
REMARK   10  A    between atoms: C_32  and  C_33 
REMARK   11  A    between atoms: C_33  and  C_34 
REMARK   12  A    between atoms: C_34  and  N_35 
REMARK   13  A    between atoms: N_35  and  C_36 
REMARK   14  A    between atoms: N_35  and  C_38 
ROOT
HETATM    1  C   UNK N   1      36.547  14.190  14.372  0.00  0.00     0.088 A 
HETATM    2  N   UNK N   1      36.443  14.978  13.271  0.00  0.00    -0.344 N 
ATOM      3  HN  UNK N   1      36.835  15.907  13.120  1.00  0.00     0.167 HD
HETATM    4  C   UNK N   1      35.693  14.233  12.421  0.00  0.00     0.060 A 
HETATM    5  C   UNK N   1      35.378  13.044  12.994  0.00  0.00     0.129 A 
HETATM    6  N   UNK N   1      35.893  13.012  14.212  0.00  0.00    -0.310 N 
ENDROOT
BRANCH   4   7
HETATM    7  C   UNK N   1      35.223  14.522  11.066  0.00  0.00    -0.008 A 
HETATM    8  C   UNK N   1      35.179  15.789  10.468  0.00  0.00     0.016 A 
HETATM    9  C   UNK N   1      34.748  15.897   9.127  0.00  0.00     0.037 A 
HETATM   10  C   UNK N   1      34.390  14.740   8.402  0.00  0.00     0.068 A 
HETATM   11  C   UNK N   1      34.413  13.508   9.035  0.00  0.00     0.037 A 
HETATM   12  C   UNK N   1      34.814  13.405  10.335  0.00  0.00     0.016 A 
BRANCH  10  13
HETATM   13  O   UNK N   1      34.051  14.816   7.094  0.00  0.00    -0.351 OA
BRANCH  13  14
HETATM   14  C   UNK N   1      34.661  15.679   6.182  0.00  0.00     0.177 C 
BRANCH  14  15
HETATM   15  C   UNK N   1      33.728  16.641   5.424  0.00  0.00     0.057 C 
BRANCH  15  16
HETATM   16  C   UNK N   1      32.910  17.527   6.345  0.00  0.00     0.274 C 
BRANCH  16  17
HETATM   17  N   UNK N   1      31.499  17.298   6.103  0.00  0.00     0.087 N 
BRANCH  17  18
HETATM   18  C   UNK N   1      31.376  16.522   4.882  0.00  0.00     0.268 C 
HETATM   19  C   UNK N   1      29.919  16.154   4.664  0.00  0.00     0.037 C 
ENDBRANCH  17  18
BRANCH  17  20
HETATM   20  C   UNK N   1      31.006  16.490   7.206  0.00  0.00     0.268 C 
HETATM   21  C   UNK N   1      31.335  17.175   8.517  0.00  0.00     0.037 C 
ENDBRANCH  17  20
ENDBRANCH  16  17
ENDBRANCH  15  16
ENDBRANCH  14  15
ENDBRANCH  13  14
ENDBRANCH  10  13
ENDBRANCH   4   7
BRANCH   1  22
HETATM   22  C   UNK N   1      37.329  14.577  15.600  0.00  0.00     0.077 C 
BRANCH  22  23
HETATM   23  C   UNK N   1      36.576  15.623  16.417  0.00  0.00     0.007 C 
BRANCH  23  24
HETATM   24  C   UNK N   1      36.429  15.186  17.866  0.00  0.00    -0.004 C 
HETATM   25  C   UNK N   1      35.355  14.122  17.997  0.00  0.00     0.005 C 
ENDBRANCH  23  24
ENDBRANCH  22  23
ENDBRANCH   1  22
BRANCH   6  26
HETATM   26  C   UNK N   1      35.698  11.876  15.042  0.00  0.00     0.040 A 
HETATM   27  C   UNK N   1      36.819  11.177  15.550  0.00  0.00     0.033 A 
HETATM   28  C   UNK N   1      36.660  10.122  16.445  0.00  0.00     0.039 A 
HETATM   29  C   UNK N   1      35.373   9.754  16.819  0.00  0.00     0.076 A 
HETATM   30  C   UNK N   1      34.261  10.391  16.223  0.00  0.00     0.039 A 
HETATM   31  C   UNK N   1      34.420  11.447  15.356  0.00  0.00     0.033 A 
BRANCH  29  32
HETATM   32  O   UNK N   1      35.165   8.884  17.838  0.00  0.00    -0.311 OA
BRANCH  32  33
HETATM   33  C   UNK N   1      34.422   9.330  18.878  0.00  0.00     0.076 A 
HETATM   34  C   UNK N   1      34.907  10.340  19.708  0.00  0.00     0.039 A 
HETATM   35  C   UNK N   1      34.278  10.581  20.934  0.00  0.00     0.026 A 
HETATM   36  C   UNK N   1      33.168   9.816  21.321  0.00  0.00     0.034 A 
HETATM   37  C   UNK N   1      32.642   8.857  20.462  0.00  0.00     0.026 A 
HETATM   38 Cl   UNK N   1      32.462  10.018  22.905  0.00  0.00    -0.084 Cl
HETATM   39  C   UNK N   1      33.261   8.618  19.246  0.00  0.00     0.039 A 
ENDBRANCH  32  33
ENDBRANCH  29  32
ENDBRANCH   6  26
TORSDOF 14
ENDMDL
MODEL 8
REMARK VINA RESULT:      -6.6      4.336     11.900
REMARK  14 active torsions:
REMARK  status: ('A' for Active; 'I' for Inactive)
REMARK    1  A    between atoms: C_2  and  C_3 
REMARK    2  A    between atoms: C_3  and  C_4 
REMARK    3  A    between atoms: C_4  and  C_5 
REMARK    4  A    between atoms: C_8  and  C_25 
REMARK    5  A    between atoms: N_10  and  C_11 
REMARK    6  A    between atoms: C_14  and  O_17 
REMARK    7  A    between atoms: O_17  and  C_18 
REMARK    8  A    between atoms: C_28  and  O_31 
REMARK    9  A    between atoms: O_31  and  C_32 
REMARK   10  A    between atoms: C_32  and  C_33 
REMARK   11  A    between atoms: C_33  and  C_34 
REMARK   12  A    between atoms: C_34  and  N_35 
REMARK   13  A    between atoms: N_35  and  C_36 
REMARK   14  A    between atoms: N_35  and  C_38 
ROOT
HETATM    1  C   UNK N   1      36.550  12.641  10.930  0.00  0.00     0.088 A 
HETATM    2  N   UNK N   1      36.370  13.207   9.709  0.00  0.00    -0.344 N 
ATOM      3  HN  UNK N   1      36.804  12.948   8.823  1.00  0.00     0.167 HD
HETATM    4  C   UNK N   1      35.475  14.197   9.950  0.00  0.00     0.060 A 
HETATM    5  C   UNK N   1      35.129  14.206  11.262  0.00  0.00     0.129 A 
HETATM    6  N   UNK N   1      35.801  13.251  11.883  0.00  0.00    -0.310 N 
ENDROOT
BRANCH   4   7
HETATM    7  C   UNK N   1      34.874  15.176   9.044  0.00  0.00    -0.008 A 
HETATM    8  C   UNK N   1      33.990  16.198   9.414  0.00  0.00     0.016 A 
HETATM    9  C   UNK N   1      33.537  17.101   8.426  0.00  0.00     0.037 A 
HETATM   10  C   UNK N   1      33.990  16.980   7.095  0.00  0.00     0.068 A 
HETATM   11  C   UNK N   1      34.836  15.937   6.758  0.00  0.00     0.037 A 
HETATM   12  C   UNK N   1      35.261  15.055   7.708  0.00  0.00     0.016 A 
BRANCH  10  13
HETATM   13  O   UNK N   1      33.629  17.882   6.152  0.00  0.00    -0.351 OA
BRANCH  13  14
HETATM   14  C   UNK N   1      33.208  17.537   4.867  0.00  0.00     0.177 C 
BRANCH  14  15
HETATM   15  C   UNK N   1      31.964  16.635   4.776  0.00  0.00     0.057 C 
BRANCH  15  16
HETATM   16  C   UNK N   1      30.696  17.319   5.253  0.00  0.00     0.274 C 
BRANCH  16  17
HETATM   17  N   UNK N   1      29.945  16.406   6.094  0.00  0.00     0.087 N 
BRANCH  17  18
HETATM   18  C   UNK N   1      29.111  17.198   6.979  0.00  0.00     0.268 C 
HETATM   19  C   UNK N   1      29.944  17.688   8.150  0.00  0.00     0.037 C 
ENDBRANCH  17  18
BRANCH  17  20
HETATM   20  C   UNK N   1      29.077  15.639   5.216  0.00  0.00     0.268 C 
HETATM   21  C   UNK N   1      27.792  16.409   4.982  0.00  0.00     0.037 C 
ENDBRANCH  17  20
ENDBRANCH  16  17
ENDBRANCH  15  16
ENDBRANCH  14  15
ENDBRANCH  13  14
ENDBRANCH  10  13
ENDBRANCH   4   7
BRANCH   1  22
HETATM   22  C   UNK N   1      37.448  11.456  11.173  0.00  0.00     0.077 C 
BRANCH  22  23
HETATM   23  C   UNK N   1      36.641  10.161  11.210  0.00  0.00     0.007 C 
BRANCH  23  24
HETATM   24  C   UNK N   1      36.711   9.509  12.582  0.00  0.00    -0.004 C 
HETATM   25  C   UNK N   1      37.857  10.090  13.391  0.00  0.00     0.005 C 
ENDBRANCH  23  24
ENDBRANCH  22  23
ENDBRANCH   1  22
BRANCH   6  26
HETATM   26  C   UNK N   1      35.636  13.051  13.280  0.00  0.00     0.040 A 
HETATM   27  C   UNK N   1      36.487  13.721  14.191  0.00  0.00     0.033 A 
HETATM   28  C   UNK N   1      36.285  13.623  15.565  0.00  0.00     0.039 A 
HETATM   29  C   UNK N   1      35.238  12.836  16.029  0.00  0.00     0.076 A 
HETATM   30  C   UNK N   1      34.463  12.089  15.113  0.00  0.00     0.039 A 
HETATM   31  C   UNK N   1      34.650  12.205  13.755  0.00  0.00     0.033 A 
BRANCH  29  32
HETATM   32  O   UNK N   1      34.865  12.870  17.333  0.00  0.00    -0.311 OA
BRANCH  32  33
HETATM   33  C   UNK N   1      35.311  11.863  18.121  0.00  0.00     0.076 A 
HETATM   34  C   UNK N   1      35.347  12.016  19.506  0.00  0.00     0.039 A 
HETATM   35  C   UNK N   1      36.076  11.105  20.278  0.00  0.00     0.026 A 
HETATM   36  C   UNK N   1      36.760  10.046  19.662  0.00  0.00     0.034 A 
HETATM   37  C   UNK N   1      36.666   9.853  18.288  0.00  0.00     0.026 A 
HETATM   38 Cl   UNK N   1      37.781   8.987  20.602  0.00  0.00    -0.084 Cl
HETATM   39  C   UNK N   1      35.942  10.752  17.522  0.00  0.00     0.039 A 
ENDBRANCH  32  33
ENDBRANCH  29  32
ENDBRANCH   6  26
TORSDOF 14
ENDMDL
MODEL 9
REMARK VINA RESULT:      -6.5      8.780     14.592
REMARK  14 active torsions:
REMARK  status: ('A' for Active; 'I' for Inactive)
REMARK    1  A    between atoms: C_2  and  C_3 
REMARK    2  A    between atoms: C_3  and  C_4 
REMARK    3  A    between atoms: C_4  and  C_5 
REMARK    4  A    between atoms: C_8  and  C_25 
REMARK    5  A    between atoms: N_10  and  C_11 
REMARK    6  A    between atoms: C_14  and  O_17 
REMARK    7  A    between atoms: O_17  and  C_18 
REMARK    8  A    between atoms: C_28  and  O_31 
REMARK    9  A    between atoms: O_31  and  C_32 
REMARK   10  A    between atoms: C_32  and  C_33 
REMARK   11  A    between atoms: C_33  and  C_34 
REMARK   12  A    between atoms: C_34  and  N_35 
REMARK   13  A    between atoms: N_35  and  C_36 
REMARK   14  A    between atoms: N_35  and  C_38 
ROOT
HETATM    1  C   UNK N   1      27.855  17.678   6.405  0.00  0.00     0.088 A 
HETATM    2  N   UNK N   1      26.527  17.521   6.168  0.00  0.00    -0.344 N 
ATOM      3  HN  UNK N   1      25.746  18.011   6.604  1.00  0.00     0.167 HD
HETATM    4  C   UNK N   1      26.490  16.558   5.214  0.00  0.00     0.060 A 
HETATM    5  C   UNK N   1      27.750  16.170   4.890  0.00  0.00     0.129 A 
HETATM    6  N   UNK N   1      28.605  16.852   5.634  0.00  0.00    -0.310 N 
ENDROOT
BRANCH   4   7
HETATM    7  C   UNK N   1      25.352  15.936   4.535  0.00  0.00    -0.008 A 
HETATM    8  C   UNK N   1      25.222  15.762   3.151  0.00  0.00     0.016 A 
HETATM    9  C   UNK N   1      24.083  15.092   2.651  0.00  0.00     0.037 A 
HETATM   10  C   UNK N   1      23.108  14.591   3.541  0.00  0.00     0.068 A 
HETATM   11  C   UNK N   1      23.253  14.811   4.901  0.00  0.00     0.037 A 
HETATM   12  C   UNK N   1      24.344  15.472   5.383  0.00  0.00     0.016 A 
BRANCH  10  13
HETATM   13  O   UNK N   1      22.051  13.877   3.086  0.00  0.00    -0.351 OA
BRANCH  13  14
HETATM   14  C   UNK N   1      21.251  13.071   3.897  0.00  0.00     0.177 C 
BRANCH  14  15
HETATM   15  C   UNK N   1      19.775  13.485   4.027  0.00  0.00     0.057 C 
BRANCH  15  16
HETATM   16  C   UNK N   1      19.477  14.833   3.397  0.00  0.00     0.274 C 
BRANCH  16  17
HETATM   17  N   UNK N   1      19.870  15.888   4.312  0.00  0.00     0.087 N 
BRANCH  17  18
HETATM   18  C   UNK N   1      19.805  17.148   3.595  0.00  0.00     0.268 C 
HETATM   19  C   UNK N   1      21.196  17.751   3.510  0.00  0.00     0.037 C 
ENDBRANCH  17  18
BRANCH  17  20
HETATM   20  C   UNK N   1      18.879  15.917   5.374  0.00  0.00     0.268 C 
HETATM   21  C   UNK N   1      19.575  16.111   6.707  0.00  0.00     0.037 C 
ENDBRANCH  17  20
ENDBRANCH  16  17
ENDBRANCH  15  16
ENDBRANCH  14  15
ENDBRANCH  13  14
ENDBRANCH  10  13
ENDBRANCH   4   7
BRANCH   1  22
HETATM   22  C   UNK N   1      28.412  18.680   7.383  0.00  0.00     0.077 C 
BRANCH  22  23
HETATM   23  C   UNK N   1      28.198  18.213   8.820  0.00  0.00     0.007 C 
BRANCH  23  24
HETATM   24  C   UNK N   1      29.463  17.585   9.387  0.00  0.00    -0.004 C 
HETATM   25  C   UNK N   1      30.697  18.254   8.809  0.00  0.00     0.005 C 
ENDBRANCH  23  24
ENDBRANCH  22  23
ENDBRANCH   1  22
BRANCH   6  26
HETATM   26  C   UNK N   1      30.003  16.627   5.504  0.00  0.00     0.040 A 
HETATM   27  C   UNK N   1      30.787  17.515   4.730  0.00  0.00     0.033 A 
HETATM   28  C   UNK N   1      32.171  17.379   4.666  0.00  0.00     0.039 A 
HETATM   29  C   UNK N   1      32.770  16.338   5.367  0.00  0.00     0.076 A 
HETATM   30  C   UNK N   1      31.966  15.397   6.049  0.00  0.00     0.039 A 
HETATM   31  C   UNK N   1      30.600  15.547   6.129  0.00  0.00     0.033 A 
BRANCH  29  32
HETATM   32  O   UNK N   1      34.117  16.281   5.513  0.00  0.00    -0.311 OA
BRANCH  32  33
HETATM   33  C   UNK N   1      34.595  16.338   6.779  0.00  0.00     0.076 A 
HETATM   34  C   UNK N   1      35.144  15.204   7.376  0.00  0.00     0.039 A 
HETATM   35  C   UNK N   1      35.356  15.192   8.759  0.00  0.00     0.026 A 
HETATM   36  C   UNK N   1      35.023  16.312   9.534  0.00  0.00     0.034 A 
HETATM   37  C   UNK N   1      34.542  17.468   8.929  0.00  0.00     0.026 A 
HETATM   38 Cl   UNK N   1      35.157  16.256  11.274  0.00  0.00    -0.084 Cl
HETATM   39  C   UNK N   1      34.334  17.484   7.560  0.00  0.00     0.039 A 
ENDBRANCH  32  33
ENDBRANCH  29  32
ENDBRANCH   6  26
TORSDOF 14
ENDMDL
