REMARK  22 active torsions:
REMARK  status: ('A' for Active; 'I' for Inactive)
REMARK    1  A    between atoms: C_2  and  C_3 
REMARK    2  A    between atoms: C_3  and  C_4 
REMARK    3  A    between atoms: C_4  and  C_5 
REMARK    4  A    between atoms: C_5  and  C_6 
REMARK    5  A    between atoms: C_6  and  C_7 
REMARK    6  A    between atoms: C_7  and  C_8 
REMARK    7  A    between atoms: C_8  and  C_9 
REMARK    8  A    between atoms: C_9  and  C_10 
REMARK    9  A    between atoms: C_10  and  C_11 
REMARK   10  A    between atoms: C_11  and  C_12 
REMARK   11  A    between atoms: C_12  and  C_13 
REMARK   12  A    between atoms: C_13  and  C_14 
REMARK   13  A    between atoms: C_14  and  O_15 
REMARK   14  A    between atoms: O_15  and  C_16 
REMARK   15  A    between atoms: C_19  and  C_21 
REMARK   16  A    between atoms: C_21  and  O_23 
REMARK   17  A    between atoms: O_23  and  C_24 
REMARK   18  A    between atoms: C_24  and  C_25 
REMARK       I    between atoms: C_25  and  N_27 
REMARK   19  A    between atoms: N_27  and  C_29 
REMARK   20  A    between atoms: C_29  and  C_30 
REMARK   21  A    between atoms: C_30  and  O_32 
REMARK   22  A    between atoms: O_32  and  C_33 
ROOT
HETATM    1  C   UNK N   1       7.746  -9.095  -0.067  0.00  0.00     0.185 A 
HETATM    2  C   UNK N   1       8.120  -8.115   0.823  0.00  0.00     0.067 A 
HETATM    3  C   UNK N   1       9.504  -8.164   0.832  0.00  0.00     0.048 A 
HETATM    4  C   UNK N   1       9.851  -9.206  -0.017  0.00  0.00     0.153 A 
HETATM    5  O   UNK N   1       8.782  -9.734  -0.524  0.00  0.00    -0.282 OA
ENDROOT
BRANCH   1   6
HETATM    6  O   UNK N   1       6.537  -9.211  -0.621  0.00  0.00    -0.330 OA
BRANCH   6   7
HETATM    7  C   UNK N   1       6.491  -9.351  -1.991  0.00  0.00     0.178 C 
BRANCH   7   8
HETATM    8  C   UNK N   1       5.250 -10.058  -2.477  0.00  0.00     0.027 C 
BRANCH   8   9
HETATM    9  C   UNK N   1       4.002  -9.463  -1.871  0.00  0.00     0.002 C 
BRANCH   9  10
HETATM   10  C   UNK N   1       3.617 -10.281  -0.650  0.00  0.00     0.000 C 
BRANCH  10  11
HETATM   11  C   UNK N   1       4.100  -9.618   0.632  0.00  0.00     0.000 C 
BRANCH  11  12
HETATM   12  C   UNK N   1       2.995  -8.837   1.327  0.00  0.00     0.000 C 
BRANCH  12  13
HETATM   13  C   UNK N   1       2.643  -7.538   0.605  0.00  0.00     0.000 C 
BRANCH  13  14
HETATM   14  C   UNK N   1       1.800  -7.762  -0.649  0.00  0.00     0.000 C 
BRANCH  14  15
HETATM   15  C   UNK N   1       0.431  -8.333  -0.322  0.00  0.00     0.000 C 
BRANCH  15  16
HETATM   16  C   UNK N   1       0.506  -9.834  -0.083  0.00  0.00     0.000 C 
BRANCH  16  17
HETATM   17  C   UNK N   1      -0.409 -10.231   1.063  0.00  0.00     0.000 C 
BRANCH  17  18
HETATM   18  C   UNK N   1      -1.840 -10.405   0.583  0.00  0.00    -0.000 C 
BRANCH  18  19
HETATM   19  C   UNK N   1      -2.493  -9.058   0.336  0.00  0.00    -0.005 C 
HETATM   20  C   UNK N   1      -3.848  -9.266  -0.304  0.00  0.00     0.005 C 
ENDBRANCH  18  19
ENDBRANCH  17  18
ENDBRANCH  16  17
ENDBRANCH  15  16
ENDBRANCH  14  15
ENDBRANCH  13  14
ENDBRANCH  12  13
ENDBRANCH  11  12
ENDBRANCH  10  11
ENDBRANCH   9  10
ENDBRANCH   8   9
ENDBRANCH   7   8
ENDBRANCH   6   7
ENDBRANCH   1   6
BRANCH   4  21
HETATM   21  C   UNK N   1      11.164  -9.549  -0.579  0.00  0.00     0.317 C 
HETATM   22  O   UNK N   1      11.404 -10.717  -0.830  0.00  0.00    -0.257 OA
BRANCH  21  23
HETATM   23  O   UNK N   1      12.011  -8.594  -1.043  0.00  0.00    -0.307 OA
BRANCH  23  24
HETATM   24  C   UNK N   1      11.835  -7.238  -0.877  0.00  0.00     0.281 C 
BRANCH  24  25
HETATM   25  C   UNK N   1      12.421  -6.910   0.455  0.00  0.00     0.244 C 
HETATM   26  O   UNK N   1      11.697  -6.473   1.329  0.00  0.00    -0.271 OA
HETATM   27  N   UNK N   1      13.727  -7.201   0.710  0.00  0.00    -0.345 N 
HETATM   28  C   UNK N   1      14.211  -7.132   2.071  0.00  0.00     0.153 C 
BRANCH  27  29
HETATM   29  C   UNK N   1      14.614  -7.645  -0.347  0.00  0.00     0.236 C 
BRANCH  29  30
HETATM   30  C   UNK N   1      15.905  -6.889  -0.313  0.00  0.00     0.276 C 
HETATM   31  O   UNK N   1      16.714  -7.142   0.569  0.00  0.00    -0.263 OA
BRANCH  30  32
HETATM   32  O   UNK N   1      16.169  -5.929  -1.236  0.00  0.00    -0.321 OA
BRANCH  32  33
HETATM   33  C   UNK N   1      17.346  -5.204  -1.242  0.00  0.00     0.174 C 
HETATM   34  C   UNK N   1      17.448  -4.314  -0.011  0.00  0.00     0.034 C 
ENDBRANCH  32  33
ENDBRANCH  30  32
ENDBRANCH  29  30
ENDBRANCH  27  29
ENDBRANCH  24  25
ENDBRANCH  23  24
ENDBRANCH  21  23
ENDBRANCH   4  21
TORSDOF 22
