REMARK  6 active torsions:
REMARK  status: ('A' for Active; 'I' for Inactive)
REMARK    1  A    between atoms: C_2  and  C_3 
REMARK    2  A    between atoms: C_3  and  C_4 
REMARK    3  A    between atoms: C_3  and  N_12 
REMARK    4  A    between atoms: N_12  and  C_13 
REMARK    5  A    between atoms: C_23  and  C_24 
REMARK    6  A    between atoms: C_27  and  O_31 
ROOT
HETATM    1  C   UNK N   1       4.177   1.560  -0.045  0.00  0.00     0.127 A 
HETATM    2  C   UNK N   1       5.240   0.682   0.209  0.00  0.00     0.074 A 
HETATM    3  C   UNK N   1       4.963  -0.697   0.310  0.00  0.00     0.010 A 
HETATM    4  N   UNK N   1       3.682  -1.156   0.181  0.00  0.00    -0.344 N 
ATOM      5  HN  UNK N   1       3.479  -2.153   0.257  1.00  0.00     0.167 HD
HETATM    6  C   UNK N   1       2.682  -0.265  -0.049  0.00  0.00     0.142 A 
HETATM    7  N   UNK N   1       2.938   1.037  -0.161  0.00  0.00    -0.223 N 
HETATM    8  N   UNK N   1       1.820   1.705  -0.371  0.00  0.00    -0.294 N 
ATOM      9  HN  UNK N   1       1.737   2.714  -0.495  1.00  0.00     0.187 HD
HETATM   10  C   UNK N   1       0.804   0.816  -0.391  0.00  0.00     0.037 A 
HETATM   11  C   UNK N   1       1.315  -0.490  -0.187  0.00  0.00     0.044 A 
HETATM   12  C   UNK N   1      -0.585   1.270  -0.650  0.00  0.00     0.070 C 
HETATM   13  C   UNK N   1       6.069  -1.659   0.555  0.00  0.00     0.068 C 
ENDROOT
BRANCH   1  14
HETATM   14  N   UNK N   1       4.344   2.956  -0.182  0.00  0.00    -0.363 N 
HETATM   15  H   UNK N   1       3.771   3.405  -0.845  0.00  0.00     0.162 HD
BRANCH  14  16
HETATM   16  C   UNK N   1       5.265   3.791   0.547  0.00  0.00     0.160 C 
BRANCH  16  17
HETATM   17  C   UNK N   1       6.678   3.723  -0.025  0.00  0.00     0.029 C 
HETATM   18  C   UNK N   1       7.496   2.653   0.671  0.00  0.00     0.007 C 
ENDBRANCH  16  17
BRANCH  16  19
HETATM   19  C   UNK N   1       4.707   5.173   0.428  0.00  0.00     0.171 A 
HETATM   20  N   UNK N   1       3.435   5.484   0.749  0.00  0.00    -0.325 N 
HETATM   21  C   UNK N   1       3.347   6.776   0.388  0.00  0.00     0.100 A 
ATOM     22  HN  UNK N   1       2.719   4.888   1.163  1.00  0.00     0.169 HD
HETATM   23  N   UNK N   1       4.508   7.225  -0.123  0.00  0.00    -0.247 N 
HETATM   24  C   UNK N   1       2.107   7.588   0.499  0.00  0.00     0.091 C 
HETATM   25  O   UNK N   1       5.322   6.212  -0.088  0.00  0.00    -0.221 OA
ATOM     26  HN  UNK N   1       4.707   8.164  -0.467  1.00  0.00     0.196 HD
ENDBRANCH  16  19
ENDBRANCH  14  16
ENDBRANCH   1  14
BRANCH  11  27
HETATM   27  C   UNK N   1       0.673  -1.856  -0.132  0.00  0.00    -0.014 A 
HETATM   28  C   UNK N   1       1.547  -2.957  -0.189  0.00  0.00     0.016 A 
HETATM   29  C   UNK N   1       1.085  -4.268  -0.164  0.00  0.00     0.037 A 
HETATM   30  C   UNK N   1      -0.284  -4.526  -0.074  0.00  0.00     0.068 A 
HETATM   31  C   UNK N   1      -1.174  -3.457   0.001  0.00  0.00     0.044 A 
HETATM   32  C   UNK N   1      -0.724  -2.132  -0.027  0.00  0.00    -0.048 A 
HETATM   33  C   UNK N   1      -1.769  -1.092   0.106  0.00  0.00     0.049 C 
BRANCH  30  34
HETATM   34  O   UNK N   1      -0.768  -5.790  -0.053  0.00  0.00    -0.356 OA
HETATM   35  C   UNK N   1       0.038  -6.905  -0.124  0.00  0.00     0.210 C 
ENDBRANCH  30  34
ENDBRANCH  11  27
TORSDOF 6
