MODEL 1
REMARK VINA RESULT:      -6.8      0.000      0.000
REMARK  5 active torsions:
REMARK  status: ('A' for Active; 'I' for Inactive)
REMARK    1  A    between atoms: C_3  and  C_8 
REMARK       I    between atoms: C_8  and  N_10 
REMARK    2  A    between atoms: N_10  and  C_11 
REMARK    3  A    between atoms: C_14  and  C_19 
REMARK    4  A    between atoms: C_15  and  N_18 
REMARK    5  A    between atoms: C_21  and  O_26 
ROOT
HETATM    1  C   UNK N   1      35.900  13.187  14.107  0.00  0.00     0.109 A 
HETATM    2  C   UNK N   1      36.324  14.463  13.729  0.00  0.00     0.050 A 
HETATM    3  C   UNK N   1      36.125  14.884  12.408  0.00  0.00     0.020 A 
HETATM    4  C   UNK N   1      35.499  14.038  11.473  0.00  0.00     0.020 A 
HETATM    5  C   UNK N   1      35.024  12.788  11.928  0.00  0.00     0.111 A 
HETATM    6  N   UNK N   1      35.243  12.410  13.209  0.00  0.00    -0.328 N 
ATOM      7  HN  UNK N   1      34.900  11.499  13.513  1.00  0.00     0.169 HD
ENDROOT
BRANCH   1   8
HETATM    8  N   UNK N   1      36.042  12.737  15.446  0.00  0.00    -0.308 N 
HETATM    9  C   UNK N   1      34.991  12.709  16.312  0.00  0.00     0.275 C 
HETATM   10  O   UNK N   1      33.846  12.834  15.897  0.00  0.00    -0.266 OA
HETATM   11  H   UNK N   1      36.927  12.437  15.758  0.00  0.00     0.170 HD
BRANCH   9  12
HETATM   12  C   UNK N   1      35.205  12.581  17.767  0.00  0.00     0.119 A 
HETATM   13  N   UNK N   1      35.305  13.587  18.654  0.00  0.00    -0.292 N 
HETATM   14  C   UNK N   1      35.263  15.016  18.386  0.00  0.00     0.178 C 
HETATM   15  N   UNK N   1      35.425  13.086  19.869  0.00  0.00    -0.309 N 
HETATM   16  C   UNK N   1      35.406  11.738  19.779  0.00  0.00     0.110 A 
ATOM     17  HN  UNK N   1      35.516  13.624  20.730  1.00  0.00     0.186 HD
HETATM   18  C   UNK N   1      35.264  11.380  18.447  0.00  0.00     0.055 A 
ENDBRANCH   9  12
ENDBRANCH   1   8
BRANCH   5  19
HETATM   19  N   UNK N   1      34.226  11.960  11.114  0.00  0.00    -0.385 N 
HETATM   20  H   UNK N   1      34.509  11.579  10.251  0.00  0.00     0.157 HD
HETATM   21  H   UNK N   1      33.319  11.747  11.431  0.00  0.00     0.157 HD
ENDBRANCH   5  19
BRANCH   4  22
HETATM   22  C   UNK N   1      35.307  14.512  10.068  0.00  0.00     0.002 A 
HETATM   23  C   UNK N   1      34.347  15.510   9.830  0.00  0.00     0.051 A 
HETATM   24  C   UNK N   1      34.102  15.989   8.530  0.00  0.00     0.069 A 
HETATM   25  C   UNK N   1      34.838  15.479   7.463  0.00  0.00     0.038 A 
HETATM   26  C   UNK N   1      35.823  14.521   7.683  0.00  0.00     0.027 A 
HETATM   27  C   UNK N   1      36.071  14.030   8.966  0.00  0.00     0.045 A 
HETATM   28 Cl   UNK N   1      37.440  12.933   9.128  0.00  0.00    -0.083 Cl
BRANCH  24  29
HETATM   29  O   UNK N   1      33.166  16.935   8.283  0.00  0.00    -0.356 OA
HETATM   30  C   UNK N   1      33.475  18.238   7.967  0.00  0.00     0.210 C 
ENDBRANCH  24  29
ENDBRANCH   4  22
TORSDOF 5
ENDMDL
MODEL 2
REMARK VINA RESULT:      -6.7      3.711      5.879
REMARK  5 active torsions:
REMARK  status: ('A' for Active; 'I' for Inactive)
REMARK    1  A    between atoms: C_3  and  C_8 
REMARK       I    between atoms: C_8  and  N_10 
REMARK    2  A    between atoms: N_10  and  C_11 
REMARK    3  A    between atoms: C_14  and  C_19 
REMARK    4  A    between atoms: C_15  and  N_18 
REMARK    5  A    between atoms: C_21  and  O_26 
ROOT
HETATM    1  C   UNK N   1      33.818  14.918  10.032  0.00  0.00     0.109 A 
HETATM    2  C   UNK N   1      33.293  13.999   9.121  0.00  0.00     0.050 A 
HETATM    3  C   UNK N   1      32.849  14.455   7.873  0.00  0.00     0.020 A 
HETATM    4  C   UNK N   1      32.935  15.819   7.535  0.00  0.00     0.020 A 
HETATM    5  C   UNK N   1      33.543  16.691   8.465  0.00  0.00     0.111 A 
HETATM    6  N   UNK N   1      33.951  16.218   9.666  0.00  0.00    -0.328 N 
ATOM      7  HN  UNK N   1      34.379  16.869  10.325  1.00  0.00     0.169 HD
ENDROOT
BRANCH   1   8
HETATM    8  N   UNK N   1      34.321  14.494  11.291  0.00  0.00    -0.308 N 
HETATM    9  C   UNK N   1      35.635  14.624  11.622  0.00  0.00     0.275 C 
HETATM   10  O   UNK N   1      36.374  15.333  10.951  0.00  0.00    -0.266 OA
HETATM   11  H   UNK N   1      33.700  14.093  11.942  0.00  0.00     0.170 HD
BRANCH   9  12
HETATM   12  C   UNK N   1      36.212  13.879  12.759  0.00  0.00     0.119 A 
HETATM   13  N   UNK N   1      37.011  12.800  12.688  0.00  0.00    -0.292 N 
HETATM   14  C   UNK N   1      37.458  12.103  11.492  0.00  0.00     0.178 C 
HETATM   15  N   UNK N   1      37.383  12.452  13.905  0.00  0.00    -0.309 N 
HETATM   16  C   UNK N   1      36.820  13.309  14.785  0.00  0.00     0.110 A 
ATOM     17  HN  UNK N   1      37.991  11.669  14.142  1.00  0.00     0.186 HD
HETATM   18  C   UNK N   1      36.065  14.238  14.085  0.00  0.00     0.055 A 
ENDBRANCH   9  12
ENDBRANCH   1   8
BRANCH   5  19
HETATM   19  N   UNK N   1      33.839  18.029   8.138  0.00  0.00    -0.385 N 
HETATM   20  H   UNK N   1      33.391  18.548   7.431  0.00  0.00     0.157 HD
HETATM   21  H   UNK N   1      34.546  18.479   8.655  0.00  0.00     0.157 HD
ENDBRANCH   5  19
BRANCH   4  22
HETATM   22  C   UNK N   1      32.446  16.276   6.199  0.00  0.00     0.002 A 
HETATM   23  C   UNK N   1      33.172  15.891   5.059  0.00  0.00     0.051 A 
HETATM   24  C   UNK N   1      32.778  16.302   3.772  0.00  0.00     0.069 A 
HETATM   25  C   UNK N   1      31.637  17.087   3.624  0.00  0.00     0.038 A 
HETATM   26  C   UNK N   1      30.880  17.444   4.736  0.00  0.00     0.027 A 
HETATM   27  C   UNK N   1      31.264  17.051   6.019  0.00  0.00     0.045 A 
HETATM   28 Cl   UNK N   1      30.141  17.442   7.320  0.00  0.00    -0.083 Cl
BRANCH  24  29
HETATM   29  O   UNK N   1      33.479  15.956   2.667  0.00  0.00    -0.356 OA
HETATM   30  C   UNK N   1      34.051  14.717   2.493  0.00  0.00     0.210 C 
ENDBRANCH  24  29
ENDBRANCH   4  22
TORSDOF 5
ENDMDL
MODEL 3
REMARK VINA RESULT:      -6.7      3.556      5.770
REMARK  5 active torsions:
REMARK  status: ('A' for Active; 'I' for Inactive)
REMARK    1  A    between atoms: C_3  and  C_8 
REMARK       I    between atoms: C_8  and  N_10 
REMARK    2  A    between atoms: N_10  and  C_11 
REMARK    3  A    between atoms: C_14  and  C_19 
REMARK    4  A    between atoms: C_15  and  N_18 
REMARK    5  A    between atoms: C_21  and  O_26 
ROOT
HETATM    1  C   UNK N   1      33.555  14.935  10.103  0.00  0.00     0.109 A 
HETATM    2  C   UNK N   1      32.935  14.059   9.209  0.00  0.00     0.050 A 
HETATM    3  C   UNK N   1      32.388  14.570   8.025  0.00  0.00     0.020 A 
HETATM    4  C   UNK N   1      32.468  15.944   7.732  0.00  0.00     0.020 A 
HETATM    5  C   UNK N   1      33.172  16.771   8.635  0.00  0.00     0.111 A 
HETATM    6  N   UNK N   1      33.678  16.246   9.775  0.00  0.00    -0.328 N 
ATOM      7  HN  UNK N   1      34.174  16.864  10.417  1.00  0.00     0.169 HD
ENDROOT
BRANCH   1   8
HETATM    8  N   UNK N   1      34.162  14.454  11.293  0.00  0.00    -0.308 N 
HETATM    9  C   UNK N   1      35.485  14.644  11.555  0.00  0.00     0.275 C 
HETATM   10  O   UNK N   1      36.136  15.444  10.896  0.00  0.00    -0.266 OA
HETATM   11  H   UNK N   1      33.609  13.969  11.949  0.00  0.00     0.170 HD
BRANCH   9  12
HETATM   12  C   UNK N   1      36.176  13.858  12.596  0.00  0.00     0.119 A 
HETATM   13  N   UNK N   1      37.079  12.882  12.397  0.00  0.00    -0.292 N 
HETATM   14  C   UNK N   1      37.552  12.355  11.126  0.00  0.00     0.178 C 
HETATM   15  N   UNK N   1      37.528  12.459  13.563  0.00  0.00    -0.309 N 
HETATM   16  C   UNK N   1      36.912  13.162  14.539  0.00  0.00     0.110 A 
ATOM     17  HN  UNK N   1      38.222  11.725  13.705  1.00  0.00     0.186 HD
HETATM   18  C   UNK N   1      36.040  14.069  13.955  0.00  0.00     0.055 A 
ENDBRANCH   9  12
ENDBRANCH   1   8
BRANCH   5  19
HETATM   19  N   UNK N   1      33.461  18.117   8.333  0.00  0.00    -0.385 N 
HETATM   20  H   UNK N   1      33.117  18.604   7.549  0.00  0.00     0.157 HD
HETATM   21  H   UNK N   1      34.049  18.606   8.952  0.00  0.00     0.157 HD
ENDBRANCH   5  19
BRANCH   4  22
HETATM   22  C   UNK N   1      31.868  16.461   6.464  0.00  0.00     0.002 A 
HETATM   23  C   UNK N   1      30.582  17.025   6.519  0.00  0.00     0.051 A 
HETATM   24  C   UNK N   1      29.951  17.513   5.360  0.00  0.00     0.069 A 
HETATM   25  C   UNK N   1      30.621  17.456   4.141  0.00  0.00     0.038 A 
HETATM   26  C   UNK N   1      31.913  16.941   4.071  0.00  0.00     0.027 A 
HETATM   27  C   UNK N   1      32.547  16.445   5.211  0.00  0.00     0.045 A 
HETATM   28 Cl   UNK N   1      34.230  15.960   5.015  0.00  0.00    -0.083 Cl
BRANCH  24  29
HETATM   29  O   UNK N   1      28.704  18.040   5.395  0.00  0.00    -0.356 OA
HETATM   30  C   UNK N   1      28.147  18.586   6.527  0.00  0.00     0.210 C 
ENDBRANCH  24  29
ENDBRANCH   4  22
TORSDOF 5
ENDMDL
MODEL 4
REMARK VINA RESULT:      -6.6     10.152     14.743
REMARK  5 active torsions:
REMARK  status: ('A' for Active; 'I' for Inactive)
REMARK    1  A    between atoms: C_3  and  C_8 
REMARK       I    between atoms: C_8  and  N_10 
REMARK    2  A    between atoms: N_10  and  C_11 
REMARK    3  A    between atoms: C_14  and  C_19 
REMARK    4  A    between atoms: C_15  and  N_18 
REMARK    5  A    between atoms: C_21  and  O_26 
ROOT
HETATM    1  C   UNK N   1      25.110  18.742   4.455  0.00  0.00     0.109 A 
HETATM    2  C   UNK N   1      26.162  19.650   4.323  0.00  0.00     0.050 A 
HETATM    3  C   UNK N   1      27.409  19.333   4.878  0.00  0.00     0.020 A 
HETATM    4  C   UNK N   1      27.604  18.112   5.551  0.00  0.00     0.020 A 
HETATM    5  C   UNK N   1      26.527  17.199   5.588  0.00  0.00     0.111 A 
HETATM    6  N   UNK N   1      25.333  17.544   5.052  0.00  0.00    -0.328 N 
ATOM      7  HN  UNK N   1      24.566  16.873   5.099  1.00  0.00     0.169 HD
ENDROOT
BRANCH   1   8
HETATM    8  N   UNK N   1      23.842  19.003   3.870  0.00  0.00    -0.308 N 
HETATM    9  C   UNK N   1      22.681  18.604   4.459  0.00  0.00     0.275 C 
HETATM   10  O   UNK N   1      22.676  18.229   5.625  0.00  0.00    -0.266 OA
HETATM   11  H   UNK N   1      23.802  19.488   3.014  0.00  0.00     0.170 HD
BRANCH   9  12
HETATM   12  C   UNK N   1      21.416  18.562   3.700  0.00  0.00     0.119 A 
HETATM   13  N   UNK N   1      20.826  17.469   3.183  0.00  0.00    -0.292 N 
HETATM   14  C   UNK N   1      21.309  16.098   3.222  0.00  0.00     0.178 C 
HETATM   15  N   UNK N   1      19.677  17.813   2.633  0.00  0.00    -0.309 N 
HETATM   16  C   UNK N   1      19.511  19.144   2.786  0.00  0.00     0.110 A 
ATOM     17  HN  UNK N   1      19.025  17.181   2.169  1.00  0.00     0.186 HD
HETATM   18  C   UNK N   1      20.606  19.657   3.468  0.00  0.00     0.055 A 
ENDBRANCH   9  12
ENDBRANCH   1   8
BRANCH   5  19
HETATM   19  N   UNK N   1      26.687  15.887   6.075  0.00  0.00    -0.385 N 
HETATM   20  H   UNK N   1      27.370  15.250   5.762  0.00  0.00     0.157 HD
HETATM   21  H   UNK N   1      26.072  15.584   6.781  0.00  0.00     0.157 HD
ENDBRANCH   5  19
BRANCH   4  22
HETATM   22  C   UNK N   1      28.944  17.804   6.138  0.00  0.00     0.002 A 
HETATM   23  C   UNK N   1      29.990  17.462   5.263  0.00  0.00     0.051 A 
HETATM   24  C   UNK N   1      31.270  17.144   5.750  0.00  0.00     0.069 A 
HETATM   25  C   UNK N   1      31.512  17.186   7.120  0.00  0.00     0.038 A 
HETATM   26  C   UNK N   1      30.502  17.564   8.001  0.00  0.00     0.027 A 
HETATM   27  C   UNK N   1      29.225  17.874   7.534  0.00  0.00     0.045 A 
HETATM   28 Cl   UNK N   1      28.083  18.479   8.733  0.00  0.00    -0.083 Cl
BRANCH  24  29
HETATM   29  O   UNK N   1      32.281  16.792   4.921  0.00  0.00    -0.356 OA
HETATM   30  C   UNK N   1      32.382  17.236   3.623  0.00  0.00     0.210 C 
ENDBRANCH  24  29
ENDBRANCH   4  22
TORSDOF 5
ENDMDL
MODEL 5
REMARK VINA RESULT:      -6.5      6.517      9.998
REMARK  5 active torsions:
REMARK  status: ('A' for Active; 'I' for Inactive)
REMARK    1  A    between atoms: C_3  and  C_8 
REMARK       I    between atoms: C_8  and  N_10 
REMARK    2  A    between atoms: N_10  and  C_11 
REMARK    3  A    between atoms: C_14  and  C_19 
REMARK    4  A    between atoms: C_15  and  N_18 
REMARK    5  A    between atoms: C_21  and  O_26 
ROOT
HETATM    1  C   UNK N   1      30.695  17.258   8.182  0.00  0.00     0.109 A 
HETATM    2  C   UNK N   1      29.507  17.642   8.808  0.00  0.00     0.050 A 
HETATM    3  C   UNK N   1      28.422  18.048   8.019  0.00  0.00     0.020 A 
HETATM    4  C   UNK N   1      28.521  18.062   6.615  0.00  0.00     0.020 A 
HETATM    5  C   UNK N   1      29.720  17.592   6.034  0.00  0.00     0.111 A 
HETATM    6  N   UNK N   1      30.752  17.218   6.826  0.00  0.00    -0.328 N 
ATOM      7  HN  UNK N   1      31.611  16.891   6.384  1.00  0.00     0.169 HD
ENDROOT
BRANCH   1   8
HETATM    8  N   UNK N   1      31.804  16.798   8.940  0.00  0.00    -0.308 N 
HETATM    9  C   UNK N   1      33.083  17.153   8.634  0.00  0.00     0.275 C 
HETATM   10  O   UNK N   1      33.299  18.073   7.856  0.00  0.00    -0.266 OA
HETATM   11  H   UNK N   1      31.643  16.203   9.709  0.00  0.00     0.170 HD
BRANCH   9  12
HETATM   12  C   UNK N   1      34.233  16.411   9.188  0.00  0.00     0.119 A 
HETATM   13  N   UNK N   1      34.785  15.293   8.682  0.00  0.00    -0.292 N 
HETATM   14  C   UNK N   1      34.360  14.546   7.509  0.00  0.00     0.178 C 
HETATM   15  N   UNK N   1      35.835  14.959   9.408  0.00  0.00    -0.309 N 
HETATM   16  C   UNK N   1      35.973  15.864  10.402  0.00  0.00     0.110 A 
ATOM     17  HN  UNK N   1      36.439  14.154   9.247  1.00  0.00     0.186 HD
HETATM   18  C   UNK N   1      34.964  16.810  10.289  0.00  0.00     0.055 A 
ENDBRANCH   9  12
ENDBRANCH   1   8
BRANCH   5  19
HETATM   19  N   UNK N   1      29.840  17.396   4.644  0.00  0.00    -0.385 N 
HETATM   20  H   UNK N   1      29.083  17.340   4.016  0.00  0.00     0.157 HD
HETATM   21  H   UNK N   1      30.747  17.309   4.273  0.00  0.00     0.157 HD
ENDBRANCH   5  19
BRANCH   4  22
HETATM   22  C   UNK N   1      27.350  18.507   5.801  0.00  0.00     0.002 A 
HETATM   23  C   UNK N   1      26.504  17.522   5.261  0.00  0.00     0.051 A 
HETATM   24  C   UNK N   1      25.394  17.870   4.470  0.00  0.00     0.069 A 
HETATM   25  C   UNK N   1      25.116  19.214   4.234  0.00  0.00     0.038 A 
HETATM   26  C   UNK N   1      25.916  20.206   4.795  0.00  0.00     0.027 A 
HETATM   27  C   UNK N   1      27.025  19.876   5.574  0.00  0.00     0.045 A 
HETATM   28 Cl   UNK N   1      27.863  21.221   6.344  0.00  0.00    -0.083 Cl
BRANCH  24  29
HETATM   29  O   UNK N   1      24.583  16.932   3.926  0.00  0.00    -0.356 OA
HETATM   30  C   UNK N   1      25.052  15.804   3.293  0.00  0.00     0.210 C 
ENDBRANCH  24  29
ENDBRANCH   4  22
TORSDOF 5
ENDMDL
MODEL 6
REMARK VINA RESULT:      -6.4      2.779      8.473
REMARK  5 active torsions:
REMARK  status: ('A' for Active; 'I' for Inactive)
REMARK    1  A    between atoms: C_3  and  C_8 
REMARK       I    between atoms: C_8  and  N_10 
REMARK    2  A    between atoms: N_10  and  C_11 
REMARK    3  A    between atoms: C_14  and  C_19 
REMARK    4  A    between atoms: C_15  and  N_18 
REMARK    5  A    between atoms: C_21  and  O_26 
ROOT
HETATM    1  C   UNK N   1      35.111  14.927  11.285  0.00  0.00     0.109 A 
HETATM    2  C   UNK N   1      36.016  15.319  12.273  0.00  0.00     0.050 A 
HETATM    3  C   UNK N   1      36.291  14.444  13.332  0.00  0.00     0.020 A 
HETATM    4  C   UNK N   1      35.672  13.182  13.398  0.00  0.00     0.020 A 
HETATM    5  C   UNK N   1      34.823  12.807  12.333  0.00  0.00     0.111 A 
HETATM    6  N   UNK N   1      34.571  13.682  11.332  0.00  0.00    -0.328 N 
ATOM      7  HN  UNK N   1      33.947  13.393  10.578  1.00  0.00     0.169 HD
ENDROOT
BRANCH   1   8
HETATM    8  N   UNK N   1      34.836  15.764  10.171  0.00  0.00    -0.308 N 
HETATM    9  C   UNK N   1      33.711  15.616   9.419  0.00  0.00     0.275 C 
HETATM   10  O   UNK N   1      32.784  14.925   9.823  0.00  0.00    -0.266 OA
HETATM   11  H   UNK N   1      35.480  16.472   9.936  0.00  0.00     0.170 HD
BRANCH   9  12
HETATM   12  C   UNK N   1      33.600  16.235   8.083  0.00  0.00     0.119 A 
HETATM   13  N   UNK N   1      32.749  17.212   7.721  0.00  0.00    -0.292 N 
HETATM   14  C   UNK N   1      31.730  17.850   8.538  0.00  0.00     0.178 C 
HETATM   15  N   UNK N   1      32.988  17.556   6.469  0.00  0.00    -0.309 N 
HETATM   16  C   UNK N   1      34.004  16.797   6.004  0.00  0.00     0.110 A 
ATOM     17  HN  UNK N   1      32.491  18.273   5.942  1.00  0.00     0.186 HD
HETATM   18  C   UNK N   1      34.423  15.941   7.013  0.00  0.00     0.055 A 
ENDBRANCH   9  12
ENDBRANCH   1   8
BRANCH   5  19
HETATM   19  N   UNK N   1      34.309  11.499  12.223  0.00  0.00    -0.385 N 
HETATM   20  H   UNK N   1      34.318  10.829  12.944  0.00  0.00     0.157 HD
HETATM   21  H   UNK N   1      33.912  11.237  11.361  0.00  0.00     0.157 HD
ENDBRANCH   5  19
BRANCH   4  22
HETATM   22  C   UNK N   1      35.979  12.272  14.544  0.00  0.00     0.002 A 
HETATM   23  C   UNK N   1      35.316  12.493  15.763  0.00  0.00     0.051 A 
HETATM   24  C   UNK N   1      35.571  11.686  16.887  0.00  0.00     0.069 A 
HETATM   25  C   UNK N   1      36.482  10.638  16.784  0.00  0.00     0.038 A 
HETATM   26  C   UNK N   1      37.118  10.375  15.573  0.00  0.00     0.027 A 
HETATM   27  C   UNK N   1      36.881  11.173  14.453  0.00  0.00     0.045 A 
HETATM   28 Cl   UNK N   1      37.634  10.645  12.950  0.00  0.00    -0.083 Cl
BRANCH  24  29
HETATM   29  O   UNK N   1      34.955  11.900  18.073  0.00  0.00    -0.356 OA
HETATM   30  C   UNK N   1      35.185  13.009  18.853  0.00  0.00     0.210 C 
ENDBRANCH  24  29
ENDBRANCH   4  22
TORSDOF 5
ENDMDL
MODEL 7
REMARK VINA RESULT:      -6.4      2.630      8.659
REMARK  5 active torsions:
REMARK  status: ('A' for Active; 'I' for Inactive)
REMARK    1  A    between atoms: C_3  and  C_8 
REMARK       I    between atoms: C_8  and  N_10 
REMARK    2  A    between atoms: N_10  and  C_11 
REMARK    3  A    between atoms: C_14  and  C_19 
REMARK    4  A    between atoms: C_15  and  N_18 
REMARK    5  A    between atoms: C_21  and  O_26 
ROOT
HETATM    1  C   UNK N   1      35.689  14.160  11.348  0.00  0.00     0.109 A 
HETATM    2  C   UNK N   1      34.986  12.973  11.565  0.00  0.00     0.050 A 
HETATM    3  C   UNK N   1      35.065  12.355  12.820  0.00  0.00     0.020 A 
HETATM    4  C   UNK N   1      35.833  12.924  13.853  0.00  0.00     0.020 A 
HETATM    5  C   UNK N   1      36.462  14.163  13.601  0.00  0.00     0.111 A 
HETATM    6  N   UNK N   1      36.375  14.726  12.374  0.00  0.00    -0.328 N 
ATOM      7  HN  UNK N   1      36.845  15.617  12.212  1.00  0.00     0.169 HD
ENDROOT
BRANCH   1   8
HETATM    8  N   UNK N   1      35.603  14.843  10.106  0.00  0.00    -0.308 N 
HETATM    9  C   UNK N   1      35.125  16.115  10.016  0.00  0.00     0.275 C 
HETATM   10  O   UNK N   1      34.989  16.797  11.023  0.00  0.00    -0.266 OA
HETATM   11  H   UNK N   1      35.897  14.383   9.286  0.00  0.00     0.170 HD
BRANCH   9  12
HETATM   12  C   UNK N   1      34.713  16.684   8.717  0.00  0.00     0.119 A 
HETATM   13  N   UNK N   1      34.420  15.999   7.598  0.00  0.00    -0.292 N 
HETATM   14  C   UNK N   1      34.475  14.559   7.399  0.00  0.00     0.178 C 
HETATM   15  N   UNK N   1      34.026  16.841   6.661  0.00  0.00    -0.309 N 
HETATM   16  C   UNK N   1      34.064  18.092   7.169  0.00  0.00     0.110 A 
ATOM     17  HN  UNK N   1      33.743  16.590   5.715  1.00  0.00     0.186 HD
HETATM   18  C   UNK N   1      34.497  18.029   8.486  0.00  0.00     0.055 A 
ENDBRANCH   9  12
ENDBRANCH   1   8
BRANCH   5  19
HETATM   19  N   UNK N   1      37.094  14.892  14.628  0.00  0.00    -0.385 N 
HETATM   20  H   UNK N   1      36.957  14.743  15.591  0.00  0.00     0.157 HD
HETATM   21  H   UNK N   1      37.721  15.603  14.362  0.00  0.00     0.157 HD
ENDBRANCH   5  19
BRANCH   4  22
HETATM   22  C   UNK N   1      35.904  12.237  15.179  0.00  0.00     0.002 A 
HETATM   23  C   UNK N   1      35.275  12.849  16.277  0.00  0.00     0.051 A 
HETATM   24  C   UNK N   1      35.317  12.267  17.557  0.00  0.00     0.069 A 
HETATM   25  C   UNK N   1      35.977  11.053  17.735  0.00  0.00     0.038 A 
HETATM   26  C   UNK N   1      36.569  10.409  16.653  0.00  0.00     0.027 A 
HETATM   27  C   UNK N   1      36.543  10.979  15.379  0.00  0.00     0.045 A 
HETATM   28 Cl   UNK N   1      37.197   9.995  14.073  0.00  0.00    -0.083 Cl
BRANCH  24  29
HETATM   29  O   UNK N   1      34.734  12.855  18.628  0.00  0.00    -0.356 OA
HETATM   30  C   UNK N   1      35.176  12.680  19.919  0.00  0.00     0.210 C 
ENDBRANCH  24  29
ENDBRANCH   4  22
TORSDOF 5
ENDMDL
MODEL 8
REMARK VINA RESULT:      -6.4      3.720      9.554
REMARK  5 active torsions:
REMARK  status: ('A' for Active; 'I' for Inactive)
REMARK    1  A    between atoms: C_3  and  C_8 
REMARK       I    between atoms: C_8  and  N_10 
REMARK    2  A    between atoms: N_10  and  C_11 
REMARK    3  A    between atoms: C_14  and  C_19 
REMARK    4  A    between atoms: C_15  and  N_18 
REMARK    5  A    between atoms: C_21  and  O_26 
ROOT
HETATM    1  C   UNK N   1      35.808  12.591  15.951  0.00  0.00     0.109 A 
HETATM    2  C   UNK N   1      35.371  13.057  17.193  0.00  0.00     0.050 A 
HETATM    3  C   UNK N   1      35.093  12.131  18.207  0.00  0.00     0.020 A 
HETATM    4  C   UNK N   1      35.258  10.751  17.984  0.00  0.00     0.020 A 
HETATM    5  C   UNK N   1      35.774  10.342  16.734  0.00  0.00     0.111 A 
HETATM    6  N   UNK N   1      36.021  11.263  15.774  0.00  0.00    -0.328 N 
ATOM      7  HN  UNK N   1      36.384  10.943  14.875  1.00  0.00     0.169 HD
ENDROOT
BRANCH   1   8
HETATM    8  N   UNK N   1      36.144  13.496  14.909  0.00  0.00    -0.308 N 
HETATM    9  C   UNK N   1      35.517  13.468  13.701  0.00  0.00     0.275 C 
HETATM   10  O   UNK N   1      34.480  12.833  13.557  0.00  0.00    -0.266 OA
HETATM   11  H   UNK N   1      36.852  14.163  15.066  0.00  0.00     0.170 HD
BRANCH   9  12
HETATM   12  C   UNK N   1      36.093  14.154  12.527  0.00  0.00     0.119 A 
HETATM   13  N   UNK N   1      36.976  13.642  11.652  0.00  0.00    -0.292 N 
HETATM   14  C   UNK N   1      37.589  12.323  11.679  0.00  0.00     0.178 C 
HETATM   15  N   UNK N   1      37.208  14.524  10.699  0.00  0.00    -0.309 N 
HETATM   16  C   UNK N   1      36.471  15.629  10.951  0.00  0.00     0.110 A 
ATOM     17  HN  UNK N   1      37.836  14.396   9.906  1.00  0.00     0.186 HD
HETATM   18  C   UNK N   1      35.743  15.425  12.114  0.00  0.00     0.055 A 
ENDBRANCH   9  12
ENDBRANCH   1   8
BRANCH   5  19
HETATM   19  N   UNK N   1      36.144   9.005  16.490  0.00  0.00    -0.385 N 
HETATM   20  H   UNK N   1      35.692   8.403  15.855  0.00  0.00     0.157 HD
HETATM   21  H   UNK N   1      36.912   8.646  16.991  0.00  0.00     0.157 HD
ENDBRANCH   5  19
BRANCH   4  22
HETATM   22  C   UNK N   1      34.946   9.787  19.083  0.00  0.00     0.002 A 
HETATM   23  C   UNK N   1      33.718   9.105  19.039  0.00  0.00     0.051 A 
HETATM   24  C   UNK N   1      33.353   8.197  20.050  0.00  0.00     0.069 A 
HETATM   25  C   UNK N   1      34.232   7.956  21.103  0.00  0.00     0.038 A 
HETATM   26  C   UNK N   1      35.471   8.589  21.143  0.00  0.00     0.027 A 
HETATM   27  C   UNK N   1      35.843   9.498  20.152  0.00  0.00     0.045 A 
HETATM   28 Cl   UNK N   1      37.492  10.114  20.241  0.00  0.00    -0.083 Cl
BRANCH  24  29
HETATM   29  O   UNK N   1      32.165   7.549  20.032  0.00  0.00    -0.356 OA
HETATM   30  C   UNK N   1      31.919   6.404  20.753  0.00  0.00     0.210 C 
ENDBRANCH  24  29
ENDBRANCH   4  22
TORSDOF 5
ENDMDL
MODEL 9
REMARK VINA RESULT:      -6.3      3.153      8.877
REMARK  5 active torsions:
REMARK  status: ('A' for Active; 'I' for Inactive)
REMARK    1  A    between atoms: C_3  and  C_8 
REMARK       I    between atoms: C_8  and  N_10 
REMARK    2  A    between atoms: N_10  and  C_11 
REMARK    3  A    between atoms: C_14  and  C_19 
REMARK    4  A    between atoms: C_15  and  N_18 
REMARK    5  A    between atoms: C_21  and  O_26 
ROOT
HETATM    1  C   UNK N   1      35.653  12.868  12.510  0.00  0.00     0.109 A 
HETATM    2  C   UNK N   1      36.809  13.065  13.268  0.00  0.00     0.050 A 
HETATM    3  C   UNK N   1      36.859  12.564  14.575  0.00  0.00     0.020 A 
HETATM    4  C   UNK N   1      35.765  11.862  15.117  0.00  0.00     0.020 A 
HETATM    5  C   UNK N   1      34.653  11.627  14.279  0.00  0.00     0.111 A 
HETATM    6  N   UNK N   1      34.633  12.136  13.026  0.00  0.00    -0.328 N 
ATOM      7  HN  UNK N   1      33.815  11.961  12.442  1.00  0.00     0.169 HD
ENDROOT
BRANCH   1   8
HETATM    8  N   UNK N   1      35.575  13.320  11.166  0.00  0.00    -0.308 N 
HETATM    9  C   UNK N   1      34.601  14.175  10.748  0.00  0.00     0.275 C 
HETATM   10  O   UNK N   1      33.913  14.774  11.565  0.00  0.00    -0.266 OA
HETATM   11  H   UNK N   1      36.247  13.006  10.517  0.00  0.00     0.170 HD
BRANCH   9  12
HETATM   12  C   UNK N   1      34.314  14.361   9.312  0.00  0.00     0.119 A 
HETATM   13  N   UNK N   1      34.382  15.515   8.624  0.00  0.00    -0.292 N 
HETATM   14  C   UNK N   1      34.714  16.835   9.135  0.00  0.00     0.178 C 
HETATM   15  N   UNK N   1      34.124  15.279   7.352  0.00  0.00    -0.309 N 
HETATM   16  C   UNK N   1      33.881  13.959   7.202  0.00  0.00     0.110 A 
ATOM     17  HN  UNK N   1      34.109  15.975   6.607  1.00  0.00     0.186 HD
HETATM   18  C   UNK N   1      33.997  13.339   8.438  0.00  0.00     0.055 A 
ENDBRANCH   9  12
ENDBRANCH   1   8
BRANCH   5  19
HETATM   19  N   UNK N   1      33.598  10.780  14.673  0.00  0.00    -0.385 N 
HETATM   20  H   UNK N   1      33.412  10.506  15.601  0.00  0.00     0.157 HD
HETATM   21  H   UNK N   1      33.002  10.436  13.969  0.00  0.00     0.157 HD
ENDBRANCH   5  19
BRANCH   4  22
HETATM   22  C   UNK N   1      35.846  11.345  16.517  0.00  0.00     0.002 A 
HETATM   23  C   UNK N   1      36.441  10.089  16.728  0.00  0.00     0.051 A 
HETATM   24  C   UNK N   1      36.534   9.535  18.017  0.00  0.00     0.069 A 
HETATM   25  C   UNK N   1      36.044  10.251  19.107  0.00  0.00     0.038 A 
HETATM   26  C   UNK N   1      35.489  11.515  18.926  0.00  0.00     0.027 A 
HETATM   27  C   UNK N   1      35.383  12.074  17.651  0.00  0.00     0.045 A 
HETATM   28 Cl   UNK N   1      34.800  13.735  17.577  0.00  0.00    -0.083 Cl
BRANCH  24  29
HETATM   29  O   UNK N   1      37.086   8.318  18.233  0.00  0.00    -0.356 OA
HETATM   30  C   UNK N   1      37.584   7.526  17.225  0.00  0.00     0.210 C 
ENDBRANCH  24  29
ENDBRANCH   4  22
TORSDOF 5
ENDMDL
