MODEL 1
REMARK VINA RESULT:      -8.5      0.000      0.000
REMARK  7 active torsions:
REMARK  status: ('A' for Active; 'I' for Inactive)
REMARK       I    between atoms: N_2  and  C_3 
REMARK    1  A    between atoms: C_8  and  O_36 
REMARK    2  A    between atoms: C_9  and  O_34 
REMARK    3  A    between atoms: C_12  and  C_15 
REMARK    4  A    between atoms: C_19  and  N_21 
REMARK       I    between atoms: N_21  and  C_22 
REMARK    5  A    between atoms: C_22  and  C_24 
REMARK    6  A    between atoms: C_27  and  C_30 
REMARK    7  A    between atoms: C_30  and  O_32 
ROOT
HETATM    1  C   UNK N   1      29.767  16.715   6.755  0.00  0.00    -0.006 A 
HETATM    2  C   UNK N   1      30.231  17.345   7.926  0.00  0.00     0.014 A 
HETATM    3  C   UNK N   1      29.519  18.390   8.514  0.00  0.00     0.003 A 
HETATM    4  C   UNK N   1      28.323  18.815   7.943  0.00  0.00     0.029 A 
HETATM    5  C   UNK N   1      27.844  18.186   6.787  0.00  0.00     0.035 A 
HETATM    6  C   UNK N   1      28.577  17.161   6.192  0.00  0.00     0.043 A 
ENDROOT
BRANCH   1   7
HETATM    7  C   UNK N   1      30.506  15.590   6.110  0.00  0.00     0.072 A 
HETATM    8  C   UNK N   1      31.907  15.586   5.996  0.00  0.00     0.022 A 
HETATM    9  C   UNK N   1      32.686  16.619   6.515  0.00  0.00     0.055 A 
HETATM   10  C   UNK N   1      32.538  14.490   5.388  0.00  0.00     0.064 A 
HETATM   11  C   UNK N   1      34.076  16.595   6.443  0.00  0.00     0.102 A 
HETATM   12  C   UNK N   1      34.712  15.509   5.826  0.00  0.00     0.103 A 
HETATM   13  C   UNK N   1      33.934  14.455   5.296  0.00  0.00     0.070 A 
HETATM   14  N   UNK N   1      31.792  13.460   4.913  0.00  0.00    -0.191 N 
HETATM   15  C   UNK N   1      30.438  13.463   5.035  0.00  0.00     0.678 A 
ATOM     16  HN  UNK N   1      32.254  12.671   4.460  1.00  0.00     0.184 HD
HETATM   17  N   UNK N   1      29.693  12.368   4.534  0.00  0.00    -0.230 N 
HETATM   18  N   UNK N   1      29.809  14.514   5.636  0.00  0.00    -0.190 N 
HETATM   19  C   UNK N   1      28.257  12.317   4.629  0.00  0.00     0.165 C 
HETATM   20  H   UNK N   1      30.171  11.618   4.109  0.00  0.00     0.177 HD
ATOM     21  HN  UNK N   1      28.794  14.495   5.736  1.00  0.00     0.184 HD
BRANCH  11  22
HETATM   22  O   UNK N   1      34.811  17.603   6.973  0.00  0.00    -0.353 OA
HETATM   23  C   UNK N   1      34.390  18.353   8.052  0.00  0.00     0.210 C 
ENDBRANCH  11  22
BRANCH  12  24
HETATM   24  O   UNK N   1      36.063  15.493   5.761  0.00  0.00    -0.353 OA
HETATM   25  C   UNK N   1      36.797  14.344   5.586  0.00  0.00     0.210 C 
ENDBRANCH  12  24
ENDBRANCH   1   7
BRANCH   5  26
HETATM   26  N   UNK N   1      26.695  18.627   6.109  0.00  0.00    -0.323 N 
HETATM   27  C   UNK N   1      26.614  19.213   4.891  0.00  0.00     0.256 C 
HETATM   28  O   UNK N   1      27.614  19.549   4.272  0.00  0.00    -0.267 OA
HETATM   29  H   UNK N   1      25.841  18.495   6.580  0.00  0.00     0.169 HD
BRANCH  27  30
HETATM   30  C   UNK N   1      25.287  19.254   4.273  0.00  0.00     0.032 A 
HETATM   31  C   UNK N   1      24.254  18.396   4.668  0.00  0.00     0.018 A 
HETATM   32  C   UNK N   1      22.955  18.618   4.192  0.00  0.00     0.018 A 
HETATM   33  C   UNK N   1      22.682  19.701   3.333  0.00  0.00     0.039 A 
HETATM   34  C   UNK N   1      23.734  20.517   2.920  0.00  0.00     0.018 A 
HETATM   35  C   UNK N   1      25.017  20.300   3.387  0.00  0.00     0.018 A 
BRANCH  33  36
HETATM   36  C   UNK N   1      21.282  19.984   2.907  0.00  0.00     0.292 C 
HETATM   37  O   UNK N   1      20.781  21.050   3.227  0.00  0.00    -0.259 OA
BRANCH  36  38
HETATM   38  O   UNK N   1      20.533  19.128   2.150  0.00  0.00    -0.323 OA
HETATM   39  C   UNK N   1      19.424  18.428   2.571  0.00  0.00     0.213 C 
ENDBRANCH  36  38
ENDBRANCH  33  36
ENDBRANCH  27  30
ENDBRANCH   5  26
TORSDOF 7
ENDMDL
MODEL 2
REMARK VINA RESULT:      -8.5      2.887     10.360
REMARK  7 active torsions:
REMARK  status: ('A' for Active; 'I' for Inactive)
REMARK       I    between atoms: N_2  and  C_3 
REMARK    1  A    between atoms: C_8  and  O_36 
REMARK    2  A    between atoms: C_9  and  O_34 
REMARK    3  A    between atoms: C_12  and  C_15 
REMARK    4  A    between atoms: C_19  and  N_21 
REMARK       I    between atoms: N_21  and  C_22 
REMARK    5  A    between atoms: C_22  and  C_24 
REMARK    6  A    between atoms: C_27  and  C_30 
REMARK    7  A    between atoms: C_30  and  O_32 
ROOT
HETATM    1  C   UNK N   1      25.936  17.174   3.759  0.00  0.00    -0.006 A 
HETATM    2  C   UNK N   1      25.635  18.501   3.398  0.00  0.00     0.014 A 
HETATM    3  C   UNK N   1      26.515  19.545   3.683  0.00  0.00     0.003 A 
HETATM    4  C   UNK N   1      27.719  19.273   4.326  0.00  0.00     0.029 A 
HETATM    5  C   UNK N   1      28.036  17.955   4.676  0.00  0.00     0.035 A 
HETATM    6  C   UNK N   1      27.138  16.923   4.412  0.00  0.00     0.043 A 
ENDROOT
BRANCH   1   7
HETATM    7  C   UNK N   1      25.015  16.038   3.459  0.00  0.00     0.072 A 
HETATM    8  C   UNK N   1      23.626  16.134   3.653  0.00  0.00     0.022 A 
HETATM    9  C   UNK N   1      23.029  17.311   4.101  0.00  0.00     0.055 A 
HETATM   10  C   UNK N   1      22.817  15.030   3.339  0.00  0.00     0.064 A 
HETATM   11  C   UNK N   1      21.650  17.421   4.251  0.00  0.00     0.102 A 
HETATM   12  C   UNK N   1      20.837  16.319   3.952  0.00  0.00     0.103 A 
HETATM   13  C   UNK N   1      21.429  15.120   3.495  0.00  0.00     0.070 A 
HETATM   14  N   UNK N   1      23.384  13.891   2.865  0.00  0.00    -0.191 N 
HETATM   15  C   UNK N   1      24.726  13.808   2.669  0.00  0.00     0.678 A 
ATOM     16  HN  UNK N   1      22.792  13.088   2.651  1.00  0.00     0.184 HD
HETATM   17  N   UNK N   1      25.281  12.606   2.166  0.00  0.00    -0.230 N 
HETATM   18  N   UNK N   1      25.526  14.876   2.955  0.00  0.00    -0.190 N 
HETATM   19  C   UNK N   1      26.695  12.454   1.943  0.00  0.00     0.165 C 
HETATM   20  H   UNK N   1      24.681  11.851   1.962  0.00  0.00     0.177 HD
ATOM     21  HN  UNK N   1      26.530  14.804   2.787  1.00  0.00     0.184 HD
BRANCH  11  22
HETATM   22  O   UNK N   1      21.092  18.583   4.671  0.00  0.00    -0.353 OA
HETATM   23  C   UNK N   1      20.865  19.653   3.830  0.00  0.00     0.210 C 
ENDBRANCH  11  22
BRANCH  12  24
HETATM   24  O   UNK N   1      19.497  16.435   4.099  0.00  0.00    -0.353 OA
HETATM   25  C   UNK N   1      18.801  15.878   5.145  0.00  0.00     0.210 C 
ENDBRANCH  12  24
ENDBRANCH   1   7
BRANCH   5  26
HETATM   26  N   UNK N   1      29.189  17.626   5.410  0.00  0.00    -0.323 N 
HETATM   27  C   UNK N   1      30.366  17.140   4.948  0.00  0.00     0.256 C 
HETATM   28  O   UNK N   1      30.508  16.803   3.780  0.00  0.00    -0.267 OA
HETATM   29  H   UNK N   1      29.134  17.764   6.383  0.00  0.00     0.169 HD
BRANCH  27  30
HETATM   30  C   UNK N   1      31.507  17.215   5.863  0.00  0.00     0.032 A 
HETATM   31  C   UNK N   1      32.823  17.346   5.404  0.00  0.00     0.018 A 
HETATM   32  C   UNK N   1      33.847  17.621   6.320  0.00  0.00     0.018 A 
HETATM   33  C   UNK N   1      33.560  17.778   7.690  0.00  0.00     0.039 A 
HETATM   34  C   UNK N   1      32.248  17.601   8.129  0.00  0.00     0.018 A 
HETATM   35  C   UNK N   1      31.236  17.329   7.228  0.00  0.00     0.018 A 
BRANCH  33  36
HETATM   36  C   UNK N   1      34.641  18.161   8.643  0.00  0.00     0.292 C 
HETATM   37  O   UNK N   1      35.298  19.161   8.402  0.00  0.00    -0.259 OA
BRANCH  36  38
HETATM   38  O   UNK N   1      34.919  17.473   9.788  0.00  0.00    -0.323 OA
HETATM   39  C   UNK N   1      35.212  16.130   9.881  0.00  0.00     0.213 C 
ENDBRANCH  36  38
ENDBRANCH  33  36
ENDBRANCH  27  30
ENDBRANCH   5  26
TORSDOF 7
ENDMDL
MODEL 3
REMARK VINA RESULT:      -8.5      3.566      9.659
REMARK  7 active torsions:
REMARK  status: ('A' for Active; 'I' for Inactive)
REMARK       I    between atoms: N_2  and  C_3 
REMARK    1  A    between atoms: C_8  and  O_36 
REMARK    2  A    between atoms: C_9  and  O_34 
REMARK    3  A    between atoms: C_12  and  C_15 
REMARK    4  A    between atoms: C_19  and  N_21 
REMARK       I    between atoms: N_21  and  C_22 
REMARK    5  A    between atoms: C_22  and  C_24 
REMARK    6  A    between atoms: C_27  and  C_30 
REMARK    7  A    between atoms: C_30  and  O_32 
ROOT
HETATM    1  C   UNK N   1      25.658  18.073   4.357  0.00  0.00    -0.006 A 
HETATM    2  C   UNK N   1      25.597  19.323   3.711  0.00  0.00     0.014 A 
HETATM    3  C   UNK N   1      26.689  20.191   3.713  0.00  0.00     0.003 A 
HETATM    4  C   UNK N   1      27.865  19.815   4.353  0.00  0.00     0.029 A 
HETATM    5  C   UNK N   1      27.942  18.568   4.986  0.00  0.00     0.035 A 
HETATM    6  C   UNK N   1      26.837  17.720   5.003  0.00  0.00     0.043 A 
ENDROOT
BRANCH   1   7
HETATM    7  C   UNK N   1      24.506  17.123   4.364  0.00  0.00     0.072 A 
HETATM    8  C   UNK N   1      24.542  15.903   3.667  0.00  0.00     0.022 A 
HETATM    9  C   UNK N   1      25.674  15.496   2.961  0.00  0.00     0.055 A 
HETATM   10  C   UNK N   1      23.428  15.051   3.726  0.00  0.00     0.064 A 
HETATM   11  C   UNK N   1      25.727  14.269   2.307  0.00  0.00     0.102 A 
HETATM   12  C   UNK N   1      24.613  13.419   2.351  0.00  0.00     0.103 A 
HETATM   13  C   UNK N   1      23.460  13.818   3.065  0.00  0.00     0.070 A 
HETATM   14  N   UNK N   1      22.335  15.419   4.443  0.00  0.00    -0.191 N 
HETATM   15  C   UNK N   1      22.310  16.595   5.124  0.00  0.00     0.678 A 
ATOM     16  HN  UNK N   1      21.523  14.803   4.472  1.00  0.00     0.184 HD
HETATM   17  N   UNK N   1      21.155  16.942   5.867  0.00  0.00    -0.230 N 
HETATM   18  N   UNK N   1      23.390  17.429   5.089  0.00  0.00    -0.190 N 
HETATM   19  C   UNK N   1      21.065  18.176   6.603  0.00  0.00     0.165 C 
HETATM   20  H   UNK N   1      20.390  16.321   5.880  0.00  0.00     0.177 HD
ATOM     21  HN  UNK N   1      23.362  18.300   5.619  1.00  0.00     0.184 HD
BRANCH  11  22
HETATM   22  O   UNK N   1      26.846  13.889   1.644  0.00  0.00    -0.353 OA
HETATM   23  C   UNK N   1      28.099  14.388   1.937  0.00  0.00     0.210 C 
ENDBRANCH  11  22
BRANCH  12  24
HETATM   24  O   UNK N   1      24.674  12.227   1.715  0.00  0.00    -0.353 OA
HETATM   25  C   UNK N   1      24.246  12.038   0.422  0.00  0.00     0.210 C 
ENDBRANCH  12  24
ENDBRANCH   1   7
BRANCH   5  26
HETATM   26  N   UNK N   1      29.065  18.168   5.731  0.00  0.00    -0.323 N 
HETATM   27  C   UNK N   1      30.055  17.319   5.364  0.00  0.00     0.256 C 
HETATM   28  O   UNK N   1      29.999  16.678   4.323  0.00  0.00    -0.267 OA
HETATM   29  H   UNK N   1      29.142  18.552   6.634  0.00  0.00     0.169 HD
BRANCH  27  30
HETATM   30  C   UNK N   1      31.273  17.345   6.176  0.00  0.00     0.032 A 
HETATM   31  C   UNK N   1      32.550  17.358   5.604  0.00  0.00     0.018 A 
HETATM   32  C   UNK N   1      33.666  17.594   6.418  0.00  0.00     0.018 A 
HETATM   33  C   UNK N   1      33.510  17.829   7.798  0.00  0.00     0.039 A 
HETATM   34  C   UNK N   1      32.232  17.770   8.353  0.00  0.00     0.018 A 
HETATM   35  C   UNK N   1      31.129  17.537   7.553  0.00  0.00     0.018 A 
BRANCH  33  36
HETATM   36  C   UNK N   1      34.694  18.169   8.638  0.00  0.00     0.292 C 
HETATM   37  O   UNK N   1      35.287  19.211   8.410  0.00  0.00    -0.259 OA
BRANCH  36  38
HETATM   38  O   UNK N   1      35.137  17.395   9.672  0.00  0.00    -0.323 OA
HETATM   39  C   UNK N   1      35.145  16.018   9.712  0.00  0.00     0.213 C 
ENDBRANCH  36  38
ENDBRANCH  33  36
ENDBRANCH  27  30
ENDBRANCH   5  26
TORSDOF 7
ENDMDL
MODEL 4
REMARK VINA RESULT:      -8.4      3.831     10.287
REMARK  7 active torsions:
REMARK  status: ('A' for Active; 'I' for Inactive)
REMARK       I    between atoms: N_2  and  C_3 
REMARK    1  A    between atoms: C_8  and  O_36 
REMARK    2  A    between atoms: C_9  and  O_34 
REMARK    3  A    between atoms: C_12  and  C_15 
REMARK    4  A    between atoms: C_19  and  N_21 
REMARK       I    between atoms: N_21  and  C_22 
REMARK    5  A    between atoms: C_22  and  C_24 
REMARK    6  A    between atoms: C_27  and  C_30 
REMARK    7  A    between atoms: C_30  and  O_32 
ROOT
HETATM    1  C   UNK N   1      26.278  15.004   5.028  0.00  0.00    -0.006 A 
HETATM    2  C   UNK N   1      26.287  13.808   4.285  0.00  0.00     0.014 A 
HETATM    3  C   UNK N   1      27.476  13.119   4.042  0.00  0.00     0.003 A 
HETATM    4  C   UNK N   1      28.674  13.613   4.549  0.00  0.00     0.029 A 
HETATM    5  C   UNK N   1      28.674  14.794   5.302  0.00  0.00     0.035 A 
HETATM    6  C   UNK N   1      27.485  15.489   5.516  0.00  0.00     0.043 A 
ENDROOT
BRANCH   1   7
HETATM    7  C   UNK N   1      25.019  15.756   5.309  0.00  0.00     0.072 A 
HETATM    8  C   UNK N   1      23.990  15.218   6.102  0.00  0.00     0.022 A 
HETATM    9  C   UNK N   1      24.107  13.964   6.700  0.00  0.00     0.055 A 
HETATM   10  C   UNK N   1      22.838  15.986   6.335  0.00  0.00     0.064 A 
HETATM   11  C   UNK N   1      23.107  13.449   7.520  0.00  0.00     0.102 A 
HETATM   12  C   UNK N   1      21.949  14.204   7.747  0.00  0.00     0.103 A 
HETATM   13  C   UNK N   1      21.818  15.478   7.148  0.00  0.00     0.070 A 
HETATM   14  N   UNK N   1      22.731  17.224   5.789  0.00  0.00    -0.191 N 
HETATM   15  C   UNK N   1      23.733  17.744   5.033  0.00  0.00     0.678 A 
ATOM     16  HN  UNK N   1      21.885  17.772   5.951  1.00  0.00     0.184 HD
HETATM   17  N   UNK N   1      23.588  19.043   4.486  0.00  0.00    -0.230 N 
HETATM   18  N   UNK N   1      24.866  17.018   4.808  0.00  0.00    -0.190 N 
HETATM   19  C   UNK N   1      24.612  19.645   3.673  0.00  0.00     0.165 C 
HETATM   20  H   UNK N   1      22.762  19.549   4.668  0.00  0.00     0.177 HD
ATOM     21  HN  UNK N   1      25.617  17.428   4.252  1.00  0.00     0.184 HD
BRANCH  11  22
HETATM   22  O   UNK N   1      23.253  12.235   8.105  0.00  0.00    -0.353 OA
HETATM   23  C   UNK N   1      24.042  12.028   9.219  0.00  0.00     0.210 C 
ENDBRANCH  11  22
BRANCH  12  24
HETATM   24  O   UNK N   1      20.983  13.697   8.548  0.00  0.00    -0.353 OA
HETATM   25  C   UNK N   1      20.867  14.010   9.881  0.00  0.00     0.210 C 
ENDBRANCH  12  24
ENDBRANCH   1   7
BRANCH   5  26
HETATM   26  N   UNK N   1      29.858  15.396   5.761  0.00  0.00    -0.323 N 
HETATM   27  C   UNK N   1      30.512  16.461   5.241  0.00  0.00     0.256 C 
HETATM   28  O   UNK N   1      30.180  16.963   4.175  0.00  0.00    -0.267 OA
HETATM   29  H   UNK N   1      30.264  14.991   6.561  0.00  0.00     0.169 HD
BRANCH  27  30
HETATM   30  C   UNK N   1      31.513  17.096   6.101  0.00  0.00     0.032 A 
HETATM   31  C   UNK N   1      31.256  17.403   7.442  0.00  0.00     0.018 A 
HETATM   32  C   UNK N   1      32.310  17.814   8.268  0.00  0.00     0.018 A 
HETATM   33  C   UNK N   1      33.622  17.908   7.763  0.00  0.00     0.039 A 
HETATM   34  C   UNK N   1      33.847  17.638   6.414  0.00  0.00     0.018 A 
HETATM   35  C   UNK N   1      32.809  17.232   5.596  0.00  0.00     0.018 A 
BRANCH  33  36
HETATM   36  C   UNK N   1      34.751  18.258   8.672  0.00  0.00     0.292 C 
HETATM   37  O   UNK N   1      35.344  19.308   8.484  0.00  0.00    -0.259 OA
BRANCH  36  38
HETATM   38  O   UNK N   1      35.144  17.482   9.724  0.00  0.00    -0.323 OA
HETATM   39  C   UNK N   1      35.276  16.111   9.721  0.00  0.00     0.213 C 
ENDBRANCH  36  38
ENDBRANCH  33  36
ENDBRANCH  27  30
ENDBRANCH   5  26
TORSDOF 7
ENDMDL
MODEL 5
REMARK VINA RESULT:      -8.4      3.009     10.399
REMARK  7 active torsions:
REMARK  status: ('A' for Active; 'I' for Inactive)
REMARK       I    between atoms: N_2  and  C_3 
REMARK    1  A    between atoms: C_8  and  O_36 
REMARK    2  A    between atoms: C_9  and  O_34 
REMARK    3  A    between atoms: C_12  and  C_15 
REMARK    4  A    between atoms: C_19  and  N_21 
REMARK       I    between atoms: N_21  and  C_22 
REMARK    5  A    between atoms: C_22  and  C_24 
REMARK    6  A    between atoms: C_27  and  C_30 
REMARK    7  A    between atoms: C_30  and  O_32 
ROOT
HETATM    1  C   UNK N   1      25.654  15.839   4.229  0.00  0.00    -0.006 A 
HETATM    2  C   UNK N   1      25.913  15.567   2.871  0.00  0.00     0.014 A 
HETATM    3  C   UNK N   1      27.210  15.615   2.360  0.00  0.00     0.003 A 
HETATM    4  C   UNK N   1      28.271  15.926   3.204  0.00  0.00     0.029 A 
HETATM    5  C   UNK N   1      28.027  16.183   4.559  0.00  0.00     0.035 A 
HETATM    6  C   UNK N   1      26.725  16.159   5.054  0.00  0.00     0.043 A 
ENDROOT
BRANCH   1   7
HETATM    7  C   UNK N   1      24.277  15.787   4.803  0.00  0.00     0.072 A 
HETATM    8  C   UNK N   1      23.383  16.867   4.695  0.00  0.00     0.022 A 
HETATM    9  C   UNK N   1      23.724  18.034   4.012  0.00  0.00     0.055 A 
HETATM   10  C   UNK N   1      22.099  16.746   5.248  0.00  0.00     0.064 A 
HETATM   11  C   UNK N   1      22.825  19.087   3.867  0.00  0.00     0.102 A 
HETATM   12  C   UNK N   1      21.546  18.978   4.428  0.00  0.00     0.103 A 
HETATM   13  C   UNK N   1      21.186  17.800   5.122  0.00  0.00     0.070 A 
HETATM   14  N   UNK N   1      21.743  15.600   5.882  0.00  0.00    -0.191 N 
HETATM   15  C   UNK N   1      22.607  14.554   5.973  0.00  0.00     0.678 A 
ATOM     16  HN  UNK N   1      20.812  15.522   6.294  1.00  0.00     0.184 HD
HETATM   17  N   UNK N   1      22.197  13.371   6.636  0.00  0.00    -0.230 N 
HETATM   18  N   UNK N   1      23.854  14.649   5.429  0.00  0.00    -0.190 N 
HETATM   19  C   UNK N   1      23.068  12.233   6.770  0.00  0.00     0.165 C 
HETATM   20  H   UNK N   1      21.289  13.326   7.016  0.00  0.00     0.177 HD
ATOM     21  HN  UNK N   1      24.486  13.850   5.491  1.00  0.00     0.184 HD
BRANCH  11  22
HETATM   22  O   UNK N   1      23.175  20.203   3.182  0.00  0.00    -0.353 OA
HETATM   23  C   UNK N   1      24.486  20.537   2.912  0.00  0.00     0.210 C 
ENDBRANCH  11  22
BRANCH  12  24
HETATM   24  O   UNK N   1      20.677  20.005   4.281  0.00  0.00    -0.353 OA
HETATM   25  C   UNK N   1      19.911  20.190   3.155  0.00  0.00     0.210 C 
ENDBRANCH  12  24
ENDBRANCH   1   7
BRANCH   5  26
HETATM   26  N   UNK N   1      29.040  16.594   5.443  0.00  0.00    -0.323 N 
HETATM   27  C   UNK N   1      30.124  15.896   5.858  0.00  0.00     0.256 C 
HETATM   28  O   UNK N   1      30.273  14.714   5.579  0.00  0.00    -0.267 OA
HETATM   29  H   UNK N   1      28.949  17.503   5.808  0.00  0.00     0.169 HD
BRANCH  27  30
HETATM   30  C   UNK N   1      31.194  16.669   6.493  0.00  0.00     0.032 A 
HETATM   31  C   UNK N   1      31.037  17.266   7.749  0.00  0.00     0.018 A 
HETATM   32  C   UNK N   1      32.153  17.811   8.396  0.00  0.00     0.018 A 
HETATM   33  C   UNK N   1      33.428  17.752   7.799  0.00  0.00     0.039 A 
HETATM   34  C   UNK N   1      33.553  17.190   6.529  0.00  0.00     0.018 A 
HETATM   35  C   UNK N   1      32.453  16.651   5.888  0.00  0.00     0.018 A 
BRANCH  33  36
HETATM   36  C   UNK N   1      34.624  18.252   8.535  0.00  0.00     0.292 C 
HETATM   37  O   UNK N   1      34.927  19.429   8.419  0.00  0.00    -0.259 OA
BRANCH  36  38
HETATM   38  O   UNK N   1      35.386  17.474   9.359  0.00  0.00    -0.323 OA
HETATM   39  C   UNK N   1      34.919  16.596  10.312  0.00  0.00     0.213 C 
ENDBRANCH  36  38
ENDBRANCH  33  36
ENDBRANCH  27  30
ENDBRANCH   5  26
TORSDOF 7
ENDMDL
MODEL 6
REMARK VINA RESULT:      -8.4      3.735     10.434
REMARK  7 active torsions:
REMARK  status: ('A' for Active; 'I' for Inactive)
REMARK       I    between atoms: N_2  and  C_3 
REMARK    1  A    between atoms: C_8  and  O_36 
REMARK    2  A    between atoms: C_9  and  O_34 
REMARK    3  A    between atoms: C_12  and  C_15 
REMARK    4  A    between atoms: C_19  and  N_21 
REMARK       I    between atoms: N_21  and  C_22 
REMARK    5  A    between atoms: C_22  and  C_24 
REMARK    6  A    between atoms: C_27  and  C_30 
REMARK    7  A    between atoms: C_30  and  O_32 
ROOT
HETATM    1  C   UNK N   1      24.967  16.815   4.036  0.00  0.00    -0.006 A 
HETATM    2  C   UNK N   1      25.201  16.111   2.839  0.00  0.00     0.014 A 
HETATM    3  C   UNK N   1      26.497  15.808   2.421  0.00  0.00     0.003 A 
HETATM    4  C   UNK N   1      27.580  16.196   3.203  0.00  0.00     0.029 A 
HETATM    5  C   UNK N   1      27.358  16.884   4.403  0.00  0.00     0.035 A 
HETATM    6  C   UNK N   1      26.061  17.206   4.798  0.00  0.00     0.043 A 
ENDROOT
BRANCH   1   7
HETATM    7  C   UNK N   1      23.590  17.146   4.509  0.00  0.00     0.072 A 
HETATM    8  C   UNK N   1      22.960  16.420   5.535  0.00  0.00     0.022 A 
HETATM    9  C   UNK N   1      23.605  15.374   6.193  0.00  0.00     0.055 A 
HETATM   10  C   UNK N   1      21.668  16.792   5.938  0.00  0.00     0.064 A 
HETATM   11  C   UNK N   1      22.999  14.683   7.239  0.00  0.00     0.102 A 
HETATM   12  C   UNK N   1      21.704  15.042   7.638  0.00  0.00     0.103 A 
HETATM   13  C   UNK N   1      21.040  16.101   6.981  0.00  0.00     0.070 A 
HETATM   14  N   UNK N   1      21.046  17.835   5.331  0.00  0.00    -0.191 N 
HETATM   15  C   UNK N   1      21.664  18.540   4.346  0.00  0.00     0.678 A 
ATOM     16  HN  UNK N   1      20.102  18.093   5.619  1.00  0.00     0.184 HD
HETATM   17  N   UNK N   1      20.986  19.626   3.740  0.00  0.00    -0.230 N 
HETATM   18  N   UNK N   1      22.925  18.201   3.951  0.00  0.00    -0.190 N 
HETATM   19  C   UNK N   1      21.585  20.406   2.689  0.00  0.00     0.165 C 
HETATM   20  H   UNK N   1      20.077  19.854   4.047  0.00  0.00     0.177 HD
ATOM     21  HN  UNK N   1      23.382  18.750   3.223  1.00  0.00     0.184 HD
BRANCH  11  22
HETATM   22  O   UNK N   1      23.655  13.682   7.876  0.00  0.00    -0.353 OA
HETATM   23  C   UNK N   1      24.347  12.694   7.206  0.00  0.00     0.210 C 
ENDBRANCH  11  22
BRANCH  12  24
HETATM   24  O   UNK N   1      21.124  14.367   8.657  0.00  0.00    -0.353 OA
HETATM   25  C   UNK N   1      20.017  14.824   9.332  0.00  0.00     0.210 C 
ENDBRANCH  12  24
ENDBRANCH   1   7
BRANCH   5  26
HETATM   26  N   UNK N   1      28.409  17.386   5.190  0.00  0.00    -0.323 N 
HETATM   27  C   UNK N   1      28.739  17.050   6.459  0.00  0.00     0.256 C 
HETATM   28  O   UNK N   1      28.033  16.314   7.135  0.00  0.00    -0.267 OA
HETATM   29  H   UNK N   1      28.976  18.070   4.765  0.00  0.00     0.169 HD
BRANCH  27  30
HETATM   30  C   UNK N   1      30.070  17.457   6.917  0.00  0.00     0.032 A 
HETATM   31  C   UNK N   1      30.305  17.903   8.223  0.00  0.00     0.018 A 
HETATM   32  C   UNK N   1      31.623  18.078   8.664  0.00  0.00     0.018 A 
HETATM   33  C   UNK N   1      32.708  17.798   7.809  0.00  0.00     0.039 A 
HETATM   34  C   UNK N   1      32.449  17.395   6.500  0.00  0.00     0.018 A 
HETATM   35  C   UNK N   1      31.149  17.221   6.062  0.00  0.00     0.018 A 
BRANCH  33  36
HETATM   36  C   UNK N   1      34.106  17.899   8.316  0.00  0.00     0.292 C 
HETATM   37  O   UNK N   1      34.931  18.481   7.630  0.00  0.00    -0.259 OA
BRANCH  36  38
HETATM   38  O   UNK N   1      34.512  17.403   9.521  0.00  0.00    -0.323 OA
HETATM   39  C   UNK N   1      35.007  16.139   9.756  0.00  0.00     0.213 C 
ENDBRANCH  36  38
ENDBRANCH  33  36
ENDBRANCH  27  30
ENDBRANCH   5  26
TORSDOF 7
ENDMDL
MODEL 7
REMARK VINA RESULT:      -8.3      3.381      4.385
REMARK  7 active torsions:
REMARK  status: ('A' for Active; 'I' for Inactive)
REMARK       I    between atoms: N_2  and  C_3 
REMARK    1  A    between atoms: C_8  and  O_36 
REMARK    2  A    between atoms: C_9  and  O_34 
REMARK    3  A    between atoms: C_12  and  C_15 
REMARK    4  A    between atoms: C_19  and  N_21 
REMARK       I    between atoms: N_21  and  C_22 
REMARK    5  A    between atoms: C_22  and  C_24 
REMARK    6  A    between atoms: C_27  and  C_30 
REMARK    7  A    between atoms: C_30  and  O_32 
ROOT
HETATM    1  C   UNK N   1      28.017  17.884   4.724  0.00  0.00    -0.006 A 
HETATM    2  C   UNK N   1      28.362  19.150   4.211  0.00  0.00     0.014 A 
HETATM    3  C   UNK N   1      27.430  20.187   4.161  0.00  0.00     0.003 A 
HETATM    4  C   UNK N   1      26.139  19.975   4.635  0.00  0.00     0.029 A 
HETATM    5  C   UNK N   1      25.789  18.725   5.161  0.00  0.00     0.035 A 
HETATM    6  C   UNK N   1      26.720  17.688   5.182  0.00  0.00     0.043 A 
ENDROOT
BRANCH   1   7
HETATM    7  C   UNK N   1      28.997  16.761   4.796  0.00  0.00     0.072 A 
HETATM    8  C   UNK N   1      29.907  16.631   5.860  0.00  0.00     0.022 A 
HETATM    9  C   UNK N   1      29.917  17.528   6.927  0.00  0.00     0.055 A 
HETATM   10  C   UNK N   1      30.793  15.543   5.869  0.00  0.00     0.064 A 
HETATM   11  C   UNK N   1      30.787  17.376   8.003  0.00  0.00     0.102 A 
HETATM   12  C   UNK N   1      31.684  16.299   8.012  0.00  0.00     0.103 A 
HETATM   13  C   UNK N   1      31.683  15.382   6.937  0.00  0.00     0.070 A 
HETATM   14  N   UNK N   1      30.766  14.642   4.854  0.00  0.00    -0.191 N 
HETATM   15  C   UNK N   1      29.877  14.765   3.834  0.00  0.00     0.678 A 
ATOM     16  HN  UNK N   1      31.422  13.860   4.860  1.00  0.00     0.184 HD
HETATM   17  N   UNK N   1      29.874  13.801   2.796  0.00  0.00    -0.230 N 
HETATM   18  N   UNK N   1      28.999  15.809   3.815  0.00  0.00    -0.190 N 
HETATM   19  C   UNK N   1      28.961  13.881   1.686  0.00  0.00     0.165 C 
HETATM   20  H   UNK N   1      30.515  13.054   2.835  0.00  0.00     0.177 HD
ATOM     21  HN  UNK N   1      28.326  15.879   3.052  1.00  0.00     0.184 HD
BRANCH  11  22
HETATM   22  O   UNK N   1      30.764  18.252   9.037  0.00  0.00    -0.353 OA
HETATM   23  C   UNK N   1      29.594  18.688   9.625  0.00  0.00     0.210 C 
ENDBRANCH  11  22
BRANCH  12  24
HETATM   24  O   UNK N   1      32.525  16.158   9.063  0.00  0.00    -0.353 OA
HETATM   25  C   UNK N   1      33.884  16.344   8.972  0.00  0.00     0.210 C 
ENDBRANCH  12  24
ENDBRANCH   1   7
BRANCH   5  26
HETATM   26  N   UNK N   1      24.480  18.417   5.568  0.00  0.00    -0.323 N 
HETATM   27  C   UNK N   1      23.579  17.613   4.955  0.00  0.00     0.256 C 
HETATM   28  O   UNK N   1      23.790  17.139   3.847  0.00  0.00    -0.267 OA
HETATM   29  H   UNK N   1      24.178  18.841   6.404  0.00  0.00     0.169 HD
BRANCH  27  30
HETATM   30  C   UNK N   1      22.430  17.188   5.757  0.00  0.00     0.032 A 
HETATM   31  C   UNK N   1      22.290  15.877   6.224  0.00  0.00     0.018 A 
HETATM   32  C   UNK N   1      21.286  15.580   7.156  0.00  0.00     0.018 A 
HETATM   33  C   UNK N   1      20.429  16.592   7.631  0.00  0.00     0.039 A 
HETATM   34  C   UNK N   1      20.560  17.883   7.121  0.00  0.00     0.018 A 
HETATM   35  C   UNK N   1      21.550  18.178   6.202  0.00  0.00     0.018 A 
BRANCH  33  36
HETATM   36  C   UNK N   1      19.425  16.287   8.690  0.00  0.00     0.292 C 
HETATM   37  O   UNK N   1      19.416  15.167   9.175  0.00  0.00    -0.259 OA
BRANCH  36  38
HETATM   38  O   UNK N   1      18.530  17.198   9.170  0.00  0.00    -0.323 OA
HETATM   39  C   UNK N   1      17.168  17.190   8.963  0.00  0.00     0.213 C 
ENDBRANCH  36  38
ENDBRANCH  33  36
ENDBRANCH  27  30
ENDBRANCH   5  26
TORSDOF 7
ENDMDL
MODEL 8
REMARK VINA RESULT:      -8.2      2.490      3.599
REMARK  7 active torsions:
REMARK  status: ('A' for Active; 'I' for Inactive)
REMARK       I    between atoms: N_2  and  C_3 
REMARK    1  A    between atoms: C_8  and  O_36 
REMARK    2  A    between atoms: C_9  and  O_34 
REMARK    3  A    between atoms: C_12  and  C_15 
REMARK    4  A    between atoms: C_19  and  N_21 
REMARK       I    between atoms: N_21  and  C_22 
REMARK    5  A    between atoms: C_22  and  C_24 
REMARK    6  A    between atoms: C_27  and  C_30 
REMARK    7  A    between atoms: C_30  and  O_32 
ROOT
HETATM    1  C   UNK N   1      30.836  17.365   8.172  0.00  0.00    -0.006 A 
HETATM    2  C   UNK N   1      30.475  17.646   9.504  0.00  0.00     0.014 A 
HETATM    3  C   UNK N   1      29.213  18.149   9.820  0.00  0.00     0.003 A 
HETATM    4  C   UNK N   1      28.286  18.368   8.805  0.00  0.00     0.029 A 
HETATM    5  C   UNK N   1      28.628  18.078   7.479  0.00  0.00     0.035 A 
HETATM    6  C   UNK N   1      29.901  17.602   7.171  0.00  0.00     0.043 A 
ENDROOT
BRANCH   1   7
HETATM    7  C   UNK N   1      32.177  16.820   7.809  0.00  0.00     0.072 A 
HETATM    8  C   UNK N   1      32.511  16.484   6.485  0.00  0.00     0.022 A 
HETATM    9  C   UNK N   1      31.617  16.678   5.433  0.00  0.00     0.055 A 
HETATM   10  C   UNK N   1      33.795  15.987   6.212  0.00  0.00     0.064 A 
HETATM   11  C   UNK N   1      31.962  16.387   4.116  0.00  0.00     0.102 A 
HETATM   12  C   UNK N   1      33.238  15.878   3.838  0.00  0.00     0.103 A 
HETATM   13  C   UNK N   1      34.155  15.678   4.895  0.00  0.00     0.070 A 
HETATM   14  N   UNK N   1      34.687  15.831   7.223  0.00  0.00    -0.191 N 
HETATM   15  C   UNK N   1      34.362  16.168   8.500  0.00  0.00     0.678 A 
ATOM     16  HN  UNK N   1      35.615  15.456   7.022  1.00  0.00     0.184 HD
HETATM   17  N   UNK N   1      35.322  15.997   9.528  0.00  0.00    -0.230 N 
HETATM   18  N   UNK N   1      33.124  16.665   8.781  0.00  0.00    -0.190 N 
HETATM   19  C   UNK N   1      35.035  16.330  10.899  0.00  0.00     0.165 C 
HETATM   20  H   UNK N   1      36.211  15.640   9.298  0.00  0.00     0.177 HD
ATOM     21  HN  UNK N   1      32.900  16.930   9.741  1.00  0.00     0.184 HD
BRANCH  11  22
HETATM   22  O   UNK N   1      31.082  16.602   3.109  0.00  0.00    -0.353 OA
HETATM   23  C   UNK N   1      29.744  16.274   3.198  0.00  0.00     0.210 C 
ENDBRANCH  11  22
BRANCH  12  24
HETATM   24  O   UNK N   1      33.567  15.600   2.555  0.00  0.00    -0.353 OA
HETATM   25  C   UNK N   1      34.312  14.505   2.187  0.00  0.00     0.210 C 
ENDBRANCH  12  24
ENDBRANCH   1   7
BRANCH   5  26
HETATM   26  N   UNK N   1      27.775  18.364   6.399  0.00  0.00    -0.323 N 
HETATM   27  C   UNK N   1      27.058  17.497   5.645  0.00  0.00     0.256 C 
HETATM   28  O   UNK N   1      27.188  16.286   5.760  0.00  0.00    -0.267 OA
HETATM   29  H   UNK N   1      27.688  19.315   6.160  0.00  0.00     0.169 HD
BRANCH  27  30
HETATM   30  C   UNK N   1      25.992  18.074   4.823  0.00  0.00     0.032 A 
HETATM   31  C   UNK N   1      24.722  17.494   4.736  0.00  0.00     0.018 A 
HETATM   32  C   UNK N   1      23.685  18.197   4.107  0.00  0.00     0.018 A 
HETATM   33  C   UNK N   1      23.911  19.482   3.576  0.00  0.00     0.039 A 
HETATM   34  C   UNK N   1      25.195  20.022   3.637  0.00  0.00     0.018 A 
HETATM   35  C   UNK N   1      26.219  19.331   4.257  0.00  0.00     0.018 A 
BRANCH  33  36
HETATM   36  C   UNK N   1      22.781  20.259   2.991  0.00  0.00     0.292 C 
HETATM   37  O   UNK N   1      22.950  21.446   2.761  0.00  0.00    -0.259 OA
BRANCH  36  38
HETATM   38  O   UNK N   1      21.572  19.712   2.669  0.00  0.00    -0.323 OA
HETATM   39  C   UNK N   1      20.347  20.093   3.168  0.00  0.00     0.213 C 
ENDBRANCH  36  38
ENDBRANCH  33  36
ENDBRANCH  27  30
ENDBRANCH   5  26
TORSDOF 7
ENDMDL
MODEL 9
REMARK VINA RESULT:      -8.2      4.032     10.171
REMARK  7 active torsions:
REMARK  status: ('A' for Active; 'I' for Inactive)
REMARK       I    between atoms: N_2  and  C_3 
REMARK    1  A    between atoms: C_8  and  O_36 
REMARK    2  A    between atoms: C_9  and  O_34 
REMARK    3  A    between atoms: C_12  and  C_15 
REMARK    4  A    between atoms: C_19  and  N_21 
REMARK       I    between atoms: N_21  and  C_22 
REMARK    5  A    between atoms: C_22  and  C_24 
REMARK    6  A    between atoms: C_27  and  C_30 
REMARK    7  A    between atoms: C_30  and  O_32 
ROOT
HETATM    1  C   UNK N   1      25.600  15.005   5.032  0.00  0.00    -0.006 A 
HETATM    2  C   UNK N   1      25.152  15.863   4.009  0.00  0.00     0.014 A 
HETATM    3  C   UNK N   1      25.913  16.959   3.601  0.00  0.00     0.003 A 
HETATM    4  C   UNK N   1      27.143  17.206   4.205  0.00  0.00     0.029 A 
HETATM    5  C   UNK N   1      27.605  16.350   5.213  0.00  0.00     0.035 A 
HETATM    6  C   UNK N   1      26.824  15.275   5.632  0.00  0.00     0.043 A 
ENDROOT
BRANCH   1   7
HETATM    7  C   UNK N   1      24.808  13.823   5.483  0.00  0.00     0.072 A 
HETATM    8  C   UNK N   1      23.628  13.958   6.235  0.00  0.00     0.022 A 
HETATM    9  C   UNK N   1      23.113  15.210   6.569  0.00  0.00     0.055 A 
HETATM   10  C   UNK N   1      22.927  12.803   6.615  0.00  0.00     0.064 A 
HETATM   11  C   UNK N   1      21.921  15.346   7.275  0.00  0.00     0.102 A 
HETATM   12  C   UNK N   1      21.223  14.197   7.670  0.00  0.00     0.103 A 
HETATM   13  C   UNK N   1      21.733  12.922   7.336  0.00  0.00     0.070 A 
HETATM   14  N   UNK N   1      23.398  11.580   6.262  0.00  0.00    -0.191 N 
HETATM   15  C   UNK N   1      24.534  11.456   5.525  0.00  0.00     0.678 A 
ATOM     16  HN  UNK N   1      22.892  10.743   6.552  1.00  0.00     0.184 HD
HETATM   17  N   UNK N   1      24.992  10.163   5.169  0.00  0.00    -0.230 N 
HETATM   18  N   UNK N   1      25.221  12.568   5.135  0.00  0.00    -0.190 N 
HETATM   19  C   UNK N   1      26.190   9.966   4.396  0.00  0.00     0.165 C 
HETATM   20  H   UNK N   1      24.475   9.376   5.459  0.00  0.00     0.177 HD
ATOM     21  HN  UNK N   1      26.062  12.459   4.568  1.00  0.00     0.184 HD
BRANCH  11  22
HETATM   22  O   UNK N   1      21.432  16.574   7.571  0.00  0.00    -0.353 OA
HETATM   23  C   UNK N   1      21.114  17.508   6.606  0.00  0.00     0.210 C 
ENDBRANCH  11  22
BRANCH  12  24
HETATM   24  O   UNK N   1      20.064  14.338   8.354  0.00  0.00    -0.353 OA
HETATM   25  C   UNK N   1      19.980  14.247   9.723  0.00  0.00     0.210 C 
ENDBRANCH  12  24
ENDBRANCH   1   7
BRANCH   5  26
HETATM   26  N   UNK N   1      28.790  16.596   5.926  0.00  0.00    -0.323 N 
HETATM   27  C   UNK N   1      30.059  16.275   5.580  0.00  0.00     0.256 C 
HETATM   28  O   UNK N   1      30.302  15.583   4.600  0.00  0.00    -0.267 OA
HETATM   29  H   UNK N   1      28.684  17.060   6.789  0.00  0.00     0.169 HD
BRANCH  27  30
HETATM   30  C   UNK N   1      31.128  16.948   6.321  0.00  0.00     0.032 A 
HETATM   31  C   UNK N   1      30.992  17.304   7.667  0.00  0.00     0.018 A 
HETATM   32  C   UNK N   1      32.114  17.751   8.378  0.00  0.00     0.018 A 
HETATM   33  C   UNK N   1      33.373  17.834   7.751  0.00  0.00     0.039 A 
HETATM   34  C   UNK N   1      33.476  17.514   6.398  0.00  0.00     0.018 A 
HETATM   35  C   UNK N   1      32.371  17.072   5.694  0.00  0.00     0.018 A 
BRANCH  33  36
HETATM   36  C   UNK N   1      34.577  18.223   8.539  0.00  0.00     0.292 C 
HETATM   37  O   UNK N   1      35.099  19.302   8.306  0.00  0.00    -0.259 OA
BRANCH  36  38
HETATM   38  O   UNK N   1      35.115  17.454   9.530  0.00  0.00    -0.323 OA
HETATM   39  C   UNK N   1      35.108  16.078   9.587  0.00  0.00     0.213 C 
ENDBRANCH  36  38
ENDBRANCH  33  36
ENDBRANCH  27  30
ENDBRANCH   5  26
TORSDOF 7
ENDMDL
