MODEL 1
REMARK VINA RESULT:      -7.7      0.000      0.000
REMARK  13 active torsions:
REMARK  status: ('A' for Active; 'I' for Inactive)
REMARK    1  A    between atoms: C_2  and  C_4 
REMARK    2  A    between atoms: C_2  and  N_11 
REMARK    3  A    between atoms: C_4  and  C_5 
REMARK       I    between atoms: N_11  and  C_13 
REMARK    4  A    between atoms: C_13  and  C_15 
REMARK    5  A    between atoms: C_15  and  N_16 
REMARK    6  A    between atoms: N_16  and  C_17 
REMARK    7  A    between atoms: N_16  and  C_20 
REMARK    8  A    between atoms: C_17  and  C_18 
REMARK    9  A    between atoms: C_18  and  O_19 
REMARK   10  A    between atoms: C_20  and  C_21 
REMARK       I    between atoms: C_21  and  N_23 
REMARK   11  A    between atoms: N_23  and  C_25 
REMARK   12  A    between atoms: C_25  and  C_28 
REMARK   13  A    between atoms: C_28  and  C_29 
ROOT
HETATM    1  N   UNK N   1      36.124  14.314   9.895  0.00  0.00     0.108 N 
ENDROOT
BRANCH   1   2
HETATM    2  C   UNK N   1      35.611  13.133  10.604  0.00  0.00     0.375 C 
BRANCH   2   3
HETATM    3  C   UNK N   1      35.469  13.373  12.082  0.00  0.00     0.248 C 
HETATM    4  N   UNK N   1      36.228  12.647  12.969  0.00  0.00    -0.346 N 
HETATM    5  C   UNK N   1      37.041  11.559  12.452  0.00  0.00     0.153 C 
HETATM    6  O   UNK N   1      34.700  14.243  12.453  0.00  0.00    -0.271 OA
BRANCH   4   7
HETATM    7  C   UNK N   1      36.285  12.881  14.416  0.00  0.00     0.031 C 
HETATM    8  C   UNK N   1      37.393  11.989  14.980  0.00  0.00     0.038 C 
HETATM    9  C   UNK N   1      36.670  14.342  14.637  0.00  0.00     0.038 C 
BRANCH   7  10
HETATM   10  C   UNK N   1      34.966  12.637  15.198  0.00  0.00     0.069 C 
BRANCH  10  11
HETATM   11  C   UNK N   1      35.224  12.411  16.655  0.00  0.00    -0.056 A 
HETATM   12  C   UNK N   1      35.373  11.112  17.161  0.00  0.00     0.007 A 
HETATM   13  C   UNK N   1      35.418  10.899  18.540  0.00  0.00     0.001 A 
HETATM   14  C   UNK N   1      35.310  11.983  19.415  0.00  0.00     0.000 A 
HETATM   15  C   UNK N   1      35.181  13.281  18.911  0.00  0.00     0.001 A 
HETATM   16  C   UNK N   1      35.130  13.493  17.533  0.00  0.00     0.007 A 
ENDBRANCH  10  11
ENDBRANCH   7  10
ENDBRANCH   4   7
ENDBRANCH   2   3
ENDBRANCH   1   2
BRANCH   1  17
HETATM   17  C   UNK N   1      37.592  14.367   9.972  0.00  0.00     0.299 C 
BRANCH  17  18
HETATM   18  C   UNK N   1      38.275  13.319   9.098  0.00  0.00     0.194 C 
BRANCH  18  19
HETATM   19  O   UNK N   1      39.167  13.947   8.232  0.00  0.00    -0.399 OA
HETATM   20  H   UNK N   1      39.048  14.882   8.005  0.00  0.00     0.209 HD
ENDBRANCH  18  19
ENDBRANCH  17  18
ENDBRANCH   1  17
BRANCH   1  21
HETATM   21  C   UNK N   1      35.624  14.466   8.513  0.00  0.00     0.375 C 
BRANCH  21  22
HETATM   22  C   UNK N   1      34.722  15.644   8.451  0.00  0.00     0.248 C 
HETATM   23  O   UNK N   1      34.390  16.168   9.507  0.00  0.00    -0.271 OA
HETATM   24  N   UNK N   1      34.220  16.068   7.251  0.00  0.00    -0.346 N 
HETATM   25  C   UNK N   1      34.782  15.501   6.032  0.00  0.00     0.153 C 
BRANCH  24  26
HETATM   26  C   UNK N   1      33.111  17.011   7.098  0.00  0.00     0.031 C 
HETATM   27  C   UNK N   1      33.050  17.463   5.638  0.00  0.00     0.038 C 
HETATM   28  C   UNK N   1      33.200  18.279   7.942  0.00  0.00     0.038 C 
BRANCH  26  29
HETATM   29  C   UNK N   1      31.842  16.283   7.595  0.00  0.00     0.069 C 
BRANCH  29  30
HETATM   30  C   UNK N   1      30.676  17.168   7.834  0.00  0.00    -0.056 A 
HETATM   31  C   UNK N   1      29.789  17.441   6.792  0.00  0.00     0.007 A 
HETATM   32  C   UNK N   1      28.651  18.209   7.034  0.00  0.00     0.001 A 
HETATM   33  C   UNK N   1      28.397  18.699   8.320  0.00  0.00     0.000 A 
HETATM   34  C   UNK N   1      29.289  18.430   9.363  0.00  0.00     0.001 A 
HETATM   35  C   UNK N   1      30.428  17.660   9.121  0.00  0.00     0.007 A 
ENDBRANCH  29  30
ENDBRANCH  26  29
ENDBRANCH  24  26
ENDBRANCH  21  22
ENDBRANCH   1  21
TORSDOF 13
ENDMDL
MODEL 2
REMARK VINA RESULT:      -7.6      1.602      2.191
REMARK  13 active torsions:
REMARK  status: ('A' for Active; 'I' for Inactive)
REMARK    1  A    between atoms: C_2  and  C_4 
REMARK    2  A    between atoms: C_2  and  N_11 
REMARK    3  A    between atoms: C_4  and  C_5 
REMARK       I    between atoms: N_11  and  C_13 
REMARK    4  A    between atoms: C_13  and  C_15 
REMARK    5  A    between atoms: C_15  and  N_16 
REMARK    6  A    between atoms: N_16  and  C_17 
REMARK    7  A    between atoms: N_16  and  C_20 
REMARK    8  A    between atoms: C_17  and  C_18 
REMARK    9  A    between atoms: C_18  and  O_19 
REMARK   10  A    between atoms: C_20  and  C_21 
REMARK       I    between atoms: C_21  and  N_23 
REMARK   11  A    between atoms: N_23  and  C_25 
REMARK   12  A    between atoms: C_25  and  C_28 
REMARK   13  A    between atoms: C_28  and  C_29 
ROOT
HETATM    1  N   UNK N   1      35.050  13.985  10.303  0.00  0.00     0.108 N 
ENDROOT
BRANCH   1   2
HETATM    2  C   UNK N   1      35.544  12.726  10.876  0.00  0.00     0.375 C 
BRANCH   2   3
HETATM    3  C   UNK N   1      35.458  12.711  12.378  0.00  0.00     0.248 C 
HETATM    4  N   UNK N   1      36.339  11.946  13.106  0.00  0.00    -0.346 N 
HETATM    5  C   UNK N   1      37.234  11.053  12.388  0.00  0.00     0.153 C 
HETATM    6  O   UNK N   1      34.623  13.418  12.915  0.00  0.00    -0.271 OA
BRANCH   4   7
HETATM    7  C   UNK N   1      36.451  11.953  14.569  0.00  0.00     0.031 C 
HETATM    8  C   UNK N   1      37.375  10.799  14.963  0.00  0.00     0.038 C 
HETATM    9  C   UNK N   1      37.107  13.270  14.979  0.00  0.00     0.038 C 
BRANCH   7  10
HETATM   10  C   UNK N   1      35.116  11.848  15.354  0.00  0.00     0.069 C 
BRANCH  10  11
HETATM   11  C   UNK N   1      35.318  12.089  16.818  0.00  0.00    -0.056 A 
HETATM   12  C   UNK N   1      35.568  11.020  17.690  0.00  0.00     0.007 A 
HETATM   13  C   UNK N   1      35.562  11.226  19.070  0.00  0.00     0.001 A 
HETATM   14  C   UNK N   1      35.301  12.500  19.582  0.00  0.00     0.000 A 
HETATM   15  C   UNK N   1      35.071  13.571  18.712  0.00  0.00     0.001 A 
HETATM   16  C   UNK N   1      35.071  13.363  17.332  0.00  0.00     0.007 A 
ENDBRANCH  10  11
ENDBRANCH   7  10
ENDBRANCH   4   7
ENDBRANCH   2   3
ENDBRANCH   1   2
BRANCH   1  17
HETATM   17  C   UNK N   1      36.132  14.979  10.228  0.00  0.00     0.299 C 
BRANCH  17  18
HETATM   18  C   UNK N   1      35.882  16.202  11.106  0.00  0.00     0.194 C 
BRANCH  18  19
HETATM   19  O   UNK N   1      35.596  17.301  10.301  0.00  0.00    -0.399 OA
HETATM   20  H   UNK N   1      34.768  17.333   9.798  0.00  0.00     0.209 HD
ENDBRANCH  18  19
ENDBRANCH  17  18
ENDBRANCH   1  17
BRANCH   1  21
HETATM   21  C   UNK N   1      34.328  13.836   9.023  0.00  0.00     0.375 C 
BRANCH  21  22
HETATM   22  C   UNK N   1      33.426  15.001   8.836  0.00  0.00     0.248 C 
HETATM   23  O   UNK N   1      32.552  15.189   9.673  0.00  0.00    -0.271 OA
HETATM   24  N   UNK N   1      33.527  15.781   7.716  0.00  0.00    -0.346 N 
HETATM   25  C   UNK N   1      34.684  15.595   6.851  0.00  0.00     0.153 C 
BRANCH  24  26
HETATM   26  C   UNK N   1      32.522  16.754   7.286  0.00  0.00     0.031 C 
HETATM   27  C   UNK N   1      32.989  17.395   5.977  0.00  0.00     0.038 C 
HETATM   28  C   UNK N   1      32.252  17.899   8.258  0.00  0.00     0.038 C 
BRANCH  26  29
HETATM   29  C   UNK N   1      31.184  15.989   7.180  0.00  0.00     0.069 C 
BRANCH  29  30
HETATM   30  C   UNK N   1      30.339  16.378   6.024  0.00  0.00    -0.056 A 
HETATM   31  C   UNK N   1      29.503  17.490   6.123  0.00  0.00     0.007 A 
HETATM   32  C   UNK N   1      28.767  17.904   5.013  0.00  0.00     0.001 A 
HETATM   33  C   UNK N   1      28.872  17.207   3.804  0.00  0.00     0.000 A 
HETATM   34  C   UNK N   1      29.706  16.090   3.708  0.00  0.00     0.001 A 
HETATM   35  C   UNK N   1      30.443  15.676   4.819  0.00  0.00     0.007 A 
ENDBRANCH  29  30
ENDBRANCH  26  29
ENDBRANCH  24  26
ENDBRANCH  21  22
ENDBRANCH   1  21
TORSDOF 13
ENDMDL
MODEL 3
REMARK VINA RESULT:      -7.5      1.866     10.079
REMARK  13 active torsions:
REMARK  status: ('A' for Active; 'I' for Inactive)
REMARK    1  A    between atoms: C_2  and  C_4 
REMARK    2  A    between atoms: C_2  and  N_11 
REMARK    3  A    between atoms: C_4  and  C_5 
REMARK       I    between atoms: N_11  and  C_13 
REMARK    4  A    between atoms: C_13  and  C_15 
REMARK    5  A    between atoms: C_15  and  N_16 
REMARK    6  A    between atoms: N_16  and  C_17 
REMARK    7  A    between atoms: N_16  and  C_20 
REMARK    8  A    between atoms: C_17  and  C_18 
REMARK    9  A    between atoms: C_18  and  O_19 
REMARK   10  A    between atoms: C_20  and  C_21 
REMARK       I    between atoms: C_21  and  N_23 
REMARK   11  A    between atoms: N_23  and  C_25 
REMARK   12  A    between atoms: C_25  and  C_28 
REMARK   13  A    between atoms: C_28  and  C_29 
ROOT
HETATM    1  N   UNK N   1      35.517  13.505  10.870  0.00  0.00     0.108 N 
ENDROOT
BRANCH   1   2
HETATM    2  C   UNK N   1      34.741  14.734  11.087  0.00  0.00     0.375 C 
BRANCH   2   3
HETATM    3  C   UNK N   1      34.630  15.565   9.838  0.00  0.00     0.248 C 
HETATM    4  N   UNK N   1      33.494  15.495   9.068  0.00  0.00    -0.346 N 
HETATM    5  C   UNK N   1      32.489  14.501   9.409  0.00  0.00     0.153 C 
HETATM    6  O   UNK N   1      35.551  16.316   9.561  0.00  0.00    -0.271 OA
BRANCH   4   7
HETATM    7  C   UNK N   1      33.205  16.352   7.913  0.00  0.00     0.031 C 
HETATM    8  C   UNK N   1      32.023  15.730   7.166  0.00  0.00     0.038 C 
HETATM    9  C   UNK N   1      32.785  17.721   8.442  0.00  0.00     0.038 C 
BRANCH   7  10
HETATM   10  C   UNK N   1      34.382  16.587   6.929  0.00  0.00     0.069 C 
BRANCH  10  11
HETATM   11  C   UNK N   1      33.917  16.593   5.505  0.00  0.00    -0.056 A 
HETATM   12  C   UNK N   1      33.140  17.650   5.012  0.00  0.00     0.007 A 
HETATM   13  C   UNK N   1      32.551  17.556   3.751  0.00  0.00     0.001 A 
HETATM   14  C   UNK N   1      32.733  16.404   2.982  0.00  0.00     0.000 A 
HETATM   15  C   UNK N   1      33.524  15.356   3.465  0.00  0.00     0.001 A 
HETATM   16  C   UNK N   1      34.108  15.448   4.729  0.00  0.00     0.007 A 
ENDBRANCH  10  11
ENDBRANCH   7  10
ENDBRANCH   4   7
ENDBRANCH   2   3
ENDBRANCH   1   2
BRANCH   1  17
HETATM   17  C   UNK N   1      36.880  13.652  11.403  0.00  0.00     0.299 C 
BRANCH  17  18
HETATM   18  C   UNK N   1      37.944  13.728  10.311  0.00  0.00     0.194 C 
BRANCH  18  19
HETATM   19  O   UNK N   1      38.238  15.061  10.040  0.00  0.00    -0.399 OA
HETATM   20  H   UNK N   1      37.962  15.459   9.200  0.00  0.00     0.209 HD
ENDBRANCH  18  19
ENDBRANCH  17  18
ENDBRANCH   1  17
BRANCH   1  21
HETATM   21  C   UNK N   1      34.856  12.270  11.339  0.00  0.00     0.375 C 
BRANCH  21  22
HETATM   22  C   UNK N   1      35.037  12.152  12.808  0.00  0.00     0.248 C 
HETATM   23  O   UNK N   1      34.503  12.991  13.522  0.00  0.00    -0.271 OA
HETATM   24  N   UNK N   1      35.848  11.179  13.329  0.00  0.00    -0.346 N 
HETATM   25  C   UNK N   1      36.317  10.126  12.438  0.00  0.00     0.153 C 
BRANCH  24  26
HETATM   26  C   UNK N   1      36.331  11.148  14.710  0.00  0.00     0.031 C 
HETATM   27  C   UNK N   1      37.175  12.398  14.963  0.00  0.00     0.038 C 
HETATM   28  C   UNK N   1      37.205   9.952  15.079  0.00  0.00     0.038 C 
BRANCH  26  29
HETATM   29  C   UNK N   1      35.081  11.029  15.611  0.00  0.00     0.069 C 
BRANCH  29  30
HETATM   30  C   UNK N   1      35.228  11.639  16.956  0.00  0.00    -0.056 A 
HETATM   31  C   UNK N   1      35.016  13.008  17.120  0.00  0.00     0.007 A 
HETATM   32  C   UNK N   1      35.077  13.570  18.395  0.00  0.00     0.001 A 
HETATM   33  C   UNK N   1      35.346  12.761  19.505  0.00  0.00     0.000 A 
HETATM   34  C   UNK N   1      35.564  11.390  19.338  0.00  0.00     0.001 A 
HETATM   35  C   UNK N   1      35.502  10.827  18.062  0.00  0.00     0.007 A 
ENDBRANCH  29  30
ENDBRANCH  26  29
ENDBRANCH  24  26
ENDBRANCH  21  22
ENDBRANCH   1  21
TORSDOF 13
ENDMDL
MODEL 4
REMARK VINA RESULT:      -7.4      1.954      2.806
REMARK  13 active torsions:
REMARK  status: ('A' for Active; 'I' for Inactive)
REMARK    1  A    between atoms: C_2  and  C_4 
REMARK    2  A    between atoms: C_2  and  N_11 
REMARK    3  A    between atoms: C_4  and  C_5 
REMARK       I    between atoms: N_11  and  C_13 
REMARK    4  A    between atoms: C_13  and  C_15 
REMARK    5  A    between atoms: C_15  and  N_16 
REMARK    6  A    between atoms: N_16  and  C_17 
REMARK    7  A    between atoms: N_16  and  C_20 
REMARK    8  A    between atoms: C_17  and  C_18 
REMARK    9  A    between atoms: C_18  and  O_19 
REMARK   10  A    between atoms: C_20  and  C_21 
REMARK       I    between atoms: C_21  and  N_23 
REMARK   11  A    between atoms: N_23  and  C_25 
REMARK   12  A    between atoms: C_25  and  C_28 
REMARK   13  A    between atoms: C_28  and  C_29 
ROOT
HETATM    1  N   UNK N   1      36.287  14.280  11.750  0.00  0.00     0.108 N 
ENDROOT
BRANCH   1   2
HETATM    2  C   UNK N   1      36.416  14.052  13.197  0.00  0.00     0.375 C 
BRANCH   2   3
HETATM    3  C   UNK N   1      35.702  12.804  13.642  0.00  0.00     0.248 C 
HETATM    4  N   UNK N   1      36.411  11.785  14.231  0.00  0.00    -0.346 N 
HETATM    5  C   UNK N   1      37.861  11.884  14.270  0.00  0.00     0.153 C 
HETATM    6  O   UNK N   1      34.492  12.750  13.499  0.00  0.00    -0.271 OA
BRANCH   4   7
HETATM    7  C   UNK N   1      35.818  10.585  14.833  0.00  0.00     0.031 C 
HETATM    8  C   UNK N   1      35.435   9.641  13.690  0.00  0.00     0.038 C 
HETATM    9  C   UNK N   1      36.890   9.913  15.687  0.00  0.00     0.038 C 
BRANCH   7  10
HETATM   10  C   UNK N   1      34.589  10.821  15.751  0.00  0.00     0.069 C 
BRANCH  10  11
HETATM   11  C   UNK N   1      34.989  11.435  17.058  0.00  0.00    -0.056 A 
HETATM   12  C   UNK N   1      35.162  10.639  18.198  0.00  0.00     0.007 A 
HETATM   13  C   UNK N   1      35.342  11.235  19.447  0.00  0.00     0.001 A 
HETATM   14  C   UNK N   1      35.344  12.628  19.559  0.00  0.00     0.000 A 
HETATM   15  C   UNK N   1      35.191  13.424  18.419  0.00  0.00     0.001 A 
HETATM   16  C   UNK N   1      35.004  12.827  17.171  0.00  0.00     0.007 A 
ENDBRANCH  10  11
ENDBRANCH   7  10
ENDBRANCH   4   7
ENDBRANCH   2   3
ENDBRANCH   1   2
BRANCH   1  17
HETATM   17  C   UNK N   1      36.816  13.134  10.996  0.00  0.00     0.299 C 
BRANCH  17  18
HETATM   18  C   UNK N   1      38.198  13.395  10.403  0.00  0.00     0.194 C 
BRANCH  18  19
HETATM   19  O   UNK N   1      38.354  14.759  10.172  0.00  0.00    -0.399 OA
HETATM   20  H   UNK N   1      38.066  15.402  10.839  0.00  0.00     0.209 HD
ENDBRANCH  18  19
ENDBRANCH  17  18
ENDBRANCH   1  17
BRANCH   1  21
HETATM   21  C   UNK N   1      34.932  14.672  11.309  0.00  0.00     0.375 C 
BRANCH  21  22
HETATM   22  C   UNK N   1      35.045  15.530  10.103  0.00  0.00     0.248 C 
HETATM   23  O   UNK N   1      35.867  16.438  10.119  0.00  0.00    -0.271 OA
HETATM   24  N   UNK N   1      34.192  15.355   9.047  0.00  0.00    -0.346 N 
HETATM   25  C   UNK N   1      33.354  14.163   9.031  0.00  0.00     0.153 C 
BRANCH  24  26
HETATM   26  C   UNK N   1      34.013  16.310   7.952  0.00  0.00     0.031 C 
HETATM   27  C   UNK N   1      34.936  15.911   6.799  0.00  0.00     0.038 C 
HETATM   28  C   UNK N   1      34.336  17.764   8.284  0.00  0.00     0.038 C 
BRANCH  26  29
HETATM   29  C   UNK N   1      32.509  16.299   7.600  0.00  0.00     0.069 C 
BRANCH  29  30
HETATM   30  C   UNK N   1      32.215  16.261   6.146  0.00  0.00    -0.056 A 
HETATM   31  C   UNK N   1      32.388  17.411   5.376  0.00  0.00     0.007 A 
HETATM   32  C   UNK N   1      32.188  17.358   3.997  0.00  0.00     0.001 A 
HETATM   33  C   UNK N   1      31.820  16.152   3.389  0.00  0.00     0.000 A 
HETATM   34  C   UNK N   1      31.642  15.002   4.162  0.00  0.00     0.001 A 
HETATM   35  C   UNK N   1      31.843  15.055   5.543  0.00  0.00     0.007 A 
ENDBRANCH  29  30
ENDBRANCH  26  29
ENDBRANCH  24  26
ENDBRANCH  21  22
ENDBRANCH   1  21
TORSDOF 13
ENDMDL
MODEL 5
REMARK VINA RESULT:      -7.4      1.665      9.903
REMARK  13 active torsions:
REMARK  status: ('A' for Active; 'I' for Inactive)
REMARK    1  A    between atoms: C_2  and  C_4 
REMARK    2  A    between atoms: C_2  and  N_11 
REMARK    3  A    between atoms: C_4  and  C_5 
REMARK       I    between atoms: N_11  and  C_13 
REMARK    4  A    between atoms: C_13  and  C_15 
REMARK    5  A    between atoms: C_15  and  N_16 
REMARK    6  A    between atoms: N_16  and  C_17 
REMARK    7  A    between atoms: N_16  and  C_20 
REMARK    8  A    between atoms: C_17  and  C_18 
REMARK    9  A    between atoms: C_18  and  O_19 
REMARK   10  A    between atoms: C_20  and  C_21 
REMARK       I    between atoms: C_21  and  N_23 
REMARK   11  A    between atoms: N_23  and  C_25 
REMARK   12  A    between atoms: C_25  and  C_28 
REMARK   13  A    between atoms: C_28  and  C_29 
ROOT
HETATM    1  N   UNK N   1      35.506  14.227   9.932  0.00  0.00     0.108 N 
ENDROOT
BRANCH   1   2
HETATM    2  C   UNK N   1      34.270  14.910  10.339  0.00  0.00     0.375 C 
BRANCH   2   3
HETATM    3  C   UNK N   1      33.942  16.075   9.444  0.00  0.00     0.248 C 
HETATM    4  N   UNK N   1      32.913  15.972   8.539  0.00  0.00    -0.346 N 
HETATM    5  C   UNK N   1      32.267  14.680   8.371  0.00  0.00     0.153 C 
HETATM    6  O   UNK N   1      34.584  17.102   9.576  0.00  0.00    -0.271 OA
BRANCH   4   7
HETATM    7  C   UNK N   1      32.404  17.073   7.714  0.00  0.00     0.031 C 
HETATM    8  C   UNK N   1      31.255  16.519   6.869  0.00  0.00     0.038 C 
HETATM    9  C   UNK N   1      31.852  18.143   8.653  0.00  0.00     0.038 C 
BRANCH   7  10
HETATM   10  C   UNK N   1      33.443  17.770   6.794  0.00  0.00     0.069 C 
BRANCH  10  11
HETATM   11  C   UNK N   1      33.529  17.101   5.456  0.00  0.00    -0.056 A 
HETATM   12  C   UNK N   1      32.799  17.592   4.364  0.00  0.00     0.007 A 
HETATM   13  C   UNK N   1      32.731  16.856   3.180  0.00  0.00     0.001 A 
HETATM   14  C   UNK N   1      33.388  15.626   3.087  0.00  0.00     0.000 A 
HETATM   15  C   UNK N   1      34.132  15.145   4.170  0.00  0.00     0.001 A 
HETATM   16  C   UNK N   1      34.195  15.878   5.355  0.00  0.00     0.007 A 
ENDBRANCH  10  11
ENDBRANCH   7  10
ENDBRANCH   4   7
ENDBRANCH   2   3
ENDBRANCH   1   2
BRANCH   1  17
HETATM   17  C   UNK N   1      35.843  14.553   8.538  0.00  0.00     0.299 C 
BRANCH  17  18
HETATM   18  C   UNK N   1      35.985  13.318   7.652  0.00  0.00     0.194 C 
BRANCH  18  19
HETATM   19  O   UNK N   1      35.750  12.174   8.410  0.00  0.00    -0.399 OA
HETATM   20  H   UNK N   1      36.414  11.866   9.045  0.00  0.00     0.209 HD
ENDBRANCH  18  19
ENDBRANCH  17  18
ENDBRANCH   1  17
BRANCH   1  21
HETATM   21  C   UNK N   1      36.647  14.422  10.850  0.00  0.00     0.375 C 
BRANCH  21  22
HETATM   22  C   UNK N   1      36.769  13.232  11.731  0.00  0.00     0.248 C 
HETATM   23  O   UNK N   1      37.166  12.188  11.231  0.00  0.00    -0.271 OA
HETATM   24  N   UNK N   1      36.366  13.295  13.037  0.00  0.00    -0.346 N 
HETATM   25  C   UNK N   1      36.057  14.603  13.599  0.00  0.00     0.153 C 
BRANCH  24  26
HETATM   26  C   UNK N   1      36.163  12.133  13.903  0.00  0.00     0.031 C 
HETATM   27  C   UNK N   1      37.437  11.899  14.716  0.00  0.00     0.038 C 
HETATM   28  C   UNK N   1      35.857  10.820  13.188  0.00  0.00     0.038 C 
BRANCH  26  29
HETATM   29  C   UNK N   1      34.908  12.432  14.754  0.00  0.00     0.069 C 
BRANCH  29  30
HETATM   30  C   UNK N   1      35.098  12.262  16.216  0.00  0.00    -0.056 A 
HETATM   31  C   UNK N   1      35.179  13.386  17.037  0.00  0.00     0.007 A 
HETATM   32  C   UNK N   1      35.280  13.229  18.419  0.00  0.00     0.001 A 
HETATM   33  C   UNK N   1      35.294  11.947  18.979  0.00  0.00     0.000 A 
HETATM   34  C   UNK N   1      35.218  10.820  18.154  0.00  0.00     0.001 A 
HETATM   35  C   UNK N   1      35.116  10.978  16.771  0.00  0.00     0.007 A 
ENDBRANCH  29  30
ENDBRANCH  26  29
ENDBRANCH  24  26
ENDBRANCH  21  22
ENDBRANCH   1  21
TORSDOF 13
ENDMDL
MODEL 6
REMARK VINA RESULT:      -7.4      1.462      9.734
REMARK  13 active torsions:
REMARK  status: ('A' for Active; 'I' for Inactive)
REMARK    1  A    between atoms: C_2  and  C_4 
REMARK    2  A    between atoms: C_2  and  N_11 
REMARK    3  A    between atoms: C_4  and  C_5 
REMARK       I    between atoms: N_11  and  C_13 
REMARK    4  A    between atoms: C_13  and  C_15 
REMARK    5  A    between atoms: C_15  and  N_16 
REMARK    6  A    between atoms: N_16  and  C_17 
REMARK    7  A    between atoms: N_16  and  C_20 
REMARK    8  A    between atoms: C_17  and  C_18 
REMARK    9  A    between atoms: C_18  and  O_19 
REMARK   10  A    between atoms: C_20  and  C_21 
REMARK       I    between atoms: C_21  and  N_23 
REMARK   11  A    between atoms: N_23  and  C_25 
REMARK   12  A    between atoms: C_25  and  C_28 
REMARK   13  A    between atoms: C_28  and  C_29 
ROOT
HETATM    1  N   UNK N   1      35.106  13.237   9.881  0.00  0.00     0.108 N 
ENDROOT
BRANCH   1   2
HETATM    2  C   UNK N   1      35.470  14.384   9.037  0.00  0.00     0.375 C 
BRANCH   2   3
HETATM    3  C   UNK N   1      34.324  15.341   8.852  0.00  0.00     0.248 C 
HETATM    4  N   UNK N   1      34.071  15.874   7.611  0.00  0.00    -0.346 N 
HETATM    5  C   UNK N   1      35.018  15.609   6.540  0.00  0.00     0.153 C 
HETATM    6  O   UNK N   1      33.620  15.590   9.816  0.00  0.00    -0.271 OA
BRANCH   4   7
HETATM    7  C   UNK N   1      32.909  16.703   7.271  0.00  0.00     0.031 C 
HETATM    8  C   UNK N   1      32.998  17.982   8.107  0.00  0.00     0.038 C 
HETATM    9  C   UNK N   1      33.017  17.073   5.794  0.00  0.00     0.038 C 
BRANCH   7  10
HETATM   10  C   UNK N   1      31.519  16.041   7.473  0.00  0.00     0.069 C 
BRANCH  10  11
HETATM   11  C   UNK N   1      30.475  17.052   7.830  0.00  0.00    -0.056 A 
HETATM   12  C   UNK N   1      30.261  17.417   9.167  0.00  0.00     0.007 A 
HETATM   13  C   UNK N   1      29.163  18.207   9.510  0.00  0.00     0.001 A 
HETATM   14  C   UNK N   1      28.274  18.631   8.518  0.00  0.00     0.000 A 
HETATM   15  C   UNK N   1      28.497  18.284   7.181  0.00  0.00     0.001 A 
HETATM   16  C   UNK N   1      29.592  17.488   6.840  0.00  0.00     0.007 A 
ENDBRANCH  10  11
ENDBRANCH   7  10
ENDBRANCH   4   7
ENDBRANCH   2   3
ENDBRANCH   1   2
BRANCH   1  17
HETATM   17  C   UNK N   1      34.680  12.099   9.052  0.00  0.00     0.299 C 
BRANCH  17  18
HETATM   18  C   UNK N   1      33.268  11.619   9.377  0.00  0.00     0.194 C 
BRANCH  18  19
HETATM   19  O   UNK N   1      32.391  12.699   9.342  0.00  0.00    -0.399 OA
HETATM   20  H   UNK N   1      32.533  13.460   9.926  0.00  0.00     0.209 HD
ENDBRANCH  18  19
ENDBRANCH  17  18
ENDBRANCH   1  17
BRANCH   1  21
HETATM   21  C   UNK N   1      36.129  12.860  10.878  0.00  0.00     0.375 C 
BRANCH  21  22
HETATM   22  C   UNK N   1      35.462  12.575  12.173  0.00  0.00     0.248 C 
HETATM   23  O   UNK N   1      34.801  13.469  12.687  0.00  0.00    -0.271 OA
HETATM   24  N   UNK N   1      35.657  11.376  12.803  0.00  0.00    -0.346 N 
HETATM   25  C   UNK N   1      36.319  10.311  12.062  0.00  0.00     0.153 C 
BRANCH  24  26
HETATM   26  C   UNK N   1      35.301  11.098  14.195  0.00  0.00     0.031 C 
HETATM   27  C   UNK N   1      35.636   9.638  14.505  0.00  0.00     0.038 C 
HETATM   28  C   UNK N   1      33.830  11.291  14.553  0.00  0.00     0.038 C 
BRANCH  26  29
HETATM   29  C   UNK N   1      36.065  12.126  15.059  0.00  0.00     0.069 C 
BRANCH  29  30
HETATM   30  C   UNK N   1      35.854  11.983  16.521  0.00  0.00    -0.056 A 
HETATM   31  C   UNK N   1      35.328  13.049  17.250  0.00  0.00     0.007 A 
HETATM   32  C   UNK N   1      35.056  12.892  18.609  0.00  0.00     0.001 A 
HETATM   33  C   UNK N   1      35.305  11.665  19.235  0.00  0.00     0.000 A 
HETATM   34  C   UNK N   1      35.838  10.599  18.504  0.00  0.00     0.001 A 
HETATM   35  C   UNK N   1      36.109  10.757  17.144  0.00  0.00     0.007 A 
ENDBRANCH  29  30
ENDBRANCH  26  29
ENDBRANCH  24  26
ENDBRANCH  21  22
ENDBRANCH   1  21
TORSDOF 13
ENDMDL
MODEL 7
REMARK VINA RESULT:      -7.4     17.349     21.108
REMARK  13 active torsions:
REMARK  status: ('A' for Active; 'I' for Inactive)
REMARK    1  A    between atoms: C_2  and  C_4 
REMARK    2  A    between atoms: C_2  and  N_11 
REMARK    3  A    between atoms: C_4  and  C_5 
REMARK       I    between atoms: N_11  and  C_13 
REMARK    4  A    between atoms: C_13  and  C_15 
REMARK    5  A    between atoms: C_15  and  N_16 
REMARK    6  A    between atoms: N_16  and  C_17 
REMARK    7  A    between atoms: N_16  and  C_20 
REMARK    8  A    between atoms: C_17  and  C_18 
REMARK    9  A    between atoms: C_18  and  O_19 
REMARK   10  A    between atoms: C_20  and  C_21 
REMARK       I    between atoms: C_21  and  N_23 
REMARK   11  A    between atoms: N_23  and  C_25 
REMARK   12  A    between atoms: C_25  and  C_28 
REMARK   13  A    between atoms: C_28  and  C_29 
ROOT
HETATM    1  N   UNK N   1      26.087  26.116  -5.850  0.00  0.00     0.108 N 
ENDROOT
BRANCH   1   2
HETATM    2  C   UNK N   1      27.469  26.579  -5.662  0.00  0.00     0.375 C 
BRANCH   2   3
HETATM    3  C   UNK N   1      28.305  25.585  -4.902  0.00  0.00     0.248 C 
HETATM    4  N   UNK N   1      29.391  25.001  -5.508  0.00  0.00    -0.346 N 
HETATM    5  C   UNK N   1      29.611  25.252  -6.923  0.00  0.00     0.153 C 
HETATM    6  O   UNK N   1      28.011  25.352  -3.742  0.00  0.00    -0.271 OA
BRANCH   4   7
HETATM    7  C   UNK N   1      30.362  24.129  -4.837  0.00  0.00     0.031 C 
HETATM    8  C   UNK N   1      31.468  23.813  -5.847  0.00  0.00     0.038 C 
HETATM    9  C   UNK N   1      30.968  24.914  -3.676  0.00  0.00     0.038 C 
BRANCH   7  10
HETATM   10  C   UNK N   1      29.797  22.810  -4.247  0.00  0.00     0.069 C 
BRANCH  10  11
HETATM   11  C   UNK N   1      30.881  21.802  -4.016  0.00  0.00    -0.056 A 
HETATM   12  C   UNK N   1      31.838  21.999  -3.012  0.00  0.00     0.007 A 
HETATM   13  C   UNK N   1      32.951  21.161  -2.931  0.00  0.00     0.001 A 
HETATM   14  C   UNK N   1      33.111  20.125  -3.856  0.00  0.00     0.000 A 
HETATM   15  C   UNK N   1      32.145  19.915  -4.846  0.00  0.00     0.001 A 
HETATM   16  C   UNK N   1      31.036  20.758  -4.931  0.00  0.00     0.007 A 
ENDBRANCH  10  11
ENDBRANCH   7  10
ENDBRANCH   4   7
ENDBRANCH   2   3
ENDBRANCH   1   2
BRANCH   1  17
HETATM   17  C   UNK N   1      25.134  27.105  -5.326  0.00  0.00     0.299 C 
BRANCH  17  18
HETATM   18  C   UNK N   1      25.797  28.179  -4.468  0.00  0.00     0.194 C 
BRANCH  18  19
HETATM   19  O   UNK N   1      25.338  28.075  -3.158  0.00  0.00    -0.399 OA
HETATM   20  H   UNK N   1      24.721  28.734  -2.804  0.00  0.00     0.209 HD
ENDBRANCH  18  19
ENDBRANCH  17  18
ENDBRANCH   1  17
BRANCH   1  21
HETATM   21  C   UNK N   1      25.764  25.692  -7.228  0.00  0.00     0.375 C 
BRANCH  21  22
HETATM   22  C   UNK N   1      25.780  24.209  -7.295  0.00  0.00     0.248 C 
HETATM   23  O   UNK N   1      25.362  23.586  -6.327  0.00  0.00    -0.271 OA
HETATM   24  N   UNK N   1      26.326  23.571  -8.376  0.00  0.00    -0.346 N 
HETATM   25  C   UNK N   1      26.655  24.369  -9.550  0.00  0.00     0.153 C 
BRANCH  24  26
HETATM   26  C   UNK N   1      26.663  22.148  -8.422  0.00  0.00     0.031 C 
HETATM   27  C   UNK N   1      27.047  21.781  -9.856  0.00  0.00     0.038 C 
HETATM   28  C   UNK N   1      25.546  21.191  -8.014  0.00  0.00     0.038 C 
BRANCH  26  29
HETATM   29  C   UNK N   1      27.785  21.927  -7.383  0.00  0.00     0.069 C 
BRANCH  29  30
HETATM   30  C   UNK N   1      28.877  21.029  -7.835  0.00  0.00    -0.056 A 
HETATM   31  C   UNK N   1      30.053  21.576  -8.350  0.00  0.00     0.007 A 
HETATM   32  C   UNK N   1      31.110  20.738  -8.702  0.00  0.00     0.001 A 
HETATM   33  C   UNK N   1      30.992  19.353  -8.535  0.00  0.00     0.000 A 
HETATM   34  C   UNK N   1      29.811  18.806  -8.025  0.00  0.00     0.001 A 
HETATM   35  C   UNK N   1      28.753  19.645  -7.671  0.00  0.00     0.007 A 
ENDBRANCH  29  30
ENDBRANCH  26  29
ENDBRANCH  24  26
ENDBRANCH  21  22
ENDBRANCH   1  21
TORSDOF 13
ENDMDL
MODEL 8
REMARK VINA RESULT:      -7.2      1.452      9.826
REMARK  13 active torsions:
REMARK  status: ('A' for Active; 'I' for Inactive)
REMARK    1  A    between atoms: C_2  and  C_4 
REMARK    2  A    between atoms: C_2  and  N_11 
REMARK    3  A    between atoms: C_4  and  C_5 
REMARK       I    between atoms: N_11  and  C_13 
REMARK    4  A    between atoms: C_13  and  C_15 
REMARK    5  A    between atoms: C_15  and  N_16 
REMARK    6  A    between atoms: N_16  and  C_17 
REMARK    7  A    between atoms: N_16  and  C_20 
REMARK    8  A    between atoms: C_17  and  C_18 
REMARK    9  A    between atoms: C_18  and  O_19 
REMARK   10  A    between atoms: C_20  and  C_21 
REMARK       I    between atoms: C_21  and  N_23 
REMARK   11  A    between atoms: N_23  and  C_25 
REMARK   12  A    between atoms: C_25  and  C_28 
REMARK   13  A    between atoms: C_28  and  C_29 
ROOT
HETATM    1  N   UNK N   1      36.093  13.607  10.801  0.00  0.00     0.108 N 
ENDROOT
BRANCH   1   2
HETATM    2  C   UNK N   1      36.523  14.766  10.005  0.00  0.00     0.375 C 
BRANCH   2   3
HETATM    3  C   UNK N   1      35.379  15.683   9.670  0.00  0.00     0.248 C 
HETATM    4  N   UNK N   1      34.872  15.703   8.392  0.00  0.00    -0.346 N 
HETATM    5  C   UNK N   1      35.560  14.941   7.363  0.00  0.00     0.153 C 
HETATM    6  O   UNK N   1      34.904  16.363  10.563  0.00  0.00    -0.271 OA
BRANCH   4   7
HETATM    7  C   UNK N   1      33.675  16.443   7.973  0.00  0.00     0.031 C 
HETATM    8  C   UNK N   1      33.966  17.932   8.170  0.00  0.00     0.038 C 
HETATM    9  C   UNK N   1      33.461  16.176   6.485  0.00  0.00     0.038 C 
BRANCH   7  10
HETATM   10  C   UNK N   1      32.355  16.066   8.696  0.00  0.00     0.069 C 
BRANCH  10  11
HETATM   11  C   UNK N   1      31.217  16.931   8.251  0.00  0.00    -0.056 A 
HETATM   12  C   UNK N   1      30.760  17.982   9.058  0.00  0.00     0.007 A 
HETATM   13  C   UNK N   1      29.583  18.657   8.729  0.00  0.00     0.001 A 
HETATM   14  C   UNK N   1      28.858  18.279   7.596  0.00  0.00     0.000 A 
HETATM   15  C   UNK N   1      29.323  17.243   6.779  0.00  0.00     0.001 A 
HETATM   16  C   UNK N   1      30.497  16.564   7.112  0.00  0.00     0.007 A 
ENDBRANCH  10  11
ENDBRANCH   7  10
ENDBRANCH   4   7
ENDBRANCH   2   3
ENDBRANCH   1   2
BRANCH   1  17
HETATM   17  C   UNK N   1      36.261  12.363  10.036  0.00  0.00     0.299 C 
BRANCH  17  18
HETATM   18  C   UNK N   1      37.631  11.719  10.235  0.00  0.00     0.194 C 
BRANCH  18  19
HETATM   19  O   UNK N   1      37.468  10.393  10.627  0.00  0.00    -0.399 OA
HETATM   20  H   UNK N   1      36.946   9.785  10.082  0.00  0.00     0.209 HD
ENDBRANCH  18  19
ENDBRANCH  17  18
ENDBRANCH   1  17
BRANCH   1  21
HETATM   21  C   UNK N   1      36.695  13.530  12.148  0.00  0.00     0.375 C 
BRANCH  21  22
HETATM   22  C   UNK N   1      35.674  13.041  13.108  0.00  0.00     0.248 C 
HETATM   23  O   UNK N   1      34.546  13.512  13.037  0.00  0.00    -0.271 OA
HETATM   24  N   UNK N   1      36.018  12.153  14.092  0.00  0.00    -0.346 N 
HETATM   25  C   UNK N   1      37.328  11.518  14.016  0.00  0.00     0.153 C 
BRANCH  24  26
HETATM   26  C   UNK N   1      35.189  11.833  15.254  0.00  0.00     0.031 C 
HETATM   27  C   UNK N   1      33.982  11.018  14.787  0.00  0.00     0.038 C 
HETATM   28  C   UNK N   1      34.633  13.031  16.019  0.00  0.00     0.038 C 
BRANCH  26  29
HETATM   29  C   UNK N   1      36.104  11.101  16.261  0.00  0.00     0.069 C 
BRANCH  29  30
HETATM   30  C   UNK N   1      35.430  10.676  17.513  0.00  0.00    -0.056 A 
HETATM   31  C   UNK N   1      34.677   9.502  17.528  0.00  0.00     0.007 A 
HETATM   32  C   UNK N   1      34.107   9.059  18.721  0.00  0.00     0.001 A 
HETATM   33  C   UNK N   1      34.296   9.790  19.900  0.00  0.00     0.000 A 
HETATM   34  C   UNK N   1      35.047  10.969  19.883  0.00  0.00     0.001 A 
HETATM   35  C   UNK N   1      35.618  11.411  18.688  0.00  0.00     0.007 A 
ENDBRANCH  29  30
ENDBRANCH  26  29
ENDBRANCH  24  26
ENDBRANCH  21  22
ENDBRANCH   1  21
TORSDOF 13
ENDMDL
MODEL 9
REMARK VINA RESULT:      -7.1      1.082      9.471
REMARK  13 active torsions:
REMARK  status: ('A' for Active; 'I' for Inactive)
REMARK    1  A    between atoms: C_2  and  C_4 
REMARK    2  A    between atoms: C_2  and  N_11 
REMARK    3  A    between atoms: C_4  and  C_5 
REMARK       I    between atoms: N_11  and  C_13 
REMARK    4  A    between atoms: C_13  and  C_15 
REMARK    5  A    between atoms: C_15  and  N_16 
REMARK    6  A    between atoms: N_16  and  C_17 
REMARK    7  A    between atoms: N_16  and  C_20 
REMARK    8  A    between atoms: C_17  and  C_18 
REMARK    9  A    between atoms: C_18  and  O_19 
REMARK   10  A    between atoms: C_20  and  C_21 
REMARK       I    between atoms: C_21  and  N_23 
REMARK   11  A    between atoms: N_23  and  C_25 
REMARK   12  A    between atoms: C_25  and  C_28 
REMARK   13  A    between atoms: C_28  and  C_29 
ROOT
HETATM    1  N   UNK N   1      35.597  13.208   9.854  0.00  0.00     0.108 N 
ENDROOT
BRANCH   1   2
HETATM    2  C   UNK N   1      35.828  14.421   9.057  0.00  0.00     0.375 C 
BRANCH   2   3
HETATM    3  C   UNK N   1      34.582  14.887   8.354  0.00  0.00     0.248 C 
HETATM    4  N   UNK N   1      34.159  16.186   8.504  0.00  0.00    -0.346 N 
HETATM    5  C   UNK N   1      34.851  17.033   9.462  0.00  0.00     0.153 C 
HETATM    6  O   UNK N   1      33.997  14.098   7.633  0.00  0.00    -0.271 OA
BRANCH   4   7
HETATM    7  C   UNK N   1      33.048  16.800   7.767  0.00  0.00     0.031 C 
HETATM    8  C   UNK N   1      32.964  18.265   8.202  0.00  0.00     0.038 C 
HETATM    9  C   UNK N   1      33.390  16.747   6.280  0.00  0.00     0.038 C 
BRANCH   7  10
HETATM   10  C   UNK N   1      31.662  16.122   7.938  0.00  0.00     0.069 C 
BRANCH  10  11
HETATM   11  C   UNK N   1      30.553  17.129   7.940  0.00  0.00    -0.056 A 
HETATM   12  C   UNK N   1      30.071  17.658   9.146  0.00  0.00     0.007 A 
HETATM   13  C   UNK N   1      28.917  18.442   9.154  0.00  0.00     0.001 A 
HETATM   14  C   UNK N   1      28.240  18.696   7.958  0.00  0.00     0.000 A 
HETATM   15  C   UNK N   1      28.731  18.185   6.752  0.00  0.00     0.001 A 
HETATM   16  C   UNK N   1      29.882  17.395   6.745  0.00  0.00     0.007 A 
ENDBRANCH  10  11
ENDBRANCH   7  10
ENDBRANCH   4   7
ENDBRANCH   2   3
ENDBRANCH   1   2
BRANCH   1  17
HETATM   17  C   UNK N   1      36.874  12.568  10.204  0.00  0.00     0.299 C 
BRANCH  17  18
HETATM   18  C   UNK N   1      38.090  13.381   9.769  0.00  0.00     0.194 C 
BRANCH  18  19
HETATM   19  O   UNK N   1      39.247  12.641   9.994  0.00  0.00    -0.399 OA
HETATM   20  H   UNK N   1      40.115  13.071   9.953  0.00  0.00     0.209 HD
ENDBRANCH  18  19
ENDBRANCH  17  18
ENDBRANCH   1  17
BRANCH   1  21
HETATM   21  C   UNK N   1      34.719  13.401  11.026  0.00  0.00     0.375 C 
BRANCH  21  22
HETATM   22  C   UNK N   1      35.359  12.787  12.217  0.00  0.00     0.248 C 
HETATM   23  O   UNK N   1      35.293  11.571  12.341  0.00  0.00    -0.271 OA
HETATM   24  N   UNK N   1      35.927  13.576  13.181  0.00  0.00    -0.346 N 
HETATM   25  C   UNK N   1      36.109  14.992  12.890  0.00  0.00     0.153 C 
BRANCH  24  26
HETATM   26  C   UNK N   1      36.316  13.114  14.514  0.00  0.00     0.031 C 
HETATM   27  C   UNK N   1      36.950  14.281  15.272  0.00  0.00     0.038 C 
HETATM   28  C   UNK N   1      37.328  11.972  14.549  0.00  0.00     0.038 C 
BRANCH  26  29
HETATM   29  C   UNK N   1      35.039  12.543  15.171  0.00  0.00     0.069 C 
BRANCH  29  30
HETATM   30  C   UNK N   1      35.107  12.421  16.648  0.00  0.00    -0.056 A 
HETATM   31  C   UNK N   1      35.370  11.180  17.228  0.00  0.00     0.007 A 
HETATM   32  C   UNK N   1      35.512  11.077  18.611  0.00  0.00     0.001 A 
HETATM   33  C   UNK N   1      35.395  12.217  19.414  0.00  0.00     0.000 A 
HETATM   34  C   UNK N   1      35.125  13.460  18.833  0.00  0.00     0.001 A 
HETATM   35  C   UNK N   1      34.984  13.563  17.447  0.00  0.00     0.007 A 
ENDBRANCH  29  30
ENDBRANCH  26  29
ENDBRANCH  24  26
ENDBRANCH  21  22
ENDBRANCH   1  21
TORSDOF 13
ENDMDL
