MODEL 1
REMARK VINA RESULT:      -7.9      0.000      0.000
REMARK  11 active torsions:
REMARK  status: ('A' for Active; 'I' for Inactive)
REMARK    1  A    between atoms: C_4  and  N_7 
REMARK    2  A    between atoms: N_7  and  C_8 
REMARK       I    between atoms: N_7  and  C_14 
REMARK    3  A    between atoms: C_18  and  C_22 
REMARK       I    between atoms: C_22  and  N_24 
REMARK    4  A    between atoms: N_24  and  C_25 
REMARK    5  A    between atoms: C_25  and  C_26 
REMARK    6  A    between atoms: C_26  and  C_27 
REMARK    7  A    between atoms: C_27  and  C_28 
REMARK    8  A    between atoms: C_28  and  C_29 
REMARK    9  A    between atoms: C_29  and  C_30 
REMARK   10  A    between atoms: C_30  and  C_31 
REMARK       I    between atoms: C_31  and  N_33 
REMARK   11  A    between atoms: N_33  and  O_34 
ROOT
HETATM    1  N   UNK N   1      36.181  12.411  14.770  0.00  0.00    -0.148 N 
HETATM    2  C   UNK N   1      35.990  12.803  13.371  0.00  0.00     0.689 A 
HETATM    3  N   UNK N   1      36.084  11.888  12.364  0.00  0.00    -0.200 N 
ATOM      4  HN  UNK N   1      36.247  10.909  12.601  1.00  0.00     0.183 HD
HETATM    5  C   UNK N   1      35.970  12.239  11.058  0.00  0.00     0.124 A 
HETATM    6  C   UNK N   1      35.737  13.567  10.705  0.00  0.00     0.063 A 
HETATM    7  C   UNK N   1      35.612  14.490  11.742  0.00  0.00     0.124 A 
HETATM    8  N   UNK N   1      35.745  14.098  13.033  0.00  0.00    -0.200 N 
ATOM      9  HN  UNK N   1      35.659  14.795  13.773  1.00  0.00     0.183 HD
ENDROOT
BRANCH   6  10
HETATM   10  C   UNK N   1      35.672  13.951   9.259  0.00  0.00     0.254 C 
HETATM   11  O   UNK N   1      36.710  14.265   8.698  0.00  0.00    -0.268 OA
HETATM   12  N   UNK N   1      34.518  13.978   8.534  0.00  0.00    -0.357 N 
HETATM   13  H   UNK N   1      34.580  14.290   7.602  0.00  0.00     0.162 HD
BRANCH  12  14
HETATM   14  C   UNK N   1      33.215  13.587   9.013  0.00  0.00     0.123 C 
BRANCH  14  15
HETATM   15  C   UNK N   1      32.246  14.759   8.996  0.00  0.00     0.020 C 
BRANCH  15  16
HETATM   16  C   UNK N   1      32.021  15.181   7.551  0.00  0.00     0.002 C 
BRANCH  16  17
HETATM   17  C   UNK N   1      31.349  16.545   7.462  0.00  0.00     0.001 C 
BRANCH  17  18
HETATM   18  C   UNK N   1      32.063  17.567   8.329  0.00  0.00     0.009 C 
BRANCH  18  19
HETATM   19  C   UNK N   1      33.301  18.082   7.620  0.00  0.00     0.105 C 
BRANCH  19  20
HETATM   20  C   UNK N   1      34.469  18.230   8.551  0.00  0.00     0.240 C 
HETATM   21  O   UNK N   1      35.296  19.116   8.382  0.00  0.00    -0.271 OA
HETATM   22  N   UNK N   1      34.602  17.367   9.582  0.00  0.00    -0.237 N 
HETATM   23  H   UNK N   1      33.935  16.653   9.706  0.00  0.00     0.197 HD
BRANCH  22  24
HETATM   24  O   UNK N   1      35.628  17.471  10.436  0.00  0.00    -0.287 OA
HETATM   25  H   UNK N   1      36.510  17.163  10.175  0.00  0.00     0.244 HD
ENDBRANCH  22  24
ENDBRANCH  19  20
ENDBRANCH  18  19
ENDBRANCH  17  18
ENDBRANCH  16  17
ENDBRANCH  15  16
ENDBRANCH  14  15
ENDBRANCH  12  14
ENDBRANCH   6  10
BRANCH   1  26
HETATM   26  C   UNK N   1      36.249  13.447  15.812  0.00  0.00     0.057 A 
HETATM   27  C   UNK N   1      37.140  14.537  15.723  0.00  0.00     0.030 A 
HETATM   28  C   UNK N   1      37.183  15.541  16.693  0.00  0.00     0.002 A 
HETATM   29  C   UNK N   1      36.328  15.486  17.791  0.00  0.00     0.000 A 
HETATM   30  C   UNK N   1      35.432  14.427  17.913  0.00  0.00     0.002 A 
HETATM   31  C   UNK N   1      35.396  13.428  16.936  0.00  0.00     0.030 A 
ENDBRANCH   1  26
BRANCH   1  32
HETATM   32  C   UNK N   1      36.344  10.990  15.111  0.00  0.00     0.057 A 
HETATM   33  C   UNK N   1      37.611  10.370  15.142  0.00  0.00     0.030 A 
HETATM   34  C   UNK N   1      37.767   9.022  15.473  0.00  0.00     0.002 A 
HETATM   35  C   UNK N   1      36.652   8.249  15.789  0.00  0.00     0.000 A 
HETATM   36  C   UNK N   1      35.387   8.829  15.777  0.00  0.00     0.002 A 
HETATM   37  C   UNK N   1      35.241  10.176  15.447  0.00  0.00     0.030 A 
ENDBRANCH   1  32
TORSDOF 11
ENDMDL
MODEL 2
REMARK VINA RESULT:      -7.6      6.769     11.287
REMARK  11 active torsions:
REMARK  status: ('A' for Active; 'I' for Inactive)
REMARK    1  A    between atoms: C_4  and  N_7 
REMARK    2  A    between atoms: N_7  and  C_8 
REMARK       I    between atoms: N_7  and  C_14 
REMARK    3  A    between atoms: C_18  and  C_22 
REMARK       I    between atoms: C_22  and  N_24 
REMARK    4  A    between atoms: N_24  and  C_25 
REMARK    5  A    between atoms: C_25  and  C_26 
REMARK    6  A    between atoms: C_26  and  C_27 
REMARK    7  A    between atoms: C_27  and  C_28 
REMARK    8  A    between atoms: C_28  and  C_29 
REMARK    9  A    between atoms: C_29  and  C_30 
REMARK   10  A    between atoms: C_30  and  C_31 
REMARK       I    between atoms: C_31  and  N_33 
REMARK   11  A    between atoms: N_33  and  O_34 
ROOT
HETATM    1  N   UNK N   1      28.086  17.226   4.356  0.00  0.00    -0.148 N 
HETATM    2  C   UNK N   1      29.457  16.831   4.021  0.00  0.00     0.689 A 
HETATM    3  N   UNK N   1      29.738  15.575   3.569  0.00  0.00    -0.200 N 
ATOM      4  HN  UNK N   1      28.969  14.921   3.422  1.00  0.00     0.183 HD
HETATM    5  C   UNK N   1      31.007  15.169   3.310  0.00  0.00     0.124 A 
HETATM    6  C   UNK N   1      32.076  16.045   3.491  0.00  0.00     0.063 A 
HETATM    7  C   UNK N   1      31.777  17.335   3.926  0.00  0.00     0.124 A 
HETATM    8  N   UNK N   1      30.495  17.695   4.184  0.00  0.00    -0.200 N 
ATOM      9  HN  UNK N   1      30.304  18.643   4.510  1.00  0.00     0.183 HD
ENDROOT
BRANCH   6  10
HETATM   10  C   UNK N   1      33.476  15.566   3.259  0.00  0.00     0.254 C 
HETATM   11  O   UNK N   1      33.866  15.459   2.107  0.00  0.00    -0.268 OA
HETATM   12  N   UNK N   1      34.338  15.235   4.262  0.00  0.00    -0.357 N 
HETATM   13  H   UNK N   1      35.220  14.886   3.999  0.00  0.00     0.162 HD
BRANCH  12  14
HETATM   14  C   UNK N   1      34.070  15.352   5.674  0.00  0.00     0.123 C 
BRANCH  14  15
HETATM   15  C   UNK N   1      33.640  14.019   6.268  0.00  0.00     0.020 C 
BRANCH  15  16
HETATM   16  C   UNK N   1      32.634  14.285   7.377  0.00  0.00     0.002 C 
BRANCH  16  17
HETATM   17  C   UNK N   1      31.805  15.532   7.097  0.00  0.00     0.001 C 
BRANCH  17  18
HETATM   18  C   UNK N   1      31.775  16.454   8.303  0.00  0.00     0.009 C 
BRANCH  18  19
HETATM   19  C   UNK N   1      32.403  17.791   7.957  0.00  0.00     0.105 C 
BRANCH  19  20
HETATM   20  C   UNK N   1      33.843  17.868   8.374  0.00  0.00     0.240 C 
HETATM   21  O   UNK N   1      34.686  18.349   7.629  0.00  0.00    -0.271 OA
HETATM   22  N   UNK N   1      34.202  17.392   9.586  0.00  0.00    -0.237 N 
HETATM   23  H   UNK N   1      33.518  17.000  10.176  0.00  0.00     0.197 HD
BRANCH  22  24
HETATM   24  O   UNK N   1      35.476  17.448   9.995  0.00  0.00    -0.287 OA
HETATM   25  H   UNK N   1      35.730  17.058  10.845  0.00  0.00     0.244 HD
ENDBRANCH  22  24
ENDBRANCH  19  20
ENDBRANCH  18  19
ENDBRANCH  17  18
ENDBRANCH  16  17
ENDBRANCH  15  16
ENDBRANCH  14  15
ENDBRANCH  12  14
ENDBRANCH   6  10
BRANCH   1  26
HETATM   26  C   UNK N   1      27.842  18.523   5.007  0.00  0.00     0.057 A 
HETATM   27  C   UNK N   1      27.413  19.653   4.281  0.00  0.00     0.030 A 
HETATM   28  C   UNK N   1      27.146  20.876   4.902  0.00  0.00     0.002 A 
HETATM   29  C   UNK N   1      27.302  21.005   6.280  0.00  0.00     0.000 A 
HETATM   30  C   UNK N   1      27.721  19.911   7.032  0.00  0.00     0.002 A 
HETATM   31  C   UNK N   1      27.983  18.691   6.402  0.00  0.00     0.030 A 
ENDBRANCH   1  26
BRANCH   1  32
HETATM   32  C   UNK N   1      26.976  16.304   4.075  0.00  0.00     0.057 A 
HETATM   33  C   UNK N   1      26.347  16.254   2.814  0.00  0.00     0.030 A 
HETATM   34  C   UNK N   1      25.297  15.372   2.545  0.00  0.00     0.002 A 
HETATM   35  C   UNK N   1      24.845  14.505   3.537  0.00  0.00     0.000 A 
HETATM   36  C   UNK N   1      25.447  14.520   4.792  0.00  0.00     0.002 A 
HETATM   37  C   UNK N   1      26.496  15.403   5.050  0.00  0.00     0.030 A 
ENDBRANCH   1  32
TORSDOF 11
ENDMDL
MODEL 3
REMARK VINA RESULT:      -7.6      9.466     12.711
REMARK  11 active torsions:
REMARK  status: ('A' for Active; 'I' for Inactive)
REMARK    1  A    between atoms: C_4  and  N_7 
REMARK    2  A    between atoms: N_7  and  C_8 
REMARK       I    between atoms: N_7  and  C_14 
REMARK    3  A    between atoms: C_18  and  C_22 
REMARK       I    between atoms: C_22  and  N_24 
REMARK    4  A    between atoms: N_24  and  C_25 
REMARK    5  A    between atoms: C_25  and  C_26 
REMARK    6  A    between atoms: C_26  and  C_27 
REMARK    7  A    between atoms: C_27  and  C_28 
REMARK    8  A    between atoms: C_28  and  C_29 
REMARK    9  A    between atoms: C_29  and  C_30 
REMARK   10  A    between atoms: C_30  and  C_31 
REMARK       I    between atoms: C_31  and  N_33 
REMARK   11  A    between atoms: N_33  and  O_34 
ROOT
HETATM    1  N   UNK N   1      28.767  17.470   5.601  0.00  0.00    -0.148 N 
HETATM    2  C   UNK N   1      27.986  16.233   5.522  0.00  0.00     0.689 A 
HETATM    3  N   UNK N   1      28.594  15.028   5.322  0.00  0.00    -0.200 N 
ATOM      4  HN  UNK N   1      29.612  14.991   5.272  1.00  0.00     0.183 HD
HETATM    5  C   UNK N   1      27.886  13.878   5.186  0.00  0.00     0.124 A 
HETATM    6  C   UNK N   1      26.494  13.895   5.261  0.00  0.00     0.063 A 
HETATM    7  C   UNK N   1      25.884  15.126   5.495  0.00  0.00     0.124 A 
HETATM    8  N   UNK N   1      26.628  16.253   5.612  0.00  0.00    -0.200 N 
ATOM      9  HN  UNK N   1      26.156  17.143   5.775  1.00  0.00     0.183 HD
ENDROOT
BRANCH   6  10
HETATM   10  C   UNK N   1      25.724  12.629   5.050  0.00  0.00     0.254 C 
HETATM   11  O   UNK N   1      25.865  12.036   3.992  0.00  0.00    -0.268 OA
HETATM   12  N   UNK N   1      24.865  12.103   5.969  0.00  0.00    -0.357 N 
HETATM   13  H   UNK N   1      24.372  11.291   5.712  0.00  0.00     0.162 HD
BRANCH  12  14
HETATM   14  C   UNK N   1      24.617  12.634   7.287  0.00  0.00     0.123 C 
BRANCH  14  15
HETATM   15  C   UNK N   1      23.250  13.296   7.368  0.00  0.00     0.020 C 
BRANCH  15  16
HETATM   16  C   UNK N   1      22.328  12.405   8.187  0.00  0.00     0.002 C 
BRANCH  16  17
HETATM   17  C   UNK N   1      21.564  13.202   9.238  0.00  0.00     0.001 C 
BRANCH  17  18
HETATM   18  C   UNK N   1      21.538  12.472  10.569  0.00  0.00     0.009 C 
BRANCH  18  19
HETATM   19  C   UNK N   1      22.727  11.537  10.677  0.00  0.00     0.105 C 
BRANCH  19  20
HETATM   20  C   UNK N   1      23.654  11.922  11.794  0.00  0.00     0.240 C 
HETATM   21  O   UNK N   1      24.861  11.994  11.610  0.00  0.00    -0.271 OA
HETATM   22  N   UNK N   1      23.138  12.185  13.014  0.00  0.00    -0.237 N 
HETATM   23  H   UNK N   1      22.166  12.118  13.155  0.00  0.00     0.197 HD
BRANCH  22  24
HETATM   24  O   UNK N   1      23.932  12.537  14.034  0.00  0.00    -0.287 OA
HETATM   25  H   UNK N   1      23.694  13.288  14.598  0.00  0.00     0.244 HD
ENDBRANCH  22  24
ENDBRANCH  19  20
ENDBRANCH  18  19
ENDBRANCH  17  18
ENDBRANCH  16  17
ENDBRANCH  15  16
ENDBRANCH  14  15
ENDBRANCH  12  14
ENDBRANCH   6  10
BRANCH   1  26
HETATM   26  C   UNK N   1      28.072  18.767   5.638  0.00  0.00     0.057 A 
HETATM   27  C   UNK N   1      27.807  19.437   6.850  0.00  0.00     0.030 A 
HETATM   28  C   UNK N   1      27.179  20.684   6.886  0.00  0.00     0.002 A 
HETATM   29  C   UNK N   1      26.794  21.305   5.700  0.00  0.00     0.000 A 
HETATM   30  C   UNK N   1      27.041  20.676   4.483  0.00  0.00     0.002 A 
HETATM   31  C   UNK N   1      27.672  19.429   4.457  0.00  0.00     0.030 A 
ENDBRANCH   1  26
BRANCH   1  32
HETATM   32  C   UNK N   1      30.235  17.404   5.599  0.00  0.00     0.057 A 
HETATM   33  C   UNK N   1      30.975  17.176   6.778  0.00  0.00     0.030 A 
HETATM   34  C   UNK N   1      32.370  17.105   6.775  0.00  0.00     0.002 A 
HETATM   35  C   UNK N   1      33.072  17.257   5.582  0.00  0.00     0.000 A 
HETATM   36  C   UNK N   1      32.376  17.474   4.396  0.00  0.00     0.002 A 
HETATM   37  C   UNK N   1      30.982  17.542   4.409  0.00  0.00     0.030 A 
ENDBRANCH   1  32
TORSDOF 11
ENDMDL
MODEL 4
REMARK VINA RESULT:      -7.4      7.839     11.739
REMARK  11 active torsions:
REMARK  status: ('A' for Active; 'I' for Inactive)
REMARK    1  A    between atoms: C_4  and  N_7 
REMARK    2  A    between atoms: N_7  and  C_8 
REMARK       I    between atoms: N_7  and  C_14 
REMARK    3  A    between atoms: C_18  and  C_22 
REMARK       I    between atoms: C_22  and  N_24 
REMARK    4  A    between atoms: N_24  and  C_25 
REMARK    5  A    between atoms: C_25  and  C_26 
REMARK    6  A    between atoms: C_26  and  C_27 
REMARK    7  A    between atoms: C_27  and  C_28 
REMARK    8  A    between atoms: C_28  and  C_29 
REMARK    9  A    between atoms: C_29  and  C_30 
REMARK   10  A    between atoms: C_30  and  C_31 
REMARK       I    between atoms: C_31  and  N_33 
REMARK   11  A    between atoms: N_33  and  O_34 
ROOT
HETATM    1  N   UNK N   1      27.909  17.151   4.084  0.00  0.00    -0.148 N 
HETATM    2  C   UNK N   1      29.303  16.771   3.841  0.00  0.00     0.689 A 
HETATM    3  N   UNK N   1      29.636  15.494   3.498  0.00  0.00    -0.200 N 
ATOM      4  HN  UNK N   1      28.892  14.809   3.366  1.00  0.00     0.183 HD
HETATM    5  C   UNK N   1      30.926  15.106   3.326  0.00  0.00     0.124 A 
HETATM    6  C   UNK N   1      31.963  16.023   3.488  0.00  0.00     0.063 A 
HETATM    7  C   UNK N   1      31.611  17.333   3.810  0.00  0.00     0.124 A 
HETATM    8  N   UNK N   1      30.311  17.675   3.984  0.00  0.00    -0.200 N 
ATOM      9  HN  UNK N   1      30.081  18.638   4.228  1.00  0.00     0.183 HD
ENDROOT
BRANCH   6  10
HETATM   10  C   UNK N   1      33.383  15.569   3.354  0.00  0.00     0.254 C 
HETATM   11  O   UNK N   1      33.878  15.539   2.239  0.00  0.00    -0.268 OA
HETATM   12  N   UNK N   1      34.155  15.177   4.408  0.00  0.00    -0.357 N 
HETATM   13  H   UNK N   1      35.061  14.852   4.205  0.00  0.00     0.162 HD
BRANCH  12  14
HETATM   14  C   UNK N   1      33.758  15.200   5.795  0.00  0.00     0.123 C 
BRANCH  14  15
HETATM   15  C   UNK N   1      34.719  16.030   6.631  0.00  0.00     0.020 C 
BRANCH  15  16
HETATM   16  C   UNK N   1      34.121  17.417   6.822  0.00  0.00     0.002 C 
BRANCH  16  17
HETATM   17  C   UNK N   1      32.604  17.360   6.959  0.00  0.00     0.001 C 
BRANCH  17  18
HETATM   18  C   UNK N   1      32.171  17.622   8.390  0.00  0.00     0.009 C 
BRANCH  18  19
HETATM   19  C   UNK N   1      30.886  16.875   8.694  0.00  0.00     0.105 C 
BRANCH  19  20
HETATM   20  C   UNK N   1      29.751  17.804   9.015  0.00  0.00     0.240 C 
HETATM   21  O   UNK N   1      29.941  19.007   9.133  0.00  0.00    -0.271 OA
HETATM   22  N   UNK N   1      28.512  17.294   9.179  0.00  0.00    -0.237 N 
HETATM   23  H   UNK N   1      28.370  16.323   9.089  0.00  0.00     0.197 HD
BRANCH  22  24
HETATM   24  O   UNK N   1      27.473  18.091   9.462  0.00  0.00    -0.287 OA
HETATM   25  H   UNK N   1      27.092  18.094  10.353  0.00  0.00     0.244 HD
ENDBRANCH  22  24
ENDBRANCH  19  20
ENDBRANCH  18  19
ENDBRANCH  17  18
ENDBRANCH  16  17
ENDBRANCH  15  16
ENDBRANCH  14  15
ENDBRANCH  12  14
ENDBRANCH   6  10
BRANCH   1  26
HETATM   26  C   UNK N   1      27.602  18.485   4.625  0.00  0.00     0.057 A 
HETATM   27  C   UNK N   1      26.972  19.478   3.846  0.00  0.00     0.030 A 
HETATM   28  C   UNK N   1      26.648  20.733   4.367  0.00  0.00     0.002 A 
HETATM   29  C   UNK N   1      26.947  21.035   5.694  0.00  0.00     0.000 A 
HETATM   30  C   UNK N   1      27.566  20.079   6.494  0.00  0.00     0.002 A 
HETATM   31  C   UNK N   1      27.885  18.826   5.965  0.00  0.00     0.030 A 
ENDBRANCH   1  26
BRANCH   1  32
HETATM   32  C   UNK N   1      26.836  16.179   3.825  0.00  0.00     0.057 A 
HETATM   33  C   UNK N   1      26.288  15.381   4.851  0.00  0.00     0.030 A 
HETATM   34  C   UNK N   1      25.263  14.463   4.606  0.00  0.00     0.002 A 
HETATM   35  C   UNK N   1      24.749  14.320   3.319  0.00  0.00     0.000 A 
HETATM   36  C   UNK N   1      25.260  15.097   2.284  0.00  0.00     0.002 A 
HETATM   37  C   UNK N   1      26.282  16.012   2.538  0.00  0.00     0.030 A 
ENDBRANCH   1  32
TORSDOF 11
ENDMDL
MODEL 5
REMARK VINA RESULT:      -7.4      7.676     12.217
REMARK  11 active torsions:
REMARK  status: ('A' for Active; 'I' for Inactive)
REMARK    1  A    between atoms: C_4  and  N_7 
REMARK    2  A    between atoms: N_7  and  C_8 
REMARK       I    between atoms: N_7  and  C_14 
REMARK    3  A    between atoms: C_18  and  C_22 
REMARK       I    between atoms: C_22  and  N_24 
REMARK    4  A    between atoms: N_24  and  C_25 
REMARK    5  A    between atoms: C_25  and  C_26 
REMARK    6  A    between atoms: C_26  and  C_27 
REMARK    7  A    between atoms: C_27  and  C_28 
REMARK    8  A    between atoms: C_28  and  C_29 
REMARK    9  A    between atoms: C_29  and  C_30 
REMARK   10  A    between atoms: C_30  and  C_31 
REMARK       I    between atoms: C_31  and  N_33 
REMARK   11  A    between atoms: N_33  and  O_34 
ROOT
HETATM    1  N   UNK N   1      27.804  17.198   4.223  0.00  0.00    -0.148 N 
HETATM    2  C   UNK N   1      29.210  16.807   4.085  0.00  0.00     0.689 A 
HETATM    3  N   UNK N   1      30.214  17.712   4.268  0.00  0.00    -0.200 N 
ATOM      4  HN  UNK N   1      29.976  18.663   4.549  1.00  0.00     0.183 HD
HETATM    5  C   UNK N   1      31.519  17.386   4.087  0.00  0.00     0.124 A 
HETATM    6  C   UNK N   1      31.876  16.091   3.715  0.00  0.00     0.063 A 
HETATM    7  C   UNK N   1      30.845  15.166   3.559  0.00  0.00     0.124 A 
HETATM    8  N   UNK N   1      29.553  15.537   3.737  0.00  0.00    -0.200 N 
ATOM      9  HN  UNK N   1      28.817  14.843   3.608  1.00  0.00     0.183 HD
ENDROOT
BRANCH   6  10
HETATM   10  C   UNK N   1      33.314  15.761   3.461  0.00  0.00     0.254 C 
HETATM   11  O   UNK N   1      33.726  15.821   2.313  0.00  0.00    -0.268 OA
HETATM   12  N   UNK N   1      34.189  15.389   4.438  0.00  0.00    -0.357 N 
HETATM   13  H   UNK N   1      35.101  15.148   4.156  0.00  0.00     0.162 HD
BRANCH  12  14
HETATM   14  C   UNK N   1      33.894  15.319   5.848  0.00  0.00     0.123 C 
BRANCH  14  15
HETATM   15  C   UNK N   1      34.099  16.666   6.522  0.00  0.00     0.020 C 
BRANCH  15  16
HETATM   16  C   UNK N   1      33.429  16.632   7.888  0.00  0.00     0.002 C 
BRANCH  16  17
HETATM   17  C   UNK N   1      32.100  15.888   7.842  0.00  0.00     0.001 C 
BRANCH  17  18
HETATM   18  C   UNK N   1      30.939  16.850   7.663  0.00  0.00     0.009 C 
BRANCH  18  19
HETATM   19  C   UNK N   1      31.049  17.994   8.653  0.00  0.00     0.105 C 
BRANCH  19  20
HETATM   20  C   UNK N   1      29.751  18.263   9.359  0.00  0.00     0.240 C 
HETATM   21  O   UNK N   1      29.710  19.000  10.335  0.00  0.00    -0.271 OA
HETATM   22  N   UNK N   1      28.623  17.674   8.906  0.00  0.00    -0.237 N 
HETATM   23  H   UNK N   1      28.667  17.077   8.125  0.00  0.00     0.197 HD
BRANCH  22  24
HETATM   24  O   UNK N   1      27.446  17.893   9.507  0.00  0.00    -0.287 OA
HETATM   25  H   UNK N   1      27.408  18.022  10.467  0.00  0.00     0.244 HD
ENDBRANCH  22  24
ENDBRANCH  19  20
ENDBRANCH  18  19
ENDBRANCH  17  18
ENDBRANCH  16  17
ENDBRANCH  15  16
ENDBRANCH  14  15
ENDBRANCH  12  14
ENDBRANCH   6  10
BRANCH   1  26
HETATM   26  C   UNK N   1      26.745  16.249   3.845  0.00  0.00     0.057 A 
HETATM   27  C   UNK N   1      26.369  16.046   2.501  0.00  0.00     0.030 A 
HETATM   28  C   UNK N   1      25.389  15.120   2.137  0.00  0.00     0.002 A 
HETATM   29  C   UNK N   1      24.751  14.361   3.115  0.00  0.00     0.000 A 
HETATM   30  C   UNK N   1      25.097  14.530   4.453  0.00  0.00     0.002 A 
HETATM   31  C   UNK N   1      26.080  15.458   4.807  0.00  0.00     0.030 A 
ENDBRANCH   1  26
BRANCH   1  32
HETATM   32  C   UNK N   1      27.469  18.549   4.696  0.00  0.00     0.057 A 
HETATM   33  C   UNK N   1      26.898  19.519   3.845  0.00  0.00     0.030 A 
HETATM   34  C   UNK N   1      26.573  20.800   4.296  0.00  0.00     0.002 A 
HETATM   35  C   UNK N   1      26.807  21.151   5.624  0.00  0.00     0.000 A 
HETATM   36  C   UNK N   1      27.361  20.218   6.495  0.00  0.00     0.002 A 
HETATM   37  C   UNK N   1      27.682  18.940   6.035  0.00  0.00     0.030 A 
ENDBRANCH   1  32
TORSDOF 11
ENDMDL
MODEL 6
REMARK VINA RESULT:      -7.3     11.846     15.145
REMARK  11 active torsions:
REMARK  status: ('A' for Active; 'I' for Inactive)
REMARK    1  A    between atoms: C_4  and  N_7 
REMARK    2  A    between atoms: N_7  and  C_8 
REMARK       I    between atoms: N_7  and  C_14 
REMARK    3  A    between atoms: C_18  and  C_22 
REMARK       I    between atoms: C_22  and  N_24 
REMARK    4  A    between atoms: N_24  and  C_25 
REMARK    5  A    between atoms: C_25  and  C_26 
REMARK    6  A    between atoms: C_26  and  C_27 
REMARK    7  A    between atoms: C_27  and  C_28 
REMARK    8  A    between atoms: C_28  and  C_29 
REMARK    9  A    between atoms: C_29  and  C_30 
REMARK   10  A    between atoms: C_30  and  C_31 
REMARK       I    between atoms: C_31  and  N_33 
REMARK   11  A    between atoms: N_33  and  O_34 
ROOT
HETATM    1  N   UNK N   1      26.512  16.686   4.647  0.00  0.00    -0.148 N 
HETATM    2  C   UNK N   1      25.236  16.077   5.032  0.00  0.00     0.689 A 
HETATM    3  N   UNK N   1      24.303  16.783   5.733  0.00  0.00    -0.200 N 
ATOM      4  HN  UNK N   1      24.485  17.762   5.951  1.00  0.00     0.183 HD
HETATM    5  C   UNK N   1      23.140  16.221   6.153  0.00  0.00     0.124 A 
HETATM    6  C   UNK N   1      22.857  14.888   5.861  0.00  0.00     0.063 A 
HETATM    7  C   UNK N   1      23.803  14.184   5.118  0.00  0.00     0.124 A 
HETATM    8  N   UNK N   1      24.958  14.780   4.730  0.00  0.00    -0.200 N 
ATOM      9  HN  UNK N   1      25.638  14.239   4.195  1.00  0.00     0.183 HD
ENDROOT
BRANCH   6  10
HETATM   10  C   UNK N   1      21.598  14.265   6.380  0.00  0.00     0.254 C 
HETATM   11  O   UNK N   1      21.635  13.706   7.464  0.00  0.00    -0.268 OA
HETATM   12  N   UNK N   1      20.413  14.279   5.706  0.00  0.00    -0.357 N 
HETATM   13  H   UNK N   1      19.658  13.799   6.115  0.00  0.00     0.162 HD
BRANCH  12  14
HETATM   14  C   UNK N   1      20.171  14.937   4.445  0.00  0.00     0.123 C 
BRANCH  14  15
HETATM   15  C   UNK N   1      19.296  16.168   4.624  0.00  0.00     0.020 C 
BRANCH  15  16
HETATM   16  C   UNK N   1      19.662  17.184   3.552  0.00  0.00     0.002 C 
BRANCH  16  17
HETATM   17  C   UNK N   1      21.163  17.210   3.293  0.00  0.00     0.001 C 
BRANCH  17  18
HETATM   18  C   UNK N   1      21.769  18.539   3.706  0.00  0.00     0.009 C 
BRANCH  18  19
HETATM   19  C   UNK N   1      20.770  19.660   3.490  0.00  0.00     0.105 C 
BRANCH  19  20
HETATM   20  C   UNK N   1      21.108  20.498   2.291  0.00  0.00     0.240 C 
HETATM   21  O   UNK N   1      21.890  21.435   2.382  0.00  0.00    -0.271 OA
HETATM   22  N   UNK N   1      20.532  20.209   1.104  0.00  0.00    -0.237 N 
HETATM   23  H   UNK N   1      19.899  19.458   1.041  0.00  0.00     0.197 HD
BRANCH  22  24
HETATM   24  O   UNK N   1      20.813  20.932   0.011  0.00  0.00    -0.287 OA
HETATM   25  H   UNK N   1      21.194  20.503  -0.770  0.00  0.00     0.244 HD
ENDBRANCH  22  24
ENDBRANCH  19  20
ENDBRANCH  18  19
ENDBRANCH  17  18
ENDBRANCH  16  17
ENDBRANCH  15  16
ENDBRANCH  14  15
ENDBRANCH  12  14
ENDBRANCH   6  10
BRANCH   1  26
HETATM   26  C   UNK N   1      27.565  15.849   4.050  0.00  0.00     0.057 A 
HETATM   27  C   UNK N   1      28.490  15.137   4.842  0.00  0.00     0.030 A 
HETATM   28  C   UNK N   1      29.469  14.314   4.279  0.00  0.00     0.002 A 
HETATM   29  C   UNK N   1      29.551  14.176   2.895  0.00  0.00     0.000 A 
HETATM   30  C   UNK N   1      28.653  14.860   2.080  0.00  0.00     0.002 A 
HETATM   31  C   UNK N   1      27.676  15.680   2.653  0.00  0.00     0.030 A 
ENDBRANCH   1  26
BRANCH   1  32
HETATM   32  C   UNK N   1      26.741  18.116   4.900  0.00  0.00     0.057 A 
HETATM   33  C   UNK N   1      26.283  19.114   4.015  0.00  0.00     0.030 A 
HETATM   34  C   UNK N   1      26.494  20.473   4.259  0.00  0.00     0.002 A 
HETATM   35  C   UNK N   1      27.170  20.877   5.408  0.00  0.00     0.000 A 
HETATM   36  C   UNK N   1      27.628  19.921   6.310  0.00  0.00     0.002 A 
HETATM   37  C   UNK N   1      27.412  18.565   6.057  0.00  0.00     0.030 A 
ENDBRANCH   1  32
TORSDOF 11
ENDMDL
MODEL 7
REMARK VINA RESULT:      -7.2      1.155      3.824
REMARK  11 active torsions:
REMARK  status: ('A' for Active; 'I' for Inactive)
REMARK    1  A    between atoms: C_4  and  N_7 
REMARK    2  A    between atoms: N_7  and  C_8 
REMARK       I    between atoms: N_7  and  C_14 
REMARK    3  A    between atoms: C_18  and  C_22 
REMARK       I    between atoms: C_22  and  N_24 
REMARK    4  A    between atoms: N_24  and  C_25 
REMARK    5  A    between atoms: C_25  and  C_26 
REMARK    6  A    between atoms: C_26  and  C_27 
REMARK    7  A    between atoms: C_27  and  C_28 
REMARK    8  A    between atoms: C_28  and  C_29 
REMARK    9  A    between atoms: C_29  and  C_30 
REMARK   10  A    between atoms: C_30  and  C_31 
REMARK       I    between atoms: C_31  and  N_33 
REMARK   11  A    between atoms: N_33  and  O_34 
ROOT
HETATM    1  N   UNK N   1      36.340  12.832  14.421  0.00  0.00    -0.148 N 
HETATM    2  C   UNK N   1      36.182  13.498  13.124  0.00  0.00     0.689 A 
HETATM    3  N   UNK N   1      35.852  14.818  13.047  0.00  0.00    -0.200 N 
ATOM      4  HN  UNK N   1      35.759  15.355  13.909  1.00  0.00     0.183 HD
HETATM    5  C   UNK N   1      35.643  15.441  11.858  0.00  0.00     0.124 A 
HETATM    6  C   UNK N   1      35.774  14.735  10.663  0.00  0.00     0.063 A 
HETATM    7  C   UNK N   1      36.140  13.394  10.752  0.00  0.00     0.124 A 
HETATM    8  N   UNK N   1      36.328  12.809  11.960  0.00  0.00    -0.200 N 
ATOM      9  HN  UNK N   1      36.587  11.822  11.997  1.00  0.00     0.183 HD
ENDROOT
BRANCH   6  10
HETATM   10  C   UNK N   1      35.482  15.418   9.363  0.00  0.00     0.254 C 
HETATM   11  O   UNK N   1      35.757  16.603   9.258  0.00  0.00    -0.268 OA
HETATM   12  N   UNK N   1      34.919  14.793   8.290  0.00  0.00    -0.357 N 
HETATM   13  H   UNK N   1      34.726  15.345   7.498  0.00  0.00     0.162 HD
BRANCH  12  14
HETATM   14  C   UNK N   1      34.582  13.393   8.214  0.00  0.00     0.123 C 
BRANCH  14  15
HETATM   15  C   UNK N   1      33.250  13.182   7.512  0.00  0.00     0.020 C 
BRANCH  15  16
HETATM   16  C   UNK N   1      32.352  14.374   7.808  0.00  0.00     0.002 C 
BRANCH  16  17
HETATM   17  C   UNK N   1      31.594  14.828   6.566  0.00  0.00     0.001 C 
BRANCH  17  18
HETATM   18  C   UNK N   1      32.288  16.002   5.898  0.00  0.00     0.009 C 
BRANCH  18  19
HETATM   19  C   UNK N   1      32.260  17.215   6.809  0.00  0.00     0.105 C 
BRANCH  19  20
HETATM   20  C   UNK N   1      33.631  17.777   7.050  0.00  0.00     0.240 C 
HETATM   21  O   UNK N   1      34.566  17.484   6.317  0.00  0.00    -0.271 OA
HETATM   22  N   UNK N   1      33.824  18.611   8.094  0.00  0.00    -0.237 N 
HETATM   23  H   UNK N   1      33.067  18.836   8.683  0.00  0.00     0.197 HD
BRANCH  22  24
HETATM   24  O   UNK N   1      35.032  19.136   8.339  0.00  0.00    -0.287 OA
HETATM   25  H   UNK N   1      35.303  19.956   7.897  0.00  0.00     0.244 HD
ENDBRANCH  22  24
ENDBRANCH  19  20
ENDBRANCH  18  19
ENDBRANCH  17  18
ENDBRANCH  16  17
ENDBRANCH  15  16
ENDBRANCH  14  15
ENDBRANCH  12  14
ENDBRANCH   6  10
BRANCH   1  26
HETATM   26  C   UNK N   1      36.519  11.372  14.471  0.00  0.00     0.057 A 
HETATM   27  C   UNK N   1      35.427  10.484  14.391  0.00  0.00     0.030 A 
HETATM   28  C   UNK N   1      35.597   9.097  14.403  0.00  0.00     0.002 A 
HETATM   29  C   UNK N   1      36.876   8.553  14.494  0.00  0.00     0.000 A 
HETATM   30  C   UNK N   1      37.979   9.398  14.572  0.00  0.00     0.002 A 
HETATM   31  C   UNK N   1      37.799  10.784  14.558  0.00  0.00     0.030 A 
ENDBRANCH   1  26
BRANCH   1  32
HETATM   32  C   UNK N   1      36.274  13.625  15.657  0.00  0.00     0.057 A 
HETATM   33  C   UNK N   1      35.393  13.297  16.709  0.00  0.00     0.030 A 
HETATM   34  C   UNK N   1      35.336  14.046  17.887  0.00  0.00     0.002 A 
HETATM   35  C   UNK N   1      36.168  15.151  18.051  0.00  0.00     0.000 A 
HETATM   36  C   UNK N   1      37.057  15.499  17.037  0.00  0.00     0.002 A 
HETATM   37  C   UNK N   1      37.108  14.744  15.865  0.00  0.00     0.030 A 
ENDBRANCH   1  32
TORSDOF 11
ENDMDL
MODEL 8
REMARK VINA RESULT:      -7.2      9.829     13.964
REMARK  11 active torsions:
REMARK  status: ('A' for Active; 'I' for Inactive)
REMARK    1  A    between atoms: C_4  and  N_7 
REMARK    2  A    between atoms: N_7  and  C_8 
REMARK       I    between atoms: N_7  and  C_14 
REMARK    3  A    between atoms: C_18  and  C_22 
REMARK       I    between atoms: C_22  and  N_24 
REMARK    4  A    between atoms: N_24  and  C_25 
REMARK    5  A    between atoms: C_25  and  C_26 
REMARK    6  A    between atoms: C_26  and  C_27 
REMARK    7  A    between atoms: C_27  and  C_28 
REMARK    8  A    between atoms: C_28  and  C_29 
REMARK    9  A    between atoms: C_29  and  C_30 
REMARK   10  A    between atoms: C_30  and  C_31 
REMARK       I    between atoms: C_31  and  N_33 
REMARK   11  A    between atoms: N_33  and  O_34 
ROOT
HETATM    1  N   UNK N   1      29.568  16.015   4.052  0.00  0.00    -0.148 N 
HETATM    2  C   UNK N   1      28.423  16.904   3.839  0.00  0.00     0.689 A 
HETATM    3  N   UNK N   1      28.457  18.206   4.243  0.00  0.00    -0.200 N 
ATOM      4  HN  UNK N   1      29.314  18.571   4.659  1.00  0.00     0.183 HD
HETATM    5  C   UNK N   1      27.387  19.031   4.110  0.00  0.00     0.124 A 
HETATM    6  C   UNK N   1      26.206  18.563   3.534  0.00  0.00     0.063 A 
HETATM    7  C   UNK N   1      26.191  17.239   3.098  0.00  0.00     0.124 A 
HETATM    8  N   UNK N   1      27.278  16.447   3.262  0.00  0.00    -0.200 N 
ATOM      9  HN  UNK N   1      27.238  15.479   2.942  1.00  0.00     0.183 HD
ENDROOT
BRANCH   6  10
HETATM   10  C   UNK N   1      25.014  19.465   3.448  0.00  0.00     0.254 C 
HETATM   11  O   UNK N   1      25.142  20.538   2.879  0.00  0.00    -0.268 OA
HETATM   12  N   UNK N   1      23.795  19.161   3.975  0.00  0.00    -0.357 N 
HETATM   13  H   UNK N   1      23.091  19.844   3.904  0.00  0.00     0.162 HD
BRANCH  12  14
HETATM   14  C   UNK N   1      23.447  17.923   4.628  0.00  0.00     0.123 C 
BRANCH  14  15
HETATM   15  C   UNK N   1      22.399  18.143   5.707  0.00  0.00     0.020 C 
BRANCH  15  16
HETATM   16  C   UNK N   1      21.053  18.373   5.036  0.00  0.00     0.002 C 
BRANCH  16  17
HETATM   17  C   UNK N   1      20.826  17.402   3.884  0.00  0.00     0.001 C 
BRANCH  17  18
HETATM   18  C   UNK N   1      20.239  18.110   2.676  0.00  0.00     0.009 C 
BRANCH  18  19
HETATM   19  C   UNK N   1      20.133  19.599   2.942  0.00  0.00     0.105 C 
BRANCH  19  20
HETATM   20  C   UNK N   1      20.885  20.413   1.929  0.00  0.00     0.240 C 
HETATM   21  O   UNK N   1      21.960  20.926   2.210  0.00  0.00    -0.271 OA
HETATM   22  N   UNK N   1      20.358  20.577   0.696  0.00  0.00    -0.237 N 
HETATM   23  H   UNK N   1      19.490  20.165   0.481  0.00  0.00     0.197 HD
BRANCH  22  24
HETATM   24  O   UNK N   1      21.002  21.292  -0.236  0.00  0.00    -0.287 OA
HETATM   25  H   UNK N   1      21.877  21.663  -0.044  0.00  0.00     0.244 HD
ENDBRANCH  22  24
ENDBRANCH  19  20
ENDBRANCH  18  19
ENDBRANCH  17  18
ENDBRANCH  16  17
ENDBRANCH  15  16
ENDBRANCH  14  15
ENDBRANCH  12  14
ENDBRANCH   6  10
BRANCH   1  26
HETATM   26  C   UNK N   1      29.435  14.577   3.769  0.00  0.00     0.057 A 
HETATM   27  C   UNK N   1      29.005  13.660   4.751  0.00  0.00     0.030 A 
HETATM   28  C   UNK N   1      28.844  12.300   4.475  0.00  0.00     0.002 A 
HETATM   29  C   UNK N   1      29.108  11.813   3.197  0.00  0.00     0.000 A 
HETATM   30  C   UNK N   1      29.531  12.687   2.201  0.00  0.00     0.002 A 
HETATM   31  C   UNK N   1      29.688  14.047   2.486  0.00  0.00     0.030 A 
ENDBRANCH   1  26
BRANCH   1  32
HETATM   32  C   UNK N   1      30.823  16.563   4.587  0.00  0.00     0.057 A 
HETATM   33  C   UNK N   1      31.087  16.612   5.972  0.00  0.00     0.030 A 
HETATM   34  C   UNK N   1      32.283  17.126   6.480  0.00  0.00     0.002 A 
HETATM   35  C   UNK N   1      33.260  17.605   5.610  0.00  0.00     0.000 A 
HETATM   36  C   UNK N   1      33.038  17.565   4.236  0.00  0.00     0.002 A 
HETATM   37  C   UNK N   1      31.841  17.049   3.739  0.00  0.00     0.030 A 
ENDBRANCH   1  32
TORSDOF 11
ENDMDL
MODEL 9
REMARK VINA RESULT:      -7.1      9.524     13.012
REMARK  11 active torsions:
REMARK  status: ('A' for Active; 'I' for Inactive)
REMARK    1  A    between atoms: C_4  and  N_7 
REMARK    2  A    between atoms: N_7  and  C_8 
REMARK       I    between atoms: N_7  and  C_14 
REMARK    3  A    between atoms: C_18  and  C_22 
REMARK       I    between atoms: C_22  and  N_24 
REMARK    4  A    between atoms: N_24  and  C_25 
REMARK    5  A    between atoms: C_25  and  C_26 
REMARK    6  A    between atoms: C_26  and  C_27 
REMARK    7  A    between atoms: C_27  and  C_28 
REMARK    8  A    between atoms: C_28  and  C_29 
REMARK    9  A    between atoms: C_29  and  C_30 
REMARK   10  A    between atoms: C_30  and  C_31 
REMARK       I    between atoms: C_31  and  N_33 
REMARK   11  A    between atoms: N_33  and  O_34 
ROOT
HETATM    1  N   UNK N   1      28.676  17.504   5.459  0.00  0.00    -0.148 N 
HETATM    2  C   UNK N   1      27.843  16.304   5.343  0.00  0.00     0.689 A 
HETATM    3  N   UNK N   1      26.485  16.377   5.444  0.00  0.00    -0.200 N 
ATOM      4  HN  UNK N   1      26.047  17.291   5.557  1.00  0.00     0.183 HD
HETATM    5  C   UNK N   1      25.698  15.271   5.399  0.00  0.00     0.124 A 
HETATM    6  C   UNK N   1      26.267  14.010   5.234  0.00  0.00     0.063 A 
HETATM    7  C   UNK N   1      27.653  13.948   5.103  0.00  0.00     0.124 A 
HETATM    8  N   UNK N   1      28.402  15.076   5.165  0.00  0.00    -0.200 N 
ATOM      9  HN  UNK N   1      29.416  15.002   5.075  1.00  0.00     0.183 HD
ENDROOT
BRANCH   6  10
HETATM   10  C   UNK N   1      25.393  12.794   5.247  0.00  0.00     0.254 C 
HETATM   11  O   UNK N   1      25.218  12.198   4.195  0.00  0.00    -0.268 OA
HETATM   12  N   UNK N   1      24.775  12.318   6.364  0.00  0.00    -0.357 N 
HETATM   13  H   UNK N   1      24.184  11.538   6.254  0.00  0.00     0.162 HD
BRANCH  12  14
HETATM   14  C   UNK N   1      24.912  12.857   7.695  0.00  0.00     0.123 C 
BRANCH  14  15
HETATM   15  C   UNK N   1      23.710  13.709   8.073  0.00  0.00     0.020 C 
BRANCH  15  16
HETATM   16  C   UNK N   1      22.505  13.226   7.278  0.00  0.00     0.002 C 
BRANCH  16  17
HETATM   17  C   UNK N   1      21.308  12.958   8.182  0.00  0.00     0.001 C 
BRANCH  17  18
HETATM   18  C   UNK N   1      21.479  13.627   9.533  0.00  0.00     0.009 C 
BRANCH  18  19
HETATM   19  C   UNK N   1      21.474  12.588  10.638  0.00  0.00     0.105 C 
BRANCH  19  20
HETATM   20  C   UNK N   1      22.830  11.982  10.855  0.00  0.00     0.240 C 
HETATM   21  O   UNK N   1      23.125  10.909  10.346  0.00  0.00    -0.271 OA
HETATM   22  N   UNK N   1      23.725  12.635  11.626  0.00  0.00    -0.237 N 
HETATM   23  H   UNK N   1      23.477  13.494  12.037  0.00  0.00     0.197 HD
BRANCH  22  24
HETATM   24  O   UNK N   1      24.947  12.128  11.838  0.00  0.00    -0.287 OA
HETATM   25  H   UNK N   1      25.733  12.671  11.674  0.00  0.00     0.244 HD
ENDBRANCH  22  24
ENDBRANCH  19  20
ENDBRANCH  18  19
ENDBRANCH  17  18
ENDBRANCH  16  17
ENDBRANCH  15  16
ENDBRANCH  14  15
ENDBRANCH  12  14
ENDBRANCH   6  10
BRANCH   1  26
HETATM   26  C   UNK N   1      30.140  17.369   5.525  0.00  0.00     0.057 A 
HETATM   27  C   UNK N   1      30.954  17.516   4.383  0.00  0.00     0.030 A 
HETATM   28  C   UNK N   1      32.347  17.423   4.448  0.00  0.00     0.002 A 
HETATM   29  C   UNK N   1      32.971  17.179   5.669  0.00  0.00     0.000 A 
HETATM   30  C   UNK N   1      32.201  17.030   6.819  0.00  0.00     0.002 A 
HETATM   31  C   UNK N   1      30.809  17.127   6.744  0.00  0.00     0.030 A 
ENDBRANCH   1  26
BRANCH   1  32
HETATM   32  C   UNK N   1      28.038  18.825   5.551  0.00  0.00     0.057 A 
HETATM   33  C   UNK N   1      27.581  19.516   4.409  0.00  0.00     0.030 A 
HETATM   34  C   UNK N   1      26.968  20.768   4.497  0.00  0.00     0.002 A 
HETATM   35  C   UNK N   1      26.787  21.368   5.741  0.00  0.00     0.000 A 
HETATM   36  C   UNK N   1      27.216  20.712   6.891  0.00  0.00     0.002 A 
HETATM   37  C   UNK N   1      27.827  19.461   6.793  0.00  0.00     0.030 A 
ENDBRANCH   1  32
TORSDOF 11
ENDMDL
