MODEL 1
REMARK VINA RESULT:      -8.9      0.000      0.000
REMARK  7 active torsions:
REMARK  status: ('A' for Active; 'I' for Inactive)
REMARK    1  A    between atoms: C_2  and  C_5 
REMARK    2  A    between atoms: C_12  and  C_10 
REMARK    3  A    between atoms: C_13  and  O_39 
REMARK    4  A    between atoms: C_14  and  O_38 
REMARK    5  A    between atoms: C_15  and  N_17 
REMARK    6  A    between atoms: C_28  and  N_29 
REMARK    7  A    between atoms: N_29  and  C_30 
ROOT
HETATM    1  N   UNK N   1      35.181  14.816  11.749  0.00  0.00    -0.297 N 
HETATM    2  C   UNK N   1      35.500  16.129  11.783  0.00  0.00     0.188 A 
HETATM    3  N   UNK N   1      34.965  16.783  10.728  0.00  0.00    -0.346 N 
ATOM      4  HN  UNK N   1      35.048  17.775  10.502  1.00  0.00     0.167 HD
HETATM    5  C   UNK N   1      34.297  15.833  10.042  0.00  0.00     0.122 A 
HETATM    6  C   UNK N   1      34.457  14.647  10.635  0.00  0.00     0.142 A 
HETATM    7  N   UNK N   1      33.861  13.519  10.174  0.00  0.00    -0.336 N 
ATOM      8  HN  UNK N   1      33.981  12.626  10.653  1.00  0.00     0.168 HD
HETATM    9  C   UNK N   1      33.091  13.618   9.042  0.00  0.00     0.183 A 
HETATM   10  N   UNK N   1      32.864  14.843   8.450  0.00  0.00    -0.337 N 
ATOM     11  HN  UNK N   1      32.258  14.907   7.633  1.00  0.00     0.168 HD
HETATM   12  C   UNK N   1      33.445  15.973   8.955  0.00  0.00     0.138 A 
ENDROOT
BRANCH   1  13
HETATM   13  C   UNK N   1      35.439  13.898  12.835  0.00  0.00     0.262 C 
HETATM   14  C   UNK N   1      36.775  13.165  12.789  0.00  0.00     0.199 C 
HETATM   15  C   UNK N   1      36.326  11.743  12.666  0.00  0.00     0.188 C 
HETATM   16  C   UNK N   1      34.981  11.777  13.371  0.00  0.00     0.231 C 
HETATM   17  O   UNK N   1      34.386  12.955  12.903  0.00  0.00    -0.347 OA
BRANCH  14  18
HETATM   18  O   UNK N   1      37.583  13.544  11.715  0.00  0.00    -0.388 OA
HETATM   19  H   UNK N   1      38.454  13.191  11.474  0.00  0.00     0.210 HD
ENDBRANCH  14  18
BRANCH  15  20
HETATM   20  O   UNK N   1      37.231  10.853  13.243  0.00  0.00    -0.390 OA
HETATM   21  H   UNK N   1      37.393   9.977  12.857  0.00  0.00     0.210 HD
ENDBRANCH  15  20
BRANCH  16  22
HETATM   22  C   UNK N   1      35.057  11.872  14.874  0.00  0.00     0.172 A 
HETATM   23  N   UNK N   1      34.823  12.974  15.609  0.00  0.00    -0.279 N 
HETATM   24  N   UNK N   1      34.969  12.615  16.877  0.00  0.00    -0.281 N 
ATOM     25  HN  UNK N   1      34.580  13.901  15.259  1.00  0.00     0.189 HD
HETATM   26  C   UNK N   1      35.287  11.304  16.874  0.00  0.00     0.148 A 
ATOM     27  HN  UNK N   1      34.864  13.215  17.695  1.00  0.00     0.189 HD
HETATM   28  O   UNK N   1      35.344  10.855  15.649  0.00  0.00    -0.279 OA
BRANCH  26  29
HETATM   29  C   UNK N   1      35.515  10.466  18.098  0.00  0.00     0.016 C 
HETATM   30  C   UNK N   1      35.605  11.355  19.321  0.00  0.00     0.023 C 
HETATM   31  C   UNK N   1      36.809   9.676  17.975  0.00  0.00     0.023 C 
HETATM   32  C   UNK N   1      34.370   9.488  18.267  0.00  0.00     0.023 C 
ENDBRANCH  26  29
ENDBRANCH  16  22
ENDBRANCH   1  13
BRANCH  12  33
HETATM   33  N   UNK N   1      33.061  17.271   8.517  0.00  0.00    -0.338 N 
HETATM   34  H   UNK N   1      33.042  18.039   9.133  0.00  0.00     0.167 HD
BRANCH  33  35
HETATM   35  C   UNK N   1      32.704  17.409   7.142  0.00  0.00     0.072 A 
HETATM   36  C   UNK N   1      33.725  17.548   6.179  0.00  0.00     0.034 A 
HETATM   37  C   UNK N   1      33.442  17.454   4.821  0.00  0.00     0.026 A 
HETATM   38  C   UNK N   1      32.134  17.217   4.406  0.00  0.00     0.037 A 
HETATM   39  C   UNK N   1      31.103  17.118   5.349  0.00  0.00     0.068 A 
HETATM   40 Cl   UNK N   1      31.806  16.979   2.705  0.00  0.00    -0.084 Cl
HETATM   41  C   UNK N   1      31.384  17.223   6.720  0.00  0.00     0.144 A 
HETATM   42  F   UNK N   1      30.393  17.043   7.626  0.00  0.00    -0.204 F 
ENDBRANCH  33  35
ENDBRANCH  12  33
TORSDOF 7
ENDMDL
MODEL 2
REMARK VINA RESULT:      -8.9      2.337      3.293
REMARK  7 active torsions:
REMARK  status: ('A' for Active; 'I' for Inactive)
REMARK    1  A    between atoms: C_2  and  C_5 
REMARK    2  A    between atoms: C_12  and  C_10 
REMARK    3  A    between atoms: C_13  and  O_39 
REMARK    4  A    between atoms: C_14  and  O_38 
REMARK    5  A    between atoms: C_15  and  N_17 
REMARK    6  A    between atoms: C_28  and  N_29 
REMARK    7  A    between atoms: N_29  and  C_30 
ROOT
HETATM    1  N   UNK N   1      34.855  15.578   9.293  0.00  0.00    -0.297 N 
HETATM    2  C   UNK N   1      34.212  16.744   9.519  0.00  0.00     0.188 A 
HETATM    3  N   UNK N   1      33.911  17.363   8.355  0.00  0.00    -0.346 N 
ATOM      4  HN  UNK N   1      33.432  18.256   8.229  1.00  0.00     0.167 HD
HETATM    5  C   UNK N   1      34.384  16.537   7.399  0.00  0.00     0.122 A 
HETATM    6  C   UNK N   1      34.983  15.485   7.963  0.00  0.00     0.142 A 
HETATM    7  N   UNK N   1      35.518  14.476   7.231  0.00  0.00    -0.336 N 
ATOM      8  HN  UNK N   1      35.954  13.671   7.681  1.00  0.00     0.168 HD
HETATM    9  C   UNK N   1      35.452  14.573   5.862  0.00  0.00     0.183 A 
HETATM   10  N   UNK N   1      34.786  15.621   5.262  0.00  0.00    -0.337 N 
ATOM     11  HN  UNK N   1      34.712  15.659   4.246  1.00  0.00     0.168 HD
HETATM   12  C   UNK N   1      34.222  16.608   6.022  0.00  0.00     0.138 A 
ENDROOT
BRANCH   1  13
HETATM   13  C   UNK N   1      35.134  14.601  10.321  0.00  0.00     0.262 C 
HETATM   14  C   UNK N   1      36.442  14.783  11.082  0.00  0.00     0.199 C 
HETATM   15  C   UNK N   1      37.170  13.528  10.720  0.00  0.00     0.188 C 
HETATM   16  C   UNK N   1      36.025  12.558  10.484  0.00  0.00     0.231 C 
HETATM   17  O   UNK N   1      35.096  13.306   9.750  0.00  0.00    -0.347 OA
BRANCH  14  18
HETATM   18  O   UNK N   1      37.155  15.921  10.701  0.00  0.00    -0.388 OA
HETATM   19  H   UNK N   1      37.374  16.694  11.245  0.00  0.00     0.210 HD
ENDBRANCH  14  18
BRANCH  15  20
HETATM   20  O   UNK N   1      38.044  13.117  11.725  0.00  0.00    -0.390 OA
HETATM   21  H   UNK N   1      38.952  12.840  11.522  0.00  0.00     0.210 HD
ENDBRANCH  15  20
BRANCH  16  22
HETATM   22  C   UNK N   1      35.335  12.078  11.735  0.00  0.00     0.172 A 
HETATM   23  N   UNK N   1      34.176  11.396  11.787  0.00  0.00    -0.279 N 
HETATM   24  N   UNK N   1      33.945  11.149  13.069  0.00  0.00    -0.281 N 
ATOM     25  HN  UNK N   1      33.592  11.125  10.997  1.00  0.00     0.189 HD
HETATM   26  C   UNK N   1      34.973  11.686  13.758  0.00  0.00     0.148 A 
ATOM     27  HN  UNK N   1      33.145  10.651  13.458  1.00  0.00     0.189 HD
HETATM   28  O   UNK N   1      35.817  12.256  12.940  0.00  0.00    -0.279 OA
BRANCH  26  29
HETATM   29  C   UNK N   1      35.146  11.619  15.248  0.00  0.00     0.016 C 
HETATM   30  C   UNK N   1      36.621  11.585  15.593  0.00  0.00     0.023 C 
HETATM   31  C   UNK N   1      34.485  10.371  15.810  0.00  0.00     0.023 C 
HETATM   32  C   UNK N   1      34.506  12.833  15.890  0.00  0.00     0.023 C 
ENDBRANCH  26  29
ENDBRANCH  16  22
ENDBRANCH   1  13
BRANCH  12  33
HETATM   33  N   UNK N   1      33.341  17.573   5.459  0.00  0.00    -0.338 N 
HETATM   34  H   UNK N   1      33.582  18.527   5.415  0.00  0.00     0.167 HD
BRANCH  33  35
HETATM   35  C   UNK N   1      32.093  17.095   4.960  0.00  0.00     0.072 A 
HETATM   36  C   UNK N   1      30.970  17.090   5.814  0.00  0.00     0.034 A 
HETATM   37  C   UNK N   1      29.695  16.854   5.312  0.00  0.00     0.026 A 
HETATM   38  C   UNK N   1      29.523  16.623   3.950  0.00  0.00     0.037 A 
HETATM   39  C   UNK N   1      30.634  16.584   3.097  0.00  0.00     0.068 A 
HETATM   40 Cl   UNK N   1      27.906  16.447   3.308  0.00  0.00    -0.084 Cl
HETATM   41  C   UNK N   1      31.923  16.811   3.601  0.00  0.00     0.144 A 
HETATM   42  F   UNK N   1      32.980  16.854   2.755  0.00  0.00    -0.204 F 
ENDBRANCH  33  35
ENDBRANCH  12  33
TORSDOF 7
ENDMDL
MODEL 3
REMARK VINA RESULT:      -8.9      2.785      4.466
REMARK  7 active torsions:
REMARK  status: ('A' for Active; 'I' for Inactive)
REMARK    1  A    between atoms: C_2  and  C_5 
REMARK    2  A    between atoms: C_12  and  C_10 
REMARK    3  A    between atoms: C_13  and  O_39 
REMARK    4  A    between atoms: C_14  and  O_38 
REMARK    5  A    between atoms: C_15  and  N_17 
REMARK    6  A    between atoms: C_28  and  N_29 
REMARK    7  A    between atoms: N_29  and  C_30 
ROOT
HETATM    1  N   UNK N   1      33.029  15.226   8.493  0.00  0.00    -0.297 N 
HETATM    2  C   UNK N   1      33.464  14.986   7.236  0.00  0.00     0.188 A 
HETATM    3  N   UNK N   1      32.664  15.585   6.326  0.00  0.00    -0.346 N 
ATOM      4  HN  UNK N   1      32.755  15.568   5.309  1.00  0.00     0.167 HD
HETATM    5  C   UNK N   1      31.722  16.211   7.061  0.00  0.00     0.122 A 
HETATM    6  C   UNK N   1      31.920  15.965   8.359  0.00  0.00     0.142 A 
HETATM    7  N   UNK N   1      31.137  16.503   9.327  0.00  0.00    -0.336 N 
ATOM      8  HN  UNK N   1      31.317  16.318  10.314  1.00  0.00     0.168 HD
HETATM    9  C   UNK N   1      30.094  17.306   8.935  0.00  0.00     0.183 A 
HETATM   10  N   UNK N   1      29.910  17.621   7.605  0.00  0.00    -0.337 N 
ATOM     11  HN  UNK N   1      29.154  18.249   7.333  1.00  0.00     0.168 HD
HETATM   12  C   UNK N   1      30.735  17.096   6.650  0.00  0.00     0.138 A 
ENDROOT
BRANCH   1  13
HETATM   13  C   UNK N   1      33.778  14.886   9.682  0.00  0.00     0.262 C 
HETATM   14  C   UNK N   1      34.547  16.026  10.338  0.00  0.00     0.199 C 
HETATM   15  C   UNK N   1      35.958  15.545  10.202  0.00  0.00     0.188 C 
HETATM   16  C   UNK N   1      35.777  14.037  10.209  0.00  0.00     0.231 C 
HETATM   17  O   UNK N   1      34.668  13.827   9.380  0.00  0.00    -0.347 OA
BRANCH  14  18
HETATM   18  O   UNK N   1      34.361  17.259   9.710  0.00  0.00    -0.388 OA
HETATM   19  H   UNK N   1      33.598  17.549   9.186  0.00  0.00     0.210 HD
ENDBRANCH  14  18
BRANCH  15  20
HETATM   20  O   UNK N   1      36.775  16.009  11.232  0.00  0.00    -0.390 OA
HETATM   21  H   UNK N   1      37.716  15.779  11.270  0.00  0.00     0.210 HD
ENDBRANCH  15  20
BRANCH  16  22
HETATM   22  C   UNK N   1      35.455  13.445  11.558  0.00  0.00     0.172 A 
HETATM   23  N   UNK N   1      34.508  12.524  11.811  0.00  0.00    -0.279 N 
HETATM   24  N   UNK N   1      34.578  12.262  13.109  0.00  0.00    -0.281 N 
ATOM     25  HN  UNK N   1      33.863  12.110  11.138  1.00  0.00     0.189 HD
HETATM   26  C   UNK N   1      35.570  13.031  13.605  0.00  0.00     0.148 A 
ATOM     27  HN  UNK N   1      33.996  11.608  13.630  1.00  0.00     0.189 HD
HETATM   28  O   UNK N   1      36.099  13.755  12.655  0.00  0.00    -0.279 OA
BRANCH  26  29
HETATM   29  C   UNK N   1      36.026  13.040  15.035  0.00  0.00     0.016 C 
HETATM   30  C   UNK N   1      36.792  11.770  15.338  0.00  0.00     0.023 C 
HETATM   31  C   UNK N   1      34.836  13.128  15.977  0.00  0.00     0.023 C 
HETATM   32  C   UNK N   1      36.920  14.240  15.277  0.00  0.00     0.023 C 
ENDBRANCH  26  29
ENDBRANCH  16  22
ENDBRANCH   1  13
BRANCH  12  33
HETATM   33  N   UNK N   1      30.720  17.570   5.308  0.00  0.00    -0.338 N 
HETATM   34  H   UNK N   1      31.459  18.108   4.942  0.00  0.00     0.167 HD
BRANCH  33  35
HETATM   35  C   UNK N   1      29.583  17.228   4.516  0.00  0.00     0.072 A 
HETATM   36  C   UNK N   1      29.483  15.924   3.988  0.00  0.00     0.034 A 
HETATM   37  C   UNK N   1      28.299  15.478   3.411  0.00  0.00     0.026 A 
HETATM   38  C   UNK N   1      27.197  16.328   3.356  0.00  0.00     0.037 A 
HETATM   39  C   UNK N   1      27.296  17.639   3.839  0.00  0.00     0.068 A 
HETATM   40 Cl   UNK N   1      25.677  15.721   2.740  0.00  0.00    -0.084 Cl
HETATM   41  C   UNK N   1      28.492  18.096   4.412  0.00  0.00     0.144 A 
HETATM   42  F   UNK N   1      28.550  19.338   4.950  0.00  0.00    -0.204 F 
ENDBRANCH  33  35
ENDBRANCH  12  33
TORSDOF 7
ENDMDL
MODEL 4
REMARK VINA RESULT:      -8.5      4.648      9.923
REMARK  7 active torsions:
REMARK  status: ('A' for Active; 'I' for Inactive)
REMARK    1  A    between atoms: C_2  and  C_5 
REMARK    2  A    between atoms: C_12  and  C_10 
REMARK    3  A    between atoms: C_13  and  O_39 
REMARK    4  A    between atoms: C_14  and  O_38 
REMARK    5  A    between atoms: C_15  and  N_17 
REMARK    6  A    between atoms: C_28  and  N_29 
REMARK    7  A    between atoms: N_29  and  C_30 
ROOT
HETATM    1  N   UNK N   1      34.335  15.221  10.435  0.00  0.00    -0.297 N 
HETATM    2  C   UNK N   1      35.059  15.969  11.297  0.00  0.00     0.188 A 
HETATM    3  N   UNK N   1      35.757  15.184  12.149  0.00  0.00    -0.346 N 
ATOM      4  HN  UNK N   1      36.380  15.481  12.901  1.00  0.00     0.167 HD
HETATM    5  C   UNK N   1      35.446  13.924  11.781  0.00  0.00     0.122 A 
HETATM    6  C   UNK N   1      34.565  13.947  10.777  0.00  0.00     0.142 A 
HETATM    7  N   UNK N   1      34.108  12.814  10.188  0.00  0.00    -0.336 N 
ATOM      8  HN  UNK N   1      33.450  12.853   9.409  1.00  0.00     0.168 HD
HETATM    9  C   UNK N   1      34.560  11.611  10.673  0.00  0.00     0.183 A 
HETATM   10  N   UNK N   1      35.515  11.568  11.668  0.00  0.00    -0.337 N 
ATOM     11  HN  UNK N   1      35.869  10.668  11.991  1.00  0.00     0.168 HD
HETATM   12  C   UNK N   1      35.989  12.724  12.221  0.00  0.00     0.138 A 
ENDROOT
BRANCH   1  13
HETATM   13  C   UNK N   1      33.643  15.761   9.287  0.00  0.00     0.262 C 
HETATM   14  C   UNK N   1      34.265  15.463   7.928  0.00  0.00     0.199 C 
HETATM   15  C   UNK N   1      34.603  16.840   7.451  0.00  0.00     0.188 C 
HETATM   16  C   UNK N   1      33.547  17.681   8.147  0.00  0.00     0.231 C 
HETATM   17  O   UNK N   1      33.505  17.161   9.447  0.00  0.00    -0.347 OA
BRANCH  14  18
HETATM   18  O   UNK N   1      35.398  14.650   7.998  0.00  0.00    -0.388 OA
HETATM   19  H   UNK N   1      35.433  13.680   8.006  0.00  0.00     0.210 HD
ENDBRANCH  14  18
BRANCH  15  20
HETATM   20  O   UNK N   1      34.563  16.941   6.061  0.00  0.00    -0.390 OA
HETATM   21  H   UNK N   1      35.131  17.566   5.584  0.00  0.00     0.210 HD
ENDBRANCH  15  20
BRANCH  16  22
HETATM   22  C   UNK N   1      32.160  17.563   7.566  0.00  0.00     0.172 A 
HETATM   23  N   UNK N   1      31.855  17.108   6.338  0.00  0.00    -0.279 N 
HETATM   24  N   UNK N   1      30.532  17.144   6.245  0.00  0.00    -0.281 N 
ATOM     25  HN  UNK N   1      32.510  16.797   5.621  1.00  0.00     0.189 HD
HETATM   26  C   UNK N   1      30.075  17.619   7.422  0.00  0.00     0.148 A 
ATOM     27  HN  UNK N   1      29.971  16.868   5.440  1.00  0.00     0.189 HD
HETATM   28  O   UNK N   1      31.072  17.878   8.224  0.00  0.00    -0.279 OA
BRANCH  26  29
HETATM   29  C   UNK N   1      28.628  17.800   7.779  0.00  0.00     0.016 C 
HETATM   30  C   UNK N   1      28.188  19.209   7.442  0.00  0.00     0.023 C 
HETATM   31  C   UNK N   1      28.407  17.562   9.264  0.00  0.00     0.023 C 
HETATM   32  C   UNK N   1      27.784  16.808   7.003  0.00  0.00     0.023 C 
ENDBRANCH  26  29
ENDBRANCH  16  22
ENDBRANCH   1  13
BRANCH  12  33
HETATM   33  N   UNK N   1      37.125  12.731  13.079  0.00  0.00    -0.338 N 
HETATM   34  H   UNK N   1      38.012  13.011  12.758  0.00  0.00     0.167 HD
BRANCH  33  35
HETATM   35  C   UNK N   1      36.917  12.312  14.427  0.00  0.00     0.072 A 
HETATM   36  C   UNK N   1      36.197  13.152  15.303  0.00  0.00     0.034 A 
HETATM   37  C   UNK N   1      35.774  12.691  16.545  0.00  0.00     0.026 A 
HETATM   38  C   UNK N   1      36.062  11.384  16.929  0.00  0.00     0.037 A 
HETATM   39  C   UNK N   1      36.812  10.552  16.087  0.00  0.00     0.068 A 
HETATM   40 Cl   UNK N   1      35.424  10.774  18.439  0.00  0.00    -0.084 Cl
HETATM   41  C   UNK N   1      37.250  11.017  14.838  0.00  0.00     0.144 A 
HETATM   42  F   UNK N   1      37.903  10.179  13.997  0.00  0.00    -0.204 F 
ENDBRANCH  33  35
ENDBRANCH  12  33
TORSDOF 7
ENDMDL
MODEL 5
REMARK VINA RESULT:      -8.5      2.986      4.553
REMARK  7 active torsions:
REMARK  status: ('A' for Active; 'I' for Inactive)
REMARK    1  A    between atoms: C_2  and  C_5 
REMARK    2  A    between atoms: C_12  and  C_10 
REMARK    3  A    between atoms: C_13  and  O_39 
REMARK    4  A    between atoms: C_14  and  O_38 
REMARK    5  A    between atoms: C_15  and  N_17 
REMARK    6  A    between atoms: C_28  and  N_29 
REMARK    7  A    between atoms: N_29  and  C_30 
ROOT
HETATM    1  N   UNK N   1      32.934  15.994   8.795  0.00  0.00    -0.297 N 
HETATM    2  C   UNK N   1      31.665  16.410   8.998  0.00  0.00     0.188 A 
HETATM    3  N   UNK N   1      31.069  16.734   7.828  0.00  0.00    -0.346 N 
ATOM      4  HN  UNK N   1      30.120  17.080   7.687  1.00  0.00     0.167 HD
HETATM    5  C   UNK N   1      32.011  16.497   6.891  0.00  0.00     0.122 A 
HETATM    6  C   UNK N   1      33.141  16.088   7.475  0.00  0.00     0.142 A 
HETATM    7  N   UNK N   1      34.242  15.744   6.762  0.00  0.00    -0.336 N 
ATOM      8  HN  UNK N   1      35.089  15.415   7.225  1.00  0.00     0.168 HD
HETATM    9  C   UNK N   1      34.179  15.851   5.394  0.00  0.00     0.183 A 
HETATM   10  N   UNK N   1      33.004  16.214   4.770  0.00  0.00    -0.337 N 
ATOM     11  HN  UNK N   1      32.962  16.252   3.752  1.00  0.00     0.168 HD
HETATM   12  C   UNK N   1      31.895  16.520   5.508  0.00  0.00     0.138 A 
ENDROOT
BRANCH   1  13
HETATM   13  C   UNK N   1      33.759  15.398   9.821  0.00  0.00     0.262 C 
HETATM   14  C   UNK N   1      34.873  16.277  10.379  0.00  0.00     0.199 C 
HETATM   15  C   UNK N   1      36.088  15.500   9.982  0.00  0.00     0.188 C 
HETATM   16  C   UNK N   1      35.556  14.077   9.960  0.00  0.00     0.231 C 
HETATM   17  O   UNK N   1      34.312  14.192   9.328  0.00  0.00    -0.347 OA
BRANCH  14  18
HETATM   18  O   UNK N   1      34.888  17.566   9.843  0.00  0.00    -0.388 OA
HETATM   19  H   UNK N   1      34.588  17.847   8.964  0.00  0.00     0.210 HD
ENDBRANCH  14  18
BRANCH  15  20
HETATM   20  O   UNK N   1      37.145  15.682  10.872  0.00  0.00    -0.390 OA
HETATM   21  H   UNK N   1      37.001  15.682  11.832  0.00  0.00     0.210 HD
ENDBRANCH  15  20
BRANCH  16  22
HETATM   22  C   UNK N   1      35.321  13.469  11.319  0.00  0.00     0.172 A 
HETATM   23  N   UNK N   1      34.413  12.522  11.615  0.00  0.00    -0.279 N 
HETATM   24  N   UNK N   1      34.559  12.254  12.906  0.00  0.00    -0.281 N 
ATOM     25  HN  UNK N   1      33.744  12.095  10.974  1.00  0.00     0.189 HD
HETATM   26  C   UNK N   1      35.555  13.046  13.354  0.00  0.00     0.148 A 
ATOM     27  HN  UNK N   1      34.022  11.581  13.452  1.00  0.00     0.189 HD
HETATM   28  O   UNK N   1      36.014  13.789  12.384  0.00  0.00    -0.279 OA
BRANCH  26  29
HETATM   29  C   UNK N   1      36.085  13.059  14.759  0.00  0.00     0.016 C 
HETATM   30  C   UNK N   1      36.837  14.348  15.013  0.00  0.00     0.023 C 
HETATM   31  C   UNK N   1      37.030  11.890  14.987  0.00  0.00     0.023 C 
HETATM   32  C   UNK N   1      34.934  12.944  15.739  0.00  0.00     0.023 C 
ENDBRANCH  26  29
ENDBRANCH  16  22
ENDBRANCH   1  13
BRANCH  12  33
HETATM   33  N   UNK N   1      30.615  16.676   4.905  0.00  0.00    -0.338 N 
HETATM   34  H   UNK N   1      30.131  17.532   4.936  0.00  0.00     0.167 HD
BRANCH  33  35
HETATM   35  C   UNK N   1      30.067  15.532   4.251  0.00  0.00     0.072 A 
HETATM   36  C   UNK N   1      29.670  14.424   5.027  0.00  0.00     0.034 A 
HETATM   37  C   UNK N   1      28.925  13.392   4.466  0.00  0.00     0.026 A 
HETATM   38  C   UNK N   1      28.564  13.454   3.123  0.00  0.00     0.037 A 
HETATM   39  C   UNK N   1      28.986  14.529   2.330  0.00  0.00     0.068 A 
HETATM   40 Cl   UNK N   1      27.527  12.214   2.457  0.00  0.00    -0.084 Cl
HETATM   41  C   UNK N   1      29.747  15.567   2.890  0.00  0.00     0.144 A 
HETATM   42  F   UNK N   1      30.079  16.642   2.135  0.00  0.00    -0.204 F 
ENDBRANCH  33  35
ENDBRANCH  12  33
TORSDOF 7
ENDMDL
MODEL 6
REMARK VINA RESULT:      -8.5      4.497      9.644
REMARK  7 active torsions:
REMARK  status: ('A' for Active; 'I' for Inactive)
REMARK    1  A    between atoms: C_2  and  C_5 
REMARK    2  A    between atoms: C_12  and  C_10 
REMARK    3  A    between atoms: C_13  and  O_39 
REMARK    4  A    between atoms: C_14  and  O_38 
REMARK    5  A    between atoms: C_15  and  N_17 
REMARK    6  A    between atoms: C_28  and  N_29 
REMARK    7  A    between atoms: N_29  and  C_30 
ROOT
HETATM    1  N   UNK N   1      34.134  13.838   8.825  0.00  0.00    -0.297 N 
HETATM    2  C   UNK N   1      33.628  12.599   9.010  0.00  0.00     0.188 A 
HETATM    3  N   UNK N   1      34.406  11.880   9.850  0.00  0.00    -0.346 N 
ATOM      4  HN  UNK N   1      34.265  10.918  10.161  1.00  0.00     0.167 HD
HETATM    5  C   UNK N   1      35.408  12.718  10.185  0.00  0.00     0.122 A 
HETATM    6  C   UNK N   1      35.264  13.880   9.541  0.00  0.00     0.142 A 
HETATM    7  N   UNK N   1      36.116  14.920   9.722  0.00  0.00    -0.336 N 
ATOM      8  HN  UNK N   1      35.978  15.806   9.236  1.00  0.00     0.168 HD
HETATM    9  C   UNK N   1      37.171  14.742  10.583  0.00  0.00     0.183 A 
HETATM   10  N   UNK N   1      37.303  13.572  11.303  0.00  0.00    -0.337 N 
ATOM     11  HN  UNK N   1      38.070  13.469  11.967  1.00  0.00     0.168 HD
HETATM   12  C   UNK N   1      36.410  12.551  11.131  0.00  0.00     0.138 A 
ENDROOT
BRANCH   1  13
HETATM   13  C   UNK N   1      33.431  14.900   8.140  0.00  0.00     0.262 C 
HETATM   14  C   UNK N   1      34.102  15.447   6.886  0.00  0.00     0.199 C 
HETATM   15  C   UNK N   1      34.355  16.867   7.284  0.00  0.00     0.188 C 
HETATM   16  C   UNK N   1      33.228  17.122   8.271  0.00  0.00     0.231 C 
HETATM   17  O   UNK N   1      33.194  15.958   9.049  0.00  0.00    -0.347 OA
BRANCH  14  18
HETATM   18  O   UNK N   1      35.287  14.787   6.553  0.00  0.00    -0.388 OA
HETATM   19  H   UNK N   1      36.189  15.146   6.562  0.00  0.00     0.210 HD
ENDBRANCH  14  18
BRANCH  15  20
HETATM   20  O   UNK N   1      34.339  17.732   6.190  0.00  0.00    -0.390 OA
HETATM   21  H   UNK N   1      34.536  18.676   6.292  0.00  0.00     0.210 HD
ENDBRANCH  15  20
BRANCH  16  22
HETATM   22  C   UNK N   1      31.867  17.290   7.645  0.00  0.00     0.172 A 
HETATM   23  N   UNK N   1      31.586  17.218   6.332  0.00  0.00    -0.279 N 
HETATM   24  N   UNK N   1      30.276  17.394   6.219  0.00  0.00    -0.281 N 
ATOM     25  HN  UNK N   1      32.249  17.059   5.574  1.00  0.00     0.189 HD
HETATM   26  C   UNK N   1      29.801  17.566   7.470  0.00  0.00     0.148 A 
ATOM     27  HN  UNK N   1      29.735  17.399   5.356  1.00  0.00     0.189 HD
HETATM   28  O   UNK N   1      30.776  17.506   8.337  0.00  0.00    -0.279 OA
BRANCH  26  29
HETATM   29  C   UNK N   1      28.357  17.769   7.827  0.00  0.00     0.016 C 
HETATM   30  C   UNK N   1      27.493  16.800   7.047  0.00  0.00     0.023 C 
HETATM   31  C   UNK N   1      27.916  19.187   7.499  0.00  0.00     0.023 C 
HETATM   32  C   UNK N   1      28.162  17.537   9.312  0.00  0.00     0.023 C 
ENDBRANCH  26  29
ENDBRANCH  16  22
ENDBRANCH   1  13
BRANCH  12  33
HETATM   33  N   UNK N   1      36.379  11.431  12.009  0.00  0.00    -0.338 N 
HETATM   34  H   UNK N   1      36.593  10.523  11.694  0.00  0.00     0.167 HD
BRANCH  33  35
HETATM   35  C   UNK N   1      36.024  11.685  13.367  0.00  0.00     0.072 A 
HETATM   36  C   UNK N   1      36.958  12.319  14.213  0.00  0.00     0.034 A 
HETATM   37  C   UNK N   1      36.580  12.790  15.465  0.00  0.00     0.026 A 
HETATM   38  C   UNK N   1      35.262  12.639  15.889  0.00  0.00     0.037 A 
HETATM   39  C   UNK N   1      34.334  11.974  15.076  0.00  0.00     0.068 A 
HETATM   40 Cl   UNK N   1      34.766  13.341  17.411  0.00  0.00    -0.084 Cl
HETATM   41  C   UNK N   1      34.715  11.487  13.817  0.00  0.00     0.144 A 
HETATM   42  F   UNK N   1      33.789  10.921  13.005  0.00  0.00    -0.204 F 
ENDBRANCH  33  35
ENDBRANCH  12  33
TORSDOF 7
ENDMDL
MODEL 7
REMARK VINA RESULT:      -8.3      4.596     10.126
REMARK  7 active torsions:
REMARK  status: ('A' for Active; 'I' for Inactive)
REMARK    1  A    between atoms: C_2  and  C_5 
REMARK    2  A    between atoms: C_12  and  C_10 
REMARK    3  A    between atoms: C_13  and  O_39 
REMARK    4  A    between atoms: C_14  and  O_38 
REMARK    5  A    between atoms: C_15  and  N_17 
REMARK    6  A    between atoms: C_28  and  N_29 
REMARK    7  A    between atoms: N_29  and  C_30 
ROOT
HETATM    1  N   UNK N   1      34.605  14.053   9.298  0.00  0.00    -0.297 N 
HETATM    2  C   UNK N   1      34.609  12.737   8.991  0.00  0.00     0.188 A 
HETATM    3  N   UNK N   1      35.332  12.033   9.891  0.00  0.00    -0.346 N 
ATOM      4  HN  UNK N   1      35.505  11.027   9.902  1.00  0.00     0.167 HD
HETATM    5  C   UNK N   1      35.771  12.957  10.771  0.00  0.00     0.122 A 
HETATM    6  C   UNK N   1      35.365  14.173  10.394  0.00  0.00     0.142 A 
HETATM    7  N   UNK N   1      35.637  15.285  11.121  0.00  0.00    -0.336 N 
ATOM      8  HN  UNK N   1      35.302  16.202  10.826  1.00  0.00     0.168 HD
HETATM    9  C   UNK N   1      36.377  15.137  12.268  0.00  0.00     0.183 A 
HETATM   10  N   UNK N   1      36.753  13.884  12.706  0.00  0.00    -0.337 N 
ATOM     11  HN  UNK N   1      37.270  13.786  13.579  1.00  0.00     0.168 HD
HETATM   12  C   UNK N   1      36.436  12.773  11.976  0.00  0.00     0.138 A 
ENDROOT
BRANCH   1  13
HETATM   13  C   UNK N   1      33.766  15.029   8.641  0.00  0.00     0.262 C 
HETATM   14  C   UNK N   1      34.313  15.620   7.347  0.00  0.00     0.199 C 
HETATM   15  C   UNK N   1      34.445  17.064   7.716  0.00  0.00     0.188 C 
HETATM   16  C   UNK N   1      33.352  17.222   8.759  0.00  0.00     0.231 C 
HETATM   17  O   UNK N   1      33.474  16.074   9.551  0.00  0.00    -0.347 OA
BRANCH  14  18
HETATM   18  O   UNK N   1      35.538  15.075   6.958  0.00  0.00    -0.388 OA
HETATM   19  H   UNK N   1      36.385  15.535   6.850  0.00  0.00     0.210 HD
ENDBRANCH  14  18
BRANCH  15  20
HETATM   20  O   UNK N   1      34.286  17.906   6.616  0.00  0.00    -0.390 OA
HETATM   21  H   UNK N   1      33.430  17.992   6.167  0.00  0.00     0.210 HD
ENDBRANCH  15  20
BRANCH  16  22
HETATM   22  C   UNK N   1      31.949  17.247   8.207  0.00  0.00     0.172 A 
HETATM   23  N   UNK N   1      30.822  17.421   8.919  0.00  0.00    -0.279 N 
HETATM   24  N   UNK N   1      29.823  17.404   8.048  0.00  0.00    -0.281 N 
ATOM     25  HN  UNK N   1      30.751  17.541   9.930  1.00  0.00     0.189 HD
HETATM   26  C   UNK N   1      30.375  17.222   6.830  0.00  0.00     0.148 A 
ATOM     27  HN  UNK N   1      28.830  17.507   8.258  1.00  0.00     0.189 HD
HETATM   28  O   UNK N   1      31.673  17.122   6.932  0.00  0.00    -0.279 OA
BRANCH  26  29
HETATM   29  C   UNK N   1      29.617  17.170   5.536  0.00  0.00     0.016 C 
HETATM   30  C   UNK N   1      28.832  15.877   5.451  0.00  0.00     0.023 C 
HETATM   31  C   UNK N   1      30.569  17.240   4.352  0.00  0.00     0.023 C 
HETATM   32  C   UNK N   1      28.663  18.345   5.456  0.00  0.00     0.023 C 
ENDBRANCH  26  29
ENDBRANCH  16  22
ENDBRANCH   1  13
BRANCH  12  33
HETATM   33  N   UNK N   1      36.605  11.460  12.501  0.00  0.00    -0.338 N 
HETATM   34  H   UNK N   1      37.059  10.754  11.987  0.00  0.00     0.167 HD
BRANCH  33  35
HETATM   35  C   UNK N   1      36.087  11.216  13.807  0.00  0.00     0.072 A 
HETATM   36  C   UNK N   1      34.712  10.942  13.959  0.00  0.00     0.034 A 
HETATM   37  C   UNK N   1      34.208  10.476  15.168  0.00  0.00     0.026 A 
HETATM   38  C   UNK N   1      35.071  10.273  16.242  0.00  0.00     0.037 A 
HETATM   39  C   UNK N   1      36.432  10.580  16.117  0.00  0.00     0.068 A 
HETATM   40 Cl   UNK N   1      34.450   9.572  17.719  0.00  0.00    -0.084 Cl
HETATM   41  C   UNK N   1      36.942  11.061  14.902  0.00  0.00     0.144 A 
HETATM   42  F   UNK N   1      38.273  11.276  14.769  0.00  0.00    -0.204 F 
ENDBRANCH  33  35
ENDBRANCH  12  33
TORSDOF 7
ENDMDL
MODEL 8
REMARK VINA RESULT:      -8.2      5.458     10.958
REMARK  7 active torsions:
REMARK  status: ('A' for Active; 'I' for Inactive)
REMARK    1  A    between atoms: C_2  and  C_5 
REMARK    2  A    between atoms: C_12  and  C_10 
REMARK    3  A    between atoms: C_13  and  O_39 
REMARK    4  A    between atoms: C_14  and  O_38 
REMARK    5  A    between atoms: C_15  and  N_17 
REMARK    6  A    between atoms: C_28  and  N_29 
REMARK    7  A    between atoms: N_29  and  C_30 
ROOT
HETATM    1  N   UNK N   1      32.132  17.325   8.395  0.00  0.00    -0.297 N 
HETATM    2  C   UNK N   1      33.174  18.157   8.615  0.00  0.00     0.188 A 
HETATM    3  N   UNK N   1      34.255  17.474   9.052  0.00  0.00    -0.346 N 
ATOM      4  HN  UNK N   1      35.172  17.848   9.297  1.00  0.00     0.167 HD
HETATM    5  C   UNK N   1      33.851  16.187   9.089  0.00  0.00     0.122 A 
HETATM    6  C   UNK N   1      32.567  16.103   8.731  0.00  0.00     0.142 A 
HETATM    7  N   UNK N   1      31.914  14.917   8.646  0.00  0.00    -0.336 N 
ATOM      8  HN  UNK N   1      30.938  14.873   8.352  1.00  0.00     0.168 HD
HETATM    9  C   UNK N   1      32.609  13.778   8.969  0.00  0.00     0.183 A 
HETATM   10  N   UNK N   1      33.951  13.838   9.283  0.00  0.00    -0.337 N 
ATOM     11  HN  UNK N   1      34.463  12.979   9.483  1.00  0.00     0.168 HD
HETATM   12  C   UNK N   1      34.598  15.041   9.326  0.00  0.00     0.138 A 
ENDROOT
BRANCH   1  13
HETATM   13  C   UNK N   1      30.906  17.725   7.744  0.00  0.00     0.262 C 
HETATM   14  C   UNK N   1      29.777  18.178   8.663  0.00  0.00     0.199 C 
HETATM   15  C   UNK N   1      28.732  17.147   8.374  0.00  0.00     0.188 C 
HETATM   16  C   UNK N   1      29.054  16.767   6.939  0.00  0.00     0.231 C 
HETATM   17  O   UNK N   1      30.451  16.665   6.924  0.00  0.00    -0.347 OA
BRANCH  14  18
HETATM   18  O   UNK N   1      30.127  18.191  10.014  0.00  0.00    -0.388 OA
HETATM   19  H   UNK N   1      29.559  17.996  10.776  0.00  0.00     0.210 HD
ENDBRANCH  14  18
BRANCH  15  20
HETATM   20  O   UNK N   1      27.440  17.646   8.537  0.00  0.00    -0.390 OA
HETATM   21  H   UNK N   1      27.181  18.120   9.343  0.00  0.00     0.210 HD
ENDBRANCH  15  20
BRANCH  16  22
HETATM   22  C   UNK N   1      28.662  17.796   5.909  0.00  0.00     0.172 A 
HETATM   23  N   UNK N   1      29.369  18.125   4.813  0.00  0.00    -0.279 N 
HETATM   24  N   UNK N   1      28.657  19.042   4.171  0.00  0.00    -0.281 N 
ATOM     25  HN  UNK N   1      30.272  17.745   4.531  1.00  0.00     0.189 HD
HETATM   26  C   UNK N   1      27.537  19.240   4.897  0.00  0.00     0.148 A 
ATOM     27  HN  UNK N   1      28.909  19.508   3.300  1.00  0.00     0.189 HD
HETATM   28  O   UNK N   1      27.547  18.480   5.959  0.00  0.00    -0.279 OA
BRANCH  26  29
HETATM   29  C   UNK N   1      26.422  20.176   4.531  0.00  0.00     0.016 C 
HETATM   30  C   UNK N   1      26.633  20.703   3.127  0.00  0.00     0.023 C 
HETATM   31  C   UNK N   1      26.372  21.354   5.490  0.00  0.00     0.023 C 
HETATM   32  C   UNK N   1      25.098  19.442   4.601  0.00  0.00     0.023 C 
ENDBRANCH  26  29
ENDBRANCH  16  22
ENDBRANCH   1  13
BRANCH  12  33
HETATM   33  N   UNK N   1      36.016  15.124   9.421  0.00  0.00    -0.338 N 
HETATM   34  H   UNK N   1      36.539  15.711   8.829  0.00  0.00     0.167 HD
BRANCH  33  35
HETATM   35  C   UNK N   1      36.644  14.318  10.417  0.00  0.00     0.072 A 
HETATM   36  C   UNK N   1      36.229  14.438  11.759  0.00  0.00     0.034 A 
HETATM   37  C   UNK N   1      36.644  13.521  12.718  0.00  0.00     0.026 A 
HETATM   38  C   UNK N   1      37.476  12.467  12.349  0.00  0.00     0.037 A 
HETATM   39  C   UNK N   1      37.928  12.358  11.027  0.00  0.00     0.068 A 
HETATM   40 Cl   UNK N   1      37.894  11.250  13.533  0.00  0.00    -0.084 Cl
HETATM   41  C   UNK N   1      37.521  13.288  10.059  0.00  0.00     0.144 A 
HETATM   42  F   UNK N   1      37.898  13.126   8.768  0.00  0.00    -0.204 F 
ENDBRANCH  33  35
ENDBRANCH  12  33
TORSDOF 7
ENDMDL
MODEL 9
REMARK VINA RESULT:      -8.1      3.811      6.068
REMARK  7 active torsions:
REMARK  status: ('A' for Active; 'I' for Inactive)
REMARK    1  A    between atoms: C_2  and  C_5 
REMARK    2  A    between atoms: C_12  and  C_10 
REMARK    3  A    between atoms: C_13  and  O_39 
REMARK    4  A    between atoms: C_14  and  O_38 
REMARK    5  A    between atoms: C_15  and  N_17 
REMARK    6  A    between atoms: C_28  and  N_29 
REMARK    7  A    between atoms: N_29  and  C_30 
ROOT
HETATM    1  N   UNK N   1      32.238  16.646   7.894  0.00  0.00    -0.297 N 
HETATM    2  C   UNK N   1      31.713  17.709   8.541  0.00  0.00     0.188 A 
HETATM    3  N   UNK N   1      30.440  17.935   8.145  0.00  0.00    -0.346 N 
ATOM      4  HN  UNK N   1      29.809  18.671   8.465  1.00  0.00     0.167 HD
HETATM    5  C   UNK N   1      30.192  16.972   7.234  0.00  0.00     0.122 A 
HETATM    6  C   UNK N   1      31.283  16.221   7.057  0.00  0.00     0.142 A 
HETATM    7  N   UNK N   1      31.301  15.154   6.220  0.00  0.00    -0.336 N 
ATOM      8  HN  UNK N   1      32.139  14.582   6.113  1.00  0.00     0.168 HD
HETATM    9  C   UNK N   1      30.154  14.868   5.521  0.00  0.00     0.183 A 
HETATM   10  N   UNK N   1      29.000  15.593   5.735  0.00  0.00    -0.337 N 
ATOM     11  HN  UNK N   1      28.146  15.345   5.237  1.00  0.00     0.168 HD
HETATM   12  C   UNK N   1      28.995  16.642   6.611  0.00  0.00     0.138 A 
ENDROOT
BRANCH   1  13
HETATM   13  C   UNK N   1      33.504  16.040   8.239  0.00  0.00     0.262 C 
HETATM   14  C   UNK N   1      34.693  16.430   7.369  0.00  0.00     0.199 C 
HETATM   15  C   UNK N   1      35.061  15.112   6.765  0.00  0.00     0.188 C 
HETATM   16  C   UNK N   1      34.607  14.137   7.838  0.00  0.00     0.231 C 
HETATM   17  O   UNK N   1      33.358  14.632   8.234  0.00  0.00    -0.347 OA
BRANCH  14  18
HETATM   18  O   UNK N   1      34.382  17.376   6.390  0.00  0.00    -0.388 OA
HETATM   19  H   UNK N   1      34.650  18.308   6.358  0.00  0.00     0.210 HD
ENDBRANCH  14  18
BRANCH  15  20
HETATM   20  O   UNK N   1      36.423  15.025   6.479  0.00  0.00    -0.390 OA
HETATM   21  H   UNK N   1      36.783  14.287   5.963  0.00  0.00     0.210 HD
ENDBRANCH  15  20
BRANCH  16  22
HETATM   22  C   UNK N   1      35.487  14.091   9.062  0.00  0.00     0.172 A 
HETATM   23  N   UNK N   1      36.720  14.616   9.170  0.00  0.00    -0.279 N 
HETATM   24  N   UNK N   1      37.121  14.378  10.411  0.00  0.00    -0.281 N 
ATOM     25  HN  UNK N   1      37.242  15.102   8.441  1.00  0.00     0.189 HD
HETATM   26  C   UNK N   1      36.116  13.716  11.021  0.00  0.00     0.148 A 
ATOM     27  HN  UNK N   1      38.015  14.643  10.823  1.00  0.00     0.189 HD
HETATM   28  O   UNK N   1      35.122  13.539  10.193  0.00  0.00    -0.279 OA
BRANCH  26  29
HETATM   29  C   UNK N   1      36.119  13.268  12.454  0.00  0.00     0.016 C 
HETATM   30  C   UNK N   1      37.274  12.319  12.694  0.00  0.00     0.023 C 
HETATM   31  C   UNK N   1      34.822  12.553  12.796  0.00  0.00     0.023 C 
HETATM   32  C   UNK N   1      36.258  14.472  13.364  0.00  0.00     0.023 C 
ENDBRANCH  26  29
ENDBRANCH  16  22
ENDBRANCH   1  13
BRANCH  12  33
HETATM   33  N   UNK N   1      27.784  17.264   7.025  0.00  0.00    -0.338 N 
HETATM   34  H   UNK N   1      27.393  17.093   7.913  0.00  0.00     0.167 HD
BRANCH  33  35
HETATM   35  C   UNK N   1      27.163  18.150   6.095  0.00  0.00     0.072 A 
HETATM   36  C   UNK N   1      27.670  19.457   5.949  0.00  0.00     0.034 A 
HETATM   37  C   UNK N   1      27.251  20.272   4.903  0.00  0.00     0.026 A 
HETATM   38  C   UNK N   1      26.321  19.790   3.985  0.00  0.00     0.037 A 
HETATM   39  C   UNK N   1      25.778  18.508   4.142  0.00  0.00     0.068 A 
HETATM   40 Cl   UNK N   1      25.890  20.773   2.605  0.00  0.00    -0.084 Cl
HETATM   41  C   UNK N   1      26.190  17.687   5.203  0.00  0.00     0.144 A 
HETATM   42  F   UNK N   1      25.721  16.420   5.296  0.00  0.00    -0.204 F 
ENDBRANCH  33  35
ENDBRANCH  12  33
TORSDOF 7
ENDMDL
