MODEL 1
REMARK VINA RESULT:      -6.9      0.000      0.000
REMARK  5 active torsions:
REMARK  status: ('A' for Active; 'I' for Inactive)
REMARK    1  A    between atoms: C_6  and  C_3 
REMARK    2  A    between atoms: O_23  and  C_3 
REMARK    3  A    between atoms: C_8  and  O_24 
REMARK    4  A    between atoms: C_9  and  O_25 
REMARK    5  A    between atoms: C_13  and  N_22 
ROOT
HETATM    1  C   UNK N   1      27.870  18.259   5.629  0.00  0.00     0.179 C 
HETATM    2  C   UNK N   1      33.172  16.642   6.026  0.00  0.00     0.112 A 
HETATM    3  C   UNK N   1      30.008  17.044   9.149  0.00  0.00     0.183 A 
HETATM    4  C   UNK N   1      31.914  17.108   5.640  0.00  0.00     0.042 A 
HETATM    5  C   UNK N   1      31.180  17.145   6.748  0.00  0.00     0.069 A 
HETATM    6  C   UNK N   1      31.301  17.482   4.446  0.00  0.00     0.126 A 
HETATM    7  C   UNK N   1      29.884  17.510   6.820  0.00  0.00     0.138 A 
HETATM    8  C   UNK N   1      31.893  16.731   7.788  0.00  0.00     0.125 A 
HETATM    9  N   UNK N   1      31.934  17.452   3.336  0.00  0.00    -0.384 N 
ATOM     10  HN  UNK N   1      31.454  17.689   2.468  1.00  0.00     0.157 HD
HETATM   11  N   UNK N   1      29.281  17.466   8.045  0.00  0.00    -0.337 N 
ATOM     12  HN  UNK N   1      28.304  17.741   8.148  1.00  0.00     0.168 HD
HETATM   13  N   UNK N   1      31.332  16.658   9.023  0.00  0.00    -0.338 N 
ATOM     14  HN  UNK N   1      31.866  16.332   9.827  1.00  0.00     0.168 HD
HETATM   15  N   UNK N   1      29.972  17.858   4.491  0.00  0.00    -0.282 N 
HETATM   16  N   UNK N   1      29.273  17.875   5.647  0.00  0.00    -0.279 N 
HETATM   17  N   UNK N   1      33.141  16.401   7.378  0.00  0.00    -0.311 N 
HETATM   18  H   UNK N   1      32.887  17.200   3.321  0.00  0.00     0.157 HD
HETATM   19  H   UNK N   1      29.522  18.121   3.656  0.00  0.00     0.189 HD
ENDROOT
BRANCH  17  20
HETATM   20  C   UNK N   1      34.195  15.764   8.184  0.00  0.00     0.261 C 
HETATM   21  C   UNK N   1      34.969  16.702   9.136  0.00  0.00     0.198 C 
HETATM   22  C   UNK N   1      35.336  15.754  10.270  0.00  0.00     0.182 C 
HETATM   23  C   UNK N   1      34.933  14.399   9.712  0.00  0.00     0.179 C 
HETATM   24  O   UNK N   1      33.755  14.677   8.973  0.00  0.00    -0.353 OA
BRANCH  21  25
HETATM   25  O   UNK N   1      34.161  17.714   9.666  0.00  0.00    -0.388 OA
HETATM   26  H   UNK N   1      34.292  18.553  10.137  0.00  0.00     0.210 HD
ENDBRANCH  21  25
BRANCH  22  27
HETATM   27  O   UNK N   1      36.682  15.828  10.637  0.00  0.00    -0.390 OA
HETATM   28  H   UNK N   1      37.119  15.621  11.477  0.00  0.00     0.210 HD
ENDBRANCH  22  27
BRANCH  23  29
HETATM   29  C   UNK N   1      34.709  13.352  10.795  0.00  0.00     0.198 C 
BRANCH  29  30
HETATM   30  O   UNK N   1      34.397  13.976  12.006  0.00  0.00    -0.398 OA
HETATM   31  H   UNK N   1      34.105  13.509  12.805  0.00  0.00     0.209 HD
ENDBRANCH  29  30
ENDBRANCH  23  29
ENDBRANCH  17  20
TORSDOF 5
ENDMDL
MODEL 2
REMARK VINA RESULT:      -6.8      8.325     12.016
REMARK  5 active torsions:
REMARK  status: ('A' for Active; 'I' for Inactive)
REMARK    1  A    between atoms: C_6  and  C_3 
REMARK    2  A    between atoms: O_23  and  C_3 
REMARK    3  A    between atoms: C_8  and  O_24 
REMARK    4  A    between atoms: C_9  and  O_25 
REMARK    5  A    between atoms: C_13  and  N_22 
ROOT
HETATM    1  C   UNK N   1      35.939   8.895  20.814  0.00  0.00     0.179 C 
HETATM    2  C   UNK N   1      35.096  13.340  17.588  0.00  0.00     0.112 A 
HETATM    3  C   UNK N   1      36.501   9.227  16.570  0.00  0.00     0.183 A 
HETATM    4  C   UNK N   1      35.248  12.416  18.622  0.00  0.00     0.042 A 
HETATM    5  C   UNK N   1      35.683  11.296  18.053  0.00  0.00     0.069 A 
HETATM    6  C   UNK N   1      35.031  12.400  19.999  0.00  0.00     0.126 A 
HETATM    7  C   UNK N   1      35.933  10.136  18.694  0.00  0.00     0.138 A 
HETATM    8  C   UNK N   1      35.806  11.461  16.744  0.00  0.00     0.125 A 
HETATM    9  N   UNK N   1      34.592  13.430  20.614  0.00  0.00    -0.384 N 
ATOM     10  HN  UNK N   1      34.401  13.384  21.615  1.00  0.00     0.157 HD
HETATM   11  N   UNK N   1      36.356   9.076  17.942  0.00  0.00    -0.337 N 
ATOM     12  HN  UNK N   1      36.565   8.181  18.385  1.00  0.00     0.168 HD
HETATM   13  N   UNK N   1      36.212  10.433  15.954  0.00  0.00    -0.338 N 
ATOM     14  HN  UNK N   1      36.300  10.545  14.944  1.00  0.00     0.168 HD
HETATM   15  N   UNK N   1      35.277  11.223  20.679  0.00  0.00    -0.282 N 
HETATM   16  N   UNK N   1      35.718  10.111  20.049  0.00  0.00    -0.279 N 
HETATM   17  N   UNK N   1      35.442  12.723  16.410  0.00  0.00    -0.311 N 
HETATM   18  H   UNK N   1      34.439  14.269  20.121  0.00  0.00     0.157 HD
HETATM   19  H   UNK N   1      35.126  11.192  21.651  0.00  0.00     0.189 HD
ENDROOT
BRANCH  17  20
HETATM   20  C   UNK N   1      35.294  13.270  15.052  0.00  0.00     0.261 C 
HETATM   21  C   UNK N   1      36.405  14.242  14.597  0.00  0.00     0.198 C 
HETATM   22  C   UNK N   1      36.430  13.998  13.094  0.00  0.00     0.182 C 
HETATM   23  C   UNK N   1      35.210  13.119  12.881  0.00  0.00     0.179 C 
HETATM   24  O   UNK N   1      35.184  12.295  14.035  0.00  0.00    -0.353 OA
BRANCH  21  25
HETATM   25  O   UNK N   1      37.662  13.899  15.110  0.00  0.00    -0.388 OA
HETATM   26  H   UNK N   1      38.202  14.134  15.882  0.00  0.00     0.210 HD
ENDBRANCH  21  25
BRANCH  22  27
HETATM   27  O   UNK N   1      36.408  15.176  12.344  0.00  0.00    -0.390 OA
HETATM   28  H   UNK N   1      37.008  15.496  11.652  0.00  0.00     0.210 HD
ENDBRANCH  22  27
BRANCH  23  29
HETATM   29  C   UNK N   1      35.273  12.314  11.590  0.00  0.00     0.198 C 
BRANCH  29  30
HETATM   30  O   UNK N   1      34.195  12.649  10.765  0.00  0.00    -0.398 OA
HETATM   31  H   UNK N   1      33.274  12.398  10.936  0.00  0.00     0.209 HD
ENDBRANCH  29  30
ENDBRANCH  23  29
ENDBRANCH  17  20
TORSDOF 5
ENDMDL
MODEL 3
REMARK VINA RESULT:      -6.6      4.638      8.327
REMARK  5 active torsions:
REMARK  status: ('A' for Active; 'I' for Inactive)
REMARK    1  A    between atoms: C_6  and  C_3 
REMARK    2  A    between atoms: O_23  and  C_3 
REMARK    3  A    between atoms: C_8  and  O_24 
REMARK    4  A    between atoms: C_9  and  O_25 
REMARK    5  A    between atoms: C_13  and  N_22 
ROOT
HETATM    1  C   UNK N   1      35.823  10.484  15.557  0.00  0.00     0.179 C 
HETATM    2  C   UNK N   1      35.924  14.850  12.120  0.00  0.00     0.112 A 
HETATM    3  C   UNK N   1      34.287  10.735  11.554  0.00  0.00     0.183 A 
HETATM    4  C   UNK N   1      36.067  13.930  13.160  0.00  0.00     0.042 A 
HETATM    5  C   UNK N   1      35.513  12.800  12.730  0.00  0.00     0.069 A 
HETATM    6  C   UNK N   1      36.588  13.943  14.452  0.00  0.00     0.126 A 
HETATM    7  C   UNK N   1      35.408  11.658  13.439  0.00  0.00     0.138 A 
HETATM    8  C   UNK N   1      35.037  12.958  11.502  0.00  0.00     0.125 A 
HETATM    9  N   UNK N   1      37.116  14.998  14.944  0.00  0.00    -0.384 N 
ATOM     10  HN  UNK N   1      37.453  14.998  15.907  1.00  0.00     0.157 HD
HETATM   11  N   UNK N   1      34.787  10.597  12.841  0.00  0.00    -0.337 N 
ATOM     12  HN  UNK N   1      34.692   9.711  13.337  1.00  0.00     0.168 HD
HETATM   13  N   UNK N   1      34.400  11.936  10.873  0.00  0.00    -0.338 N 
ATOM     14  HN  UNK N   1      34.020  12.048   9.934  1.00  0.00     0.168 HD
HETATM   15  N   UNK N   1      36.491  12.787  15.201  0.00  0.00    -0.282 N 
HETATM   16  N   UNK N   1      35.916  11.665  14.713  0.00  0.00    -0.279 N 
HETATM   17  N   UNK N   1      35.266  14.226  11.087  0.00  0.00    -0.311 N 
HETATM   18  H   UNK N   1      37.196  15.811  14.393  0.00  0.00     0.157 HD
HETATM   19  H   UNK N   1      36.851  12.779  16.117  0.00  0.00     0.189 HD
ENDROOT
BRANCH  17  20
HETATM   20  C   UNK N   1      34.772  14.854   9.851  0.00  0.00     0.261 C 
HETATM   21  C   UNK N   1      33.237  14.894   9.687  0.00  0.00     0.198 C 
HETATM   22  C   UNK N   1      33.048  16.162   8.866  0.00  0.00     0.182 C 
HETATM   23  C   UNK N   1      34.474  16.530   8.492  0.00  0.00     0.179 C 
HETATM   24  O   UNK N   1      35.225  16.177   9.642  0.00  0.00    -0.353 OA
BRANCH  21  25
HETATM   25  O   UNK N   1      32.571  15.067  10.907  0.00  0.00    -0.388 OA
HETATM   26  H   UNK N   1      32.415  14.545  11.710  0.00  0.00     0.210 HD
ENDBRANCH  21  25
BRANCH  22  27
HETATM   27  O   UNK N   1      32.209  15.986   7.764  0.00  0.00    -0.390 OA
HETATM   28  H   UNK N   1      31.529  15.317   7.588  0.00  0.00     0.210 HD
ENDBRANCH  22  27
BRANCH  23  29
HETATM   29  C   UNK N   1      34.633  17.998   8.120  0.00  0.00     0.198 C 
BRANCH  29  30
HETATM   30  O   UNK N   1      34.292  18.190   6.777  0.00  0.00    -0.398 OA
HETATM   31  H   UNK N   1      34.934  18.321   6.062  0.00  0.00     0.209 HD
ENDBRANCH  29  30
ENDBRANCH  23  29
ENDBRANCH  17  20
TORSDOF 5
ENDMDL
MODEL 4
REMARK VINA RESULT:      -6.4     11.271     13.326
REMARK  5 active torsions:
REMARK  status: ('A' for Active; 'I' for Inactive)
REMARK    1  A    between atoms: C_6  and  C_3 
REMARK    2  A    between atoms: O_23  and  C_3 
REMARK    3  A    between atoms: C_8  and  O_24 
REMARK    4  A    between atoms: C_9  and  O_25 
REMARK    5  A    between atoms: C_13  and  N_22 
ROOT
HETATM    1  C   UNK N   1      21.948  13.207   9.126  0.00  0.00     0.179 C 
HETATM    2  C   UNK N   1      20.882  17.515   5.781  0.00  0.00     0.112 A 
HETATM    3  C   UNK N   1      23.114  13.723   5.025  0.00  0.00     0.183 A 
HETATM    4  C   UNK N   1      21.023  16.607   6.832  0.00  0.00     0.042 A 
HETATM    5  C   UNK N   1      21.729  15.590   6.347  0.00  0.00     0.069 A 
HETATM    6  C   UNK N   1      20.597  16.524   8.156  0.00  0.00     0.126 A 
HETATM    7  C   UNK N   1      22.068  14.475   7.025  0.00  0.00     0.138 A 
HETATM    8  C   UNK N   1      22.029  15.803   5.073  0.00  0.00     0.125 A 
HETATM    9  N   UNK N   1      19.896  17.452   8.687  0.00  0.00    -0.384 N 
ATOM     10  HN  UNK N   1      19.558  17.352   9.644  1.00  0.00     0.157 HD
HETATM   11  N   UNK N   1      22.781  13.520   6.356  0.00  0.00    -0.337 N 
ATOM     12  HN  UNK N   1      23.066  12.663   6.832  1.00  0.00     0.168 HD
HETATM   13  N   UNK N   1      22.725  14.876   4.364  0.00  0.00    -0.338 N 
ATOM     14  HN  UNK N   1      22.952  15.024   3.381  1.00  0.00     0.168 HD
HETATM   15  N   UNK N   1      20.928  15.391   8.873  0.00  0.00    -0.282 N 
HETATM   16  N   UNK N   1      21.648  14.385   8.328  0.00  0.00    -0.279 N 
HETATM   17  N   UNK N   1      21.512  16.992   4.678  0.00  0.00    -0.311 N 
HETATM   18  H   UNK N   1      19.682  18.263   8.171  0.00  0.00     0.157 HD
HETATM   19  H   UNK N   1      20.632  15.314   9.809  0.00  0.00     0.189 HD
ENDROOT
BRANCH  17  20
HETATM   20  C   UNK N   1      21.491  17.536   3.311  0.00  0.00     0.261 C 
HETATM   21  C   UNK N   1      20.550  16.818   2.319  0.00  0.00     0.198 C 
HETATM   22  C   UNK N   1      20.162  17.957   1.385  0.00  0.00     0.182 C 
HETATM   23  C   UNK N   1      21.090  19.076   1.824  0.00  0.00     0.179 C 
HETATM   24  O   UNK N   1      21.174  18.910   3.231  0.00  0.00    -0.353 OA
BRANCH  21  25
HETATM   25  O   UNK N   1      19.382  16.348   2.932  0.00  0.00    -0.388 OA
HETATM   26  H   UNK N   1      18.563  16.730   3.287  0.00  0.00     0.210 HD
ENDBRANCH  21  25
BRANCH  22  27
HETATM   27  O   UNK N   1      20.284  17.628   0.034  0.00  0.00    -0.390 OA
HETATM   28  H   UNK N   1      20.314  16.763  -0.405  0.00  0.00     0.210 HD
ENDBRANCH  22  27
BRANCH  23  29
HETATM   29  C   UNK N   1      20.587  20.458   1.429  0.00  0.00     0.198 C 
BRANCH  29  30
HETATM   30  O   UNK N   1      20.618  20.597   0.038  0.00  0.00    -0.398 OA
HETATM   31  H   UNK N   1      21.430  20.668  -0.488  0.00  0.00     0.209 HD
ENDBRANCH  29  30
ENDBRANCH  23  29
ENDBRANCH  17  20
TORSDOF 5
ENDMDL
MODEL 5
REMARK VINA RESULT:      -6.4     13.399     15.857
REMARK  5 active torsions:
REMARK  status: ('A' for Active; 'I' for Inactive)
REMARK    1  A    between atoms: C_6  and  C_3 
REMARK    2  A    between atoms: O_23  and  C_3 
REMARK    3  A    between atoms: C_8  and  O_24 
REMARK    4  A    between atoms: C_9  and  O_25 
REMARK    5  A    between atoms: C_13  and  N_22 
ROOT
HETATM    1  C   UNK N   1      31.931  19.751  -4.791  0.00  0.00     0.179 C 
HETATM    2  C   UNK N   1      28.140  23.579  -6.154  0.00  0.00     0.112 A 
HETATM    3  C   UNK N   1      30.635  23.130  -2.479  0.00  0.00     0.183 A 
HETATM    4  C   UNK N   1      29.003  22.485  -6.067  0.00  0.00     0.042 A 
HETATM    5  C   UNK N   1      29.605  22.585  -4.885  0.00  0.00     0.069 A 
HETATM    6  C   UNK N   1      29.365  21.420  -6.889  0.00  0.00     0.126 A 
HETATM    7  C   UNK N   1      30.544  21.742  -4.409  0.00  0.00     0.138 A 
HETATM    8  C   UNK N   1      29.179  23.662  -4.240  0.00  0.00     0.125 A 
HETATM    9  N   UNK N   1      28.847  21.269  -8.048  0.00  0.00    -0.384 N 
ATOM     10  HN  UNK N   1      29.157  20.507  -8.650  1.00  0.00     0.157 HD
HETATM   11  N   UNK N   1      31.070  22.013  -3.177  0.00  0.00    -0.337 N 
ATOM     12  HN  UNK N   1      31.778  21.398  -2.774  1.00  0.00     0.168 HD
HETATM   13  N   UNK N   1      29.683  23.979  -3.019  0.00  0.00    -0.338 N 
ATOM     14  HN  UNK N   1      29.371  24.810  -2.518  1.00  0.00     0.168 HD
HETATM   15  N   UNK N   1      30.327  20.543  -6.426  0.00  0.00    -0.282 N 
HETATM   16  N   UNK N   1      30.908  20.693  -5.215  0.00  0.00    -0.279 N 
HETATM   17  N   UNK N   1      28.268  24.316  -5.001  0.00  0.00    -0.311 N 
HETATM   18  H   UNK N   1      28.148  21.890  -8.358  0.00  0.00     0.157 HD
HETATM   19  H   UNK N   1      30.598  19.787  -6.995  0.00  0.00     0.189 HD
ENDROOT
BRANCH  17  20
HETATM   20  C   UNK N   1      27.662  25.627  -4.722  0.00  0.00     0.261 C 
HETATM   21  C   UNK N   1      26.434  25.611  -3.784  0.00  0.00     0.198 C 
HETATM   22  C   UNK N   1      26.546  26.971  -3.108  0.00  0.00     0.182 C 
HETATM   23  C   UNK N   1      27.655  27.644  -3.900  0.00  0.00     0.179 C 
HETATM   24  O   UNK N   1      28.553  26.585  -4.187  0.00  0.00    -0.353 OA
BRANCH  21  25
HETATM   25  O   UNK N   1      26.530  24.628  -2.792  0.00  0.00    -0.388 OA
HETATM   26  H   UNK N   1      25.918  24.127  -2.229  0.00  0.00     0.210 HD
ENDBRANCH  21  25
BRANCH  22  27
HETATM   27  O   UNK N   1      25.347  27.687  -3.108  0.00  0.00    -0.390 OA
HETATM   28  H   UNK N   1      24.584  27.639  -2.511  0.00  0.00     0.210 HD
ENDBRANCH  22  27
BRANCH  23  29
HETATM   29  C   UNK N   1      28.321  28.785  -3.142  0.00  0.00     0.198 C 
BRANCH  29  30
HETATM   30  O   UNK N   1      27.570  29.108  -2.008  0.00  0.00    -0.398 OA
HETATM   31  H   UNK N   1      27.862  29.715  -1.311  0.00  0.00     0.209 HD
ENDBRANCH  29  30
ENDBRANCH  23  29
ENDBRANCH  17  20
TORSDOF 5
ENDMDL
MODEL 6
REMARK VINA RESULT:      -6.3      1.742      3.318
REMARK  5 active torsions:
REMARK  status: ('A' for Active; 'I' for Inactive)
REMARK    1  A    between atoms: C_6  and  C_3 
REMARK    2  A    between atoms: O_23  and  C_3 
REMARK    3  A    between atoms: C_8  and  O_24 
REMARK    4  A    between atoms: C_9  and  O_25 
REMARK    5  A    between atoms: C_13  and  N_22 
ROOT
HETATM    1  C   UNK N   1      26.889  19.465   4.181  0.00  0.00     0.179 C 
HETATM    2  C   UNK N   1      30.064  17.016   8.029  0.00  0.00     0.112 A 
HETATM    3  C   UNK N   1      30.139  16.724   3.575  0.00  0.00     0.183 A 
HETATM    4  C   UNK N   1      29.112  17.731   7.301  0.00  0.00     0.042 A 
HETATM    5  C   UNK N   1      29.348  17.459   6.021  0.00  0.00     0.069 A 
HETATM    6  C   UNK N   1      28.077  18.617   7.593  0.00  0.00     0.126 A 
HETATM    7  C   UNK N   1      28.672  17.971   4.972  0.00  0.00     0.138 A 
HETATM    8  C   UNK N   1      30.378  16.632   5.907  0.00  0.00     0.125 A 
HETATM    9  N   UNK N   1      27.804  18.945   8.798  0.00  0.00    -0.384 N 
ATOM     10  HN  UNK N   1      27.070  19.628   8.987  1.00  0.00     0.157 HD
HETATM   11  N   UNK N   1      29.068  17.594   3.720  0.00  0.00    -0.337 N 
ATOM     12  HN  UNK N   1      28.581  17.951   2.897  1.00  0.00     0.168 HD
HETATM   13  N   UNK N   1      30.816  16.241   4.682  0.00  0.00    -0.338 N 
ATOM     14  HN  UNK N   1      31.614  15.614   4.582  1.00  0.00     0.168 HD
HETATM   15  N   UNK N   1      27.370  19.158   6.537  0.00  0.00    -0.282 N 
HETATM   16  N   UNK N   1      27.654  18.847   5.253  0.00  0.00    -0.279 N 
HETATM   17  N   UNK N   1      30.859  16.337   7.139  0.00  0.00    -0.311 N 
HETATM   18  H   UNK N   1      28.303  18.538   9.544  0.00  0.00     0.157 HD
HETATM   19  H   UNK N   1      26.637  19.789   6.725  0.00  0.00     0.189 HD
ENDROOT
BRANCH  17  20
HETATM   20  C   UNK N   1      32.079  15.575   7.450  0.00  0.00     0.261 C 
HETATM   21  C   UNK N   1      33.407  16.221   6.996  0.00  0.00     0.198 C 
HETATM   22  C   UNK N   1      34.376  15.705   8.052  0.00  0.00     0.182 C 
HETATM   23  C   UNK N   1      33.537  14.684   8.801  0.00  0.00     0.179 C 
HETATM   24  O   UNK N   1      32.242  15.261   8.819  0.00  0.00    -0.353 OA
BRANCH  21  25
HETATM   25  O   UNK N   1      33.380  17.618   7.082  0.00  0.00    -0.388 OA
HETATM   26  H   UNK N   1      34.029  18.337   7.147  0.00  0.00     0.210 HD
ENDBRANCH  21  25
BRANCH  22  27
HETATM   27  O   UNK N   1      35.550  15.176   7.511  0.00  0.00    -0.390 OA
HETATM   28  H   UNK N   1      36.184  15.557   6.884  0.00  0.00     0.210 HD
ENDBRANCH  22  27
BRANCH  23  29
HETATM   29  C   UNK N   1      34.064  14.389  10.199  0.00  0.00     0.198 C 
BRANCH  29  30
HETATM   30  O   UNK N   1      33.253  15.006  11.155  0.00  0.00    -0.398 OA
HETATM   31  H   UNK N   1      32.301  15.162  11.049  0.00  0.00     0.209 HD
ENDBRANCH  29  30
ENDBRANCH  23  29
ENDBRANCH  17  20
TORSDOF 5
ENDMDL
MODEL 7
REMARK VINA RESULT:      -6.2      3.737      7.427
REMARK  5 active torsions:
REMARK  status: ('A' for Active; 'I' for Inactive)
REMARK    1  A    between atoms: C_6  and  C_3 
REMARK    2  A    between atoms: O_23  and  C_3 
REMARK    3  A    between atoms: C_8  and  O_24 
REMARK    4  A    between atoms: C_9  and  O_25 
REMARK    5  A    between atoms: C_13  and  N_22 
ROOT
HETATM    1  C   UNK N   1      35.406  10.500  13.411  0.00  0.00     0.179 C 
HETATM    2  C   UNK N   1      35.439  15.683  11.406  0.00  0.00     0.112 A 
HETATM    3  C   UNK N   1      33.654  11.936   9.762  0.00  0.00     0.183 A 
HETATM    4  C   UNK N   1      35.613  14.496  12.119  0.00  0.00     0.042 A 
HETATM    5  C   UNK N   1      35.004  13.549  11.412  0.00  0.00     0.069 A 
HETATM    6  C   UNK N   1      36.208  14.122  13.323  0.00  0.00     0.126 A 
HETATM    7  C   UNK N   1      34.906  12.250  11.760  0.00  0.00     0.138 A 
HETATM    8  C   UNK N   1      34.464  14.066  10.317  0.00  0.00     0.125 A 
HETATM    9  N   UNK N   1      36.792  14.980  14.069  0.00  0.00    -0.384 N 
ATOM     10  HN  UNK N   1      37.184  14.693  14.966  1.00  0.00     0.157 HD
HETATM   11  N   UNK N   1      34.222  11.419  10.918  0.00  0.00    -0.337 N 
ATOM     12  HN  UNK N   1      34.129  10.427  11.137  1.00  0.00     0.168 HD
HETATM   13  N   UNK N   1      33.763  13.282   9.457  0.00  0.00    -0.338 N 
ATOM     14  HN  UNK N   1      33.334  13.670   8.618  1.00  0.00     0.168 HD
HETATM   15  N   UNK N   1      36.120  12.798  13.705  0.00  0.00    -0.282 N 
HETATM   16  N   UNK N   1      35.486  11.876  12.947  0.00  0.00    -0.279 N 
HETATM   17  N   UNK N   1      34.706  15.399  10.279  0.00  0.00    -0.311 N 
HETATM   18  H   UNK N   1      36.865  15.918  13.777  0.00  0.00     0.157 HD
HETATM   19  H   UNK N   1      36.531  12.517  14.554  0.00  0.00     0.189 HD
ENDROOT
BRANCH  17  20
HETATM   20  C   UNK N   1      34.161  16.368   9.315  0.00  0.00     0.261 C 
HETATM   21  C   UNK N   1      34.894  16.447   7.957  0.00  0.00     0.198 C 
HETATM   22  C   UNK N   1      33.761  16.841   7.019  0.00  0.00     0.182 C 
HETATM   23  C   UNK N   1      32.626  17.149   7.981  0.00  0.00     0.179 C 
HETATM   24  O   UNK N   1      32.792  16.190   9.013  0.00  0.00    -0.353 OA
BRANCH  21  25
HETATM   25  O   UNK N   1      35.385  15.204   7.540  0.00  0.00    -0.388 OA
HETATM   26  H   UNK N   1      35.445  14.708   6.708  0.00  0.00     0.210 HD
ENDBRANCH  21  25
BRANCH  22  27
HETATM   27  O   UNK N   1      34.087  17.910   6.181  0.00  0.00    -0.390 OA
HETATM   28  H   UNK N   1      34.319  17.925   5.239  0.00  0.00     0.210 HD
ENDBRANCH  22  27
BRANCH  23  29
HETATM   29  C   UNK N   1      31.253  17.071   7.328  0.00  0.00     0.198 C 
BRANCH  29  30
HETATM   30  O   UNK N   1      31.380  17.148   5.937  0.00  0.00    -0.398 OA
HETATM   31  H   UNK N   1      31.687  17.932   5.457  0.00  0.00     0.209 HD
ENDBRANCH  29  30
ENDBRANCH  23  29
ENDBRANCH  17  20
TORSDOF 5
ENDMDL
MODEL 8
REMARK VINA RESULT:      -6.2     12.834     14.958
REMARK  5 active torsions:
REMARK  status: ('A' for Active; 'I' for Inactive)
REMARK    1  A    between atoms: C_6  and  C_3 
REMARK    2  A    between atoms: O_23  and  C_3 
REMARK    3  A    between atoms: C_8  and  O_24 
REMARK    4  A    between atoms: C_9  and  O_25 
REMARK    5  A    between atoms: C_13  and  N_22 
ROOT
HETATM    1  C   UNK N   1      26.306  29.294  -3.836  0.00  0.00     0.179 C 
HETATM    2  C   UNK N   1      28.252  24.171  -4.753  0.00  0.00     0.112 A 
HETATM    3  C   UNK N   1      30.304  27.840  -3.251  0.00  0.00     0.183 A 
HETATM    4  C   UNK N   1      27.512  25.349  -4.648  0.00  0.00     0.042 A 
HETATM    5  C   UNK N   1      28.355  26.273  -4.197  0.00  0.00     0.069 A 
HETATM    6  C   UNK N   1      26.189  25.730  -4.862  0.00  0.00     0.126 A 
HETATM    7  C   UNK N   1      28.040  27.556  -3.923  0.00  0.00     0.138 A 
HETATM    8  C   UNK N   1      29.559  25.749  -4.012  0.00  0.00     0.125 A 
HETATM    9  N   UNK N   1      25.315  24.893  -5.273  0.00  0.00    -0.384 N 
ATOM     10  HN  UNK N   1      24.343  25.182  -5.384  1.00  0.00     0.157 HD
HETATM   11  N   UNK N   1      29.034  28.363  -3.445  0.00  0.00    -0.337 N 
ATOM     12  HN  UNK N   1      28.843  29.342  -3.231  1.00  0.00     0.168 HD
HETATM   13  N   UNK N   1      30.575  26.510  -3.527  0.00  0.00    -0.338 N 
ATOM     14  HN  UNK N   1      31.502  26.115  -3.370  1.00  0.00     0.168 HD
HETATM   15  N   UNK N   1      25.839  27.038  -4.587  0.00  0.00    -0.282 N 
HETATM   16  N   UNK N   1      26.738  27.937  -4.128  0.00  0.00    -0.279 N 
HETATM   17  N   UNK N   1      29.536  24.436  -4.341  0.00  0.00    -0.311 N 
HETATM   18  H   UNK N   1      25.581  23.968  -5.484  0.00  0.00     0.157 HD
HETATM   19  H   UNK N   1      24.908  27.324  -4.730  0.00  0.00     0.189 HD
ENDROOT
BRANCH  17  20
HETATM   20  C   UNK N   1      30.618  23.458  -4.146  0.00  0.00     0.261 C 
HETATM   21  C   UNK N   1      30.847  22.993  -2.691  0.00  0.00     0.198 C 
HETATM   22  C   UNK N   1      31.362  21.575  -2.899  0.00  0.00     0.182 C 
HETATM   23  C   UNK N   1      31.569  21.515  -4.403  0.00  0.00     0.179 C 
HETATM   24  O   UNK N   1      30.494  22.282  -4.920  0.00  0.00    -0.353 OA
BRANCH  21  25
HETATM   25  O   UNK N   1      29.655  22.914  -1.960  0.00  0.00    -0.388 OA
HETATM   26  H   UNK N   1      29.399  22.780  -1.033  0.00  0.00     0.210 HD
ENDBRANCH  21  25
BRANCH  22  27
HETATM   27  O   UNK N   1      32.518  21.295  -2.165  0.00  0.00    -0.390 OA
HETATM   28  H   UNK N   1      32.998  21.832  -1.515  0.00  0.00     0.210 HD
ENDBRANCH  22  27
BRANCH  23  29
HETATM   29  C   UNK N   1      31.586  20.092  -4.946  0.00  0.00     0.198 C 
BRANCH  29  30
HETATM   30  O   UNK N   1      32.254  19.248  -4.054  0.00  0.00    -0.398 OA
HETATM   31  H   UNK N   1      33.205  19.061  -4.083  0.00  0.00     0.209 HD
ENDBRANCH  29  30
ENDBRANCH  23  29
ENDBRANCH  17  20
TORSDOF 5
ENDMDL
MODEL 9
REMARK VINA RESULT:      -6.2      3.394      5.315
REMARK  5 active torsions:
REMARK  status: ('A' for Active; 'I' for Inactive)
REMARK    1  A    between atoms: C_6  and  C_3 
REMARK    2  A    between atoms: O_23  and  C_3 
REMARK    3  A    between atoms: C_8  and  O_24 
REMARK    4  A    between atoms: C_9  and  O_25 
REMARK    5  A    between atoms: C_13  and  N_22 
ROOT
HETATM    1  C   UNK N   1      33.508  17.474   7.067  0.00  0.00     0.179 C 
HETATM    2  C   UNK N   1      34.249  12.724   9.856  0.00  0.00     0.112 A 
HETATM    3  C   UNK N   1      35.375  16.917  10.895  0.00  0.00     0.183 A 
HETATM    4  C   UNK N   1      33.962  13.735   8.937  0.00  0.00     0.042 A 
HETATM    5  C   UNK N   1      34.407  14.864   9.482  0.00  0.00     0.069 A 
HETATM    6  C   UNK N   1      33.336  13.820   7.695  0.00  0.00     0.126 A 
HETATM    7  C   UNK N   1      34.303  16.093   8.937  0.00  0.00     0.138 A 
HETATM    8  C   UNK N   1      34.944  14.622  10.670  0.00  0.00     0.125 A 
HETATM    9  N   UNK N   1      32.861  12.783   7.118  0.00  0.00    -0.384 N 
ATOM     10  HN  UNK N   1      32.370  12.874   6.229  1.00  0.00     0.157 HD
HETATM   11  N   UNK N   1      34.801  17.145   9.652  0.00  0.00    -0.337 N 
ATOM     12  HN  UNK N   1      34.751  18.093   9.275  1.00  0.00     0.168 HD
HETATM   13  N   UNK N   1      35.439  15.639  11.423  0.00  0.00    -0.338 N 
ATOM     14  HN  UNK N   1      35.844  15.466  12.342  1.00  0.00     0.168 HD
HETATM   15  N   UNK N   1      33.214  15.068   7.116  0.00  0.00    -0.282 N 
HETATM   16  N   UNK N   1      33.684  16.184   7.716  0.00  0.00    -0.279 N 
HETATM   17  N   UNK N   1      34.858  13.298  10.945  0.00  0.00    -0.311 N 
HETATM   18  H   UNK N   1      32.972  11.896   7.533  0.00  0.00     0.157 HD
HETATM   19  H   UNK N   1      32.771  15.147   6.240  0.00  0.00     0.189 HD
ENDROOT
BRANCH  17  20
HETATM   20  C   UNK N   1      35.201  12.635  12.213  0.00  0.00     0.261 C 
HETATM   21  C   UNK N   1      36.709  12.418  12.469  0.00  0.00     0.198 C 
HETATM   22  C   UNK N   1      36.776  12.488  13.989  0.00  0.00     0.182 C 
HETATM   23  C   UNK N   1      35.309  12.503  14.385  0.00  0.00     0.179 C 
HETATM   24  O   UNK N   1      34.694  13.276  13.367  0.00  0.00    -0.353 OA
BRANCH  21  25
HETATM   25  O   UNK N   1      37.495  13.456  11.956  0.00  0.00    -0.388 OA
HETATM   26  H   UNK N   1      37.762  14.348  12.233  0.00  0.00     0.210 HD
ENDBRANCH  21  25
BRANCH  22  27
HETATM   27  O   UNK N   1      37.497  11.436  14.558  0.00  0.00    -0.390 OA
HETATM   28  H   UNK N   1      38.140  10.826  14.165  0.00  0.00     0.210 HD
ENDBRANCH  22  27
BRANCH  23  29
HETATM   29  C   UNK N   1      35.072  13.076  15.776  0.00  0.00     0.198 C 
BRANCH  29  30
HETATM   30  O   UNK N   1      35.673  12.258  16.737  0.00  0.00    -0.398 OA
HETATM   31  H   UNK N   1      35.317  11.407  17.034  0.00  0.00     0.209 HD
ENDBRANCH  29  30
ENDBRANCH  23  29
ENDBRANCH  17  20
TORSDOF 5
ENDMDL
