MODEL 1
REMARK VINA RESULT:      -8.0      0.000      0.000
REMARK  4 active torsions:
REMARK  status: ('A' for Active; 'I' for Inactive)
REMARK    1  A    between atoms: C_4  and  N_18 
REMARK    2  A    between atoms: C_11  and  C_14 
REMARK    3  A    between atoms: N_18  and  C_19 
REMARK    4  A    between atoms: C_22  and  S_25 
ROOT
HETATM    1  C   UNK N   1      33.279  16.516   3.776  0.00  0.00     0.069 C 
HETATM    2  C   UNK N   1      32.943  16.730   5.206  0.00  0.00     0.026 A 
HETATM    3  C   UNK N   1      33.974  16.789   6.163  0.00  0.00     0.076 A 
HETATM    4  C   UNK N   1      33.647  17.022   7.504  0.00  0.00     0.147 A 
HETATM    5  N   UNK N   1      32.314  17.167   7.814  0.00  0.00    -0.068 N 
HETATM    6  C   UNK N   1      31.358  17.101   6.884  0.00  0.00     0.707 A 
HETATM    7  N   UNK N   1      31.639  16.888   5.579  0.00  0.00    -0.194 N 
ATOM      8  HN  UNK N   1      30.891  16.846   4.886  1.00  0.00     0.184 HD
HETATM    9  N   UNK N   1      30.133  17.315   7.401  0.00  0.00    -0.171 N 
ATOM     10  HN  UNK N   1      29.231  17.320   6.925  1.00  0.00     0.186 HD
HETATM   11  C   UNK N   1      30.403  17.522   8.713  0.00  0.00     0.185 A 
HETATM   12  N   UNK N   1      31.727  17.411   8.973  0.00  0.00    -0.261 N 
ATOM     13  HN  UNK N   1      32.181  17.498   9.881  1.00  0.00     0.189 HD
ENDROOT
BRANCH   4  14
HETATM   14  N   UNK N   1      34.703  17.072   8.471  0.00  0.00    -0.340 N 
HETATM   15  H   UNK N   1      35.394  17.765   8.369  0.00  0.00     0.167 HD
BRANCH  14  16
HETATM   16  C   UNK N   1      34.805  16.183   9.562  0.00  0.00     0.033 A 
HETATM   17  C   UNK N   1      35.431  16.613  10.733  0.00  0.00     0.031 A 
HETATM   18  C   UNK N   1      35.830  15.673  11.686  0.00  0.00     0.029 A 
HETATM   19  C   UNK N   1      35.603  14.301  11.466  0.00  0.00     0.099 A 
HETATM   20  C   UNK N   1      34.870  13.904  10.343  0.00  0.00     0.029 A 
HETATM   21  C   UNK N   1      34.462  14.838   9.406  0.00  0.00     0.031 A 
BRANCH  19  22
HETATM   22  S   UNK N   1      36.356  13.046  12.540  0.00  0.00     0.311 SA
HETATM   23  F   UNK N   1      37.060  11.852  13.540  0.00  0.00    -0.093 F 
HETATM   24  F   UNK N   1      37.844  13.187  11.707  0.00  0.00    -0.093 F 
HETATM   25  F   UNK N   1      36.846  14.269  13.630  0.00  0.00    -0.093 F 
HETATM   26  F   UNK N   1      35.857  11.824  11.449  0.00  0.00    -0.093 F 
HETATM   27  F   UNK N   1      34.883  12.859  13.407  0.00  0.00    -0.093 F 
ENDBRANCH  19  22
ENDBRANCH  14  16
ENDBRANCH   4  14
BRANCH  11  28
HETATM   28  C   UNK N   1      29.375  17.955   9.721  0.00  0.00     0.299 C 
HETATM   29  C   UNK N   1      28.044  18.232   9.054  0.00  0.00     0.099 C 
HETATM   30  F   UNK N   1      29.201  16.980  10.688  0.00  0.00    -0.198 F 
HETATM   31  F   UNK N   1      29.821  19.111  10.338  0.00  0.00    -0.198 F 
ENDBRANCH  11  28
TORSDOF 4
ENDMDL
MODEL 2
REMARK VINA RESULT:      -7.7      4.286      8.053
REMARK  4 active torsions:
REMARK  status: ('A' for Active; 'I' for Inactive)
REMARK    1  A    between atoms: C_4  and  N_18 
REMARK    2  A    between atoms: C_11  and  C_14 
REMARK    3  A    between atoms: N_18  and  C_19 
REMARK    4  A    between atoms: C_22  and  S_25 
ROOT
HETATM    1  C   UNK N   1      38.308  11.464  10.144  0.00  0.00     0.069 C 
HETATM    2  C   UNK N   1      37.619  12.241  11.206  0.00  0.00     0.026 A 
HETATM    3  C   UNK N   1      37.054  13.493  10.898  0.00  0.00     0.076 A 
HETATM    4  C   UNK N   1      36.380  14.201  11.899  0.00  0.00     0.147 A 
HETATM    5  N   UNK N   1      36.321  13.628  13.150  0.00  0.00    -0.068 N 
HETATM    6  C   UNK N   1      36.871  12.440  13.412  0.00  0.00     0.707 A 
HETATM    7  N   UNK N   1      37.520  11.725  12.466  0.00  0.00    -0.194 N 
ATOM      8  HN  UNK N   1      37.929  10.817  12.690  1.00  0.00     0.184 HD
HETATM    9  N   UNK N   1      36.656  12.052  14.683  0.00  0.00    -0.171 N 
ATOM     10  HN  UNK N   1      36.962  11.198  15.150  1.00  0.00     0.186 HD
HETATM   11  C   UNK N   1      35.931  13.082  15.183  0.00  0.00     0.185 A 
HETATM   12  N   UNK N   1      35.744  14.054  14.260  0.00  0.00    -0.261 N 
ATOM     13  HN  UNK N   1      35.254  14.938  14.393  1.00  0.00     0.189 HD
ENDROOT
BRANCH   4  14
HETATM   14  N   UNK N   1      35.816  15.479  11.579  0.00  0.00    -0.340 N 
HETATM   15  H   UNK N   1      36.050  16.247  12.148  0.00  0.00     0.167 HD
BRANCH  14  16
HETATM   16  C   UNK N   1      34.943  15.695  10.491  0.00  0.00     0.033 A 
HETATM   17  C   UNK N   1      35.073  16.863   9.738  0.00  0.00     0.031 A 
HETATM   18  C   UNK N   1      34.039  17.251   8.883  0.00  0.00     0.029 A 
HETATM   19  C   UNK N   1      32.872  16.469   8.783  0.00  0.00     0.099 A 
HETATM   20  C   UNK N   1      32.814  15.245   9.455  0.00  0.00     0.029 A 
HETATM   21  C   UNK N   1      33.847  14.853  10.292  0.00  0.00     0.031 A 
BRANCH  19  22
HETATM   22  S   UNK N   1      31.406  17.086   7.908  0.00  0.00     0.311 SA
HETATM   23  F   UNK N   1      30.016  17.662   7.098  0.00  0.00    -0.093 F 
HETATM   24  F   UNK N   1      31.572  18.617   8.654  0.00  0.00    -0.093 F 
HETATM   25  F   UNK N   1      32.394  17.605   6.613  0.00  0.00    -0.093 F 
HETATM   26  F   UNK N   1      30.420  16.557   9.204  0.00  0.00    -0.093 F 
HETATM   27  F   UNK N   1      31.188  15.565   7.136  0.00  0.00    -0.093 F 
ENDBRANCH  19  22
ENDBRANCH  14  16
ENDBRANCH   4  14
BRANCH  11  28
HETATM   28  C   UNK N   1      35.301  13.077  16.548  0.00  0.00     0.299 C 
HETATM   29  C   UNK N   1      35.426  11.716  17.199  0.00  0.00     0.099 C 
HETATM   30  F   UNK N   1      35.897  14.024  17.362  0.00  0.00    -0.198 F 
HETATM   31  F   UNK N   1      33.960  13.394  16.417  0.00  0.00    -0.198 F 
ENDBRANCH  11  28
TORSDOF 4
ENDMDL
MODEL 3
REMARK VINA RESULT:      -7.7     11.191     14.606
REMARK  4 active torsions:
REMARK  status: ('A' for Active; 'I' for Inactive)
REMARK    1  A    between atoms: C_4  and  N_18 
REMARK    2  A    between atoms: C_11  and  C_14 
REMARK    3  A    between atoms: N_18  and  C_19 
REMARK    4  A    between atoms: C_22  and  S_25 
ROOT
HETATM    1  C   UNK N   1      18.416  17.126   8.594  0.00  0.00     0.069 C 
HETATM    2  C   UNK N   1      19.597  16.230   8.512  0.00  0.00     0.026 A 
HETATM    3  C   UNK N   1      20.549  16.423   7.493  0.00  0.00     0.076 A 
HETATM    4  C   UNK N   1      21.674  15.592   7.444  0.00  0.00     0.147 A 
HETATM    5  N   UNK N   1      21.777  14.610   8.403  0.00  0.00    -0.068 N 
HETATM    6  C   UNK N   1      20.855  14.449   9.355  0.00  0.00     0.707 A 
HETATM    7  N   UNK N   1      19.761  15.240   9.437  0.00  0.00    -0.194 N 
ATOM      8  HN  UNK N   1      19.072  15.100  10.177  1.00  0.00     0.184 HD
HETATM    9  N   UNK N   1      21.177  13.460  10.211  0.00  0.00    -0.171 N 
ATOM     10  HN  UNK N   1      20.659  13.123  11.022  1.00  0.00     0.186 HD
HETATM   11  C   UNK N   1      22.365  13.028   9.722  0.00  0.00     0.185 A 
HETATM   12  N   UNK N   1      22.723  13.710   8.609  0.00  0.00    -0.261 N 
ATOM     13  HN  UNK N   1      23.556  13.561   8.041  1.00  0.00     0.189 HD
ENDROOT
BRANCH   4  14
HETATM   14  N   UNK N   1      22.633  15.791   6.398  0.00  0.00    -0.340 N 
HETATM   15  H   UNK N   1      23.508  15.348   6.479  0.00  0.00     0.167 HD
BRANCH  14  16
HETATM   16  C   UNK N   1      22.390  16.588   5.259  0.00  0.00     0.033 A 
HETATM   17  C   UNK N   1      22.972  17.854   5.179  0.00  0.00     0.031 A 
HETATM   18  C   UNK N   1      22.497  18.773   4.241  0.00  0.00     0.029 A 
HETATM   19  C   UNK N   1      21.437  18.424   3.382  0.00  0.00     0.099 A 
HETATM   20  C   UNK N   1      20.950  17.114   3.400  0.00  0.00     0.029 A 
HETATM   21  C   UNK N   1      21.432  16.198   4.321  0.00  0.00     0.031 A 
BRANCH  19  22
HETATM   22  S   UNK N   1      20.614  19.677   2.358  0.00  0.00     0.311 SA
HETATM   23  F   UNK N   1      19.824  20.849   1.397  0.00  0.00    -0.093 F 
HETATM   24  F   UNK N   1      20.488  20.731   3.700  0.00  0.00    -0.093 F 
HETATM   25  F   UNK N   1      22.133  20.355   1.962  0.00  0.00    -0.093 F 
HETATM   26  F   UNK N   1      19.096  18.989   2.749  0.00  0.00    -0.093 F 
HETATM   27  F   UNK N   1      20.708  18.655   0.978  0.00  0.00    -0.093 F 
ENDBRANCH  19  22
ENDBRANCH  14  16
ENDBRANCH   4  14
BRANCH  11  28
HETATM   28  C   UNK N   1      23.235  12.015  10.411  0.00  0.00     0.299 C 
HETATM   29  C   UNK N   1      22.940  11.966  11.895  0.00  0.00     0.099 C 
HETATM   30  F   UNK N   1      23.038  10.756   9.869  0.00  0.00    -0.198 F 
HETATM   31  F   UNK N   1      24.560  12.369  10.225  0.00  0.00    -0.198 F 
ENDBRANCH  11  28
TORSDOF 4
ENDMDL
MODEL 4
REMARK VINA RESULT:      -7.6      4.733      6.464
REMARK  4 active torsions:
REMARK  status: ('A' for Active; 'I' for Inactive)
REMARK    1  A    between atoms: C_4  and  N_18 
REMARK    2  A    between atoms: C_11  and  C_14 
REMARK    3  A    between atoms: N_18  and  C_19 
REMARK    4  A    between atoms: C_22  and  S_25 
ROOT
HETATM    1  C   UNK N   1      27.276  13.381   1.960  0.00  0.00     0.069 C 
HETATM    2  C   UNK N   1      27.654  14.718   2.484  0.00  0.00     0.026 A 
HETATM    3  C   UNK N   1      29.006  15.112   2.478  0.00  0.00     0.076 A 
HETATM    4  C   UNK N   1      29.347  16.386   2.946  0.00  0.00     0.147 A 
HETATM    5  N   UNK N   1      28.325  17.186   3.405  0.00  0.00    -0.068 N 
HETATM    6  C   UNK N   1      27.052  16.782   3.401  0.00  0.00     0.707 A 
HETATM    7  N   UNK N   1      26.687  15.562   2.947  0.00  0.00    -0.194 N 
ATOM      8  HN  UNK N   1      25.707  15.278   2.951  1.00  0.00     0.184 HD
HETATM    9  N   UNK N   1      26.217  17.738   3.851  0.00  0.00    -0.171 N 
ATOM     10  HN  UNK N   1      25.203  17.701   3.957  1.00  0.00     0.186 HD
HETATM   11  C   UNK N   1      27.065  18.760   4.126  0.00  0.00     0.185 A 
HETATM   12  N   UNK N   1      28.351  18.420   3.877  0.00  0.00    -0.261 N 
ATOM     13  HN  UNK N   1      29.176  19.000   4.023  1.00  0.00     0.189 HD
ENDROOT
BRANCH   4  14
HETATM   14  N   UNK N   1      30.727  16.774   2.944  0.00  0.00    -0.340 N 
HETATM   15  H   UNK N   1      31.096  17.174   2.124  0.00  0.00     0.167 HD
BRANCH  14  16
HETATM   16  C   UNK N   1      31.584  16.613   4.053  0.00  0.00     0.033 A 
HETATM   17  C   UNK N   1      31.182  15.795   5.109  0.00  0.00     0.031 A 
HETATM   18  C   UNK N   1      31.846  15.876   6.335  0.00  0.00     0.029 A 
HETATM   19  C   UNK N   1      32.914  16.778   6.505  0.00  0.00     0.099 A 
HETATM   20  C   UNK N   1      33.375  17.501   5.400  0.00  0.00     0.029 A 
HETATM   21  C   UNK N   1      32.724  17.409   4.180  0.00  0.00     0.031 A 
BRANCH  19  22
HETATM   22  S   UNK N   1      33.605  17.110   8.150  0.00  0.00     0.311 SA
HETATM   23  F   UNK N   1      34.267  17.410   9.696  0.00  0.00    -0.093 F 
HETATM   24  F   UNK N   1      34.645  18.305   7.502  0.00  0.00    -0.093 F 
HETATM   25  F   UNK N   1      32.402  18.296   8.418  0.00  0.00    -0.093 F 
HETATM   26  F   UNK N   1      34.801  15.916   7.880  0.00  0.00    -0.093 F 
HETATM   27  F   UNK N   1      32.587  15.915   8.852  0.00  0.00    -0.093 F 
ENDBRANCH  19  22
ENDBRANCH  14  16
ENDBRANCH   4  14
BRANCH  11  28
HETATM   28  C   UNK N   1      26.614  20.136   4.525  0.00  0.00     0.299 C 
HETATM   29  C   UNK N   1      27.569  20.752   5.526  0.00  0.00     0.099 C 
HETATM   30  F   UNK N   1      26.528  20.960   3.416  0.00  0.00    -0.198 F 
HETATM   31  F   UNK N   1      25.358  20.042   5.100  0.00  0.00    -0.198 F 
ENDBRANCH  11  28
TORSDOF 4
ENDMDL
MODEL 5
REMARK VINA RESULT:      -7.6      4.443      7.891
REMARK  4 active torsions:
REMARK  status: ('A' for Active; 'I' for Inactive)
REMARK    1  A    between atoms: C_4  and  N_18 
REMARK    2  A    between atoms: C_11  and  C_14 
REMARK    3  A    between atoms: N_18  and  C_19 
REMARK    4  A    between atoms: C_22  and  S_25 
ROOT
HETATM    1  C   UNK N   1      37.604  13.449   7.419  0.00  0.00     0.069 C 
HETATM    2  C   UNK N   1      37.011  13.857   8.717  0.00  0.00     0.026 A 
HETATM    3  C   UNK N   1      35.892  14.712   8.734  0.00  0.00     0.076 A 
HETATM    4  C   UNK N   1      35.322  15.065   9.962  0.00  0.00     0.147 A 
HETATM    5  N   UNK N   1      35.909  14.559  11.100  0.00  0.00    -0.068 N 
HETATM    6  C   UNK N   1      36.973  13.754  11.052  0.00  0.00     0.707 A 
HETATM    7  N   UNK N   1      37.542  13.385   9.883  0.00  0.00    -0.194 N 
ATOM      8  HN  UNK N   1      38.352  12.765   9.871  1.00  0.00     0.184 HD
HETATM    9  N   UNK N   1      37.353  13.344  12.277  0.00  0.00    -0.171 N 
ATOM     10  HN  UNK N   1      38.128  12.732  12.533  1.00  0.00     0.186 HD
HETATM   11  C   UNK N   1      36.445  13.948  13.082  0.00  0.00     0.185 A 
HETATM   12  N   UNK N   1      35.578  14.707  12.371  0.00  0.00    -0.261 N 
ATOM     13  HN  UNK N   1      34.819  15.278  12.742  1.00  0.00     0.189 HD
ENDROOT
BRANCH   4  14
HETATM   14  N   UNK N   1      34.189  15.942   9.969  0.00  0.00    -0.340 N 
HETATM   15  H   UNK N   1      33.864  16.274  10.836  0.00  0.00     0.167 HD
BRANCH  14  16
HETATM   16  C   UNK N   1      33.515  16.354   8.800  0.00  0.00     0.033 A 
HETATM   17  C   UNK N   1      32.531  15.527   8.255  0.00  0.00     0.031 A 
HETATM   18  C   UNK N   1      32.090  15.749   6.949  0.00  0.00     0.029 A 
HETATM   19  C   UNK N   1      32.634  16.800   6.186  0.00  0.00     0.099 A 
HETATM   20  C   UNK N   1      33.530  17.686   6.792  0.00  0.00     0.029 A 
HETATM   21  C   UNK N   1      33.957  17.474   8.093  0.00  0.00     0.031 A 
BRANCH  19  22
HETATM   22  S   UNK N   1      32.294  16.938   4.408  0.00  0.00     0.311 SA
HETATM   23  F   UNK N   1      31.983  17.082   2.734  0.00  0.00    -0.093 F 
HETATM   24  F   UNK N   1      33.641  15.946   4.046  0.00  0.00    -0.093 F 
HETATM   25  F   UNK N   1      31.292  15.554   4.491  0.00  0.00    -0.093 F 
HETATM   26  F   UNK N   1      33.290  18.328   4.333  0.00  0.00    -0.093 F 
HETATM   27  F   UNK N   1      30.934  17.944   4.716  0.00  0.00    -0.093 F 
ENDBRANCH  19  22
ENDBRANCH  14  16
ENDBRANCH   4  14
BRANCH  11  28
HETATM   28  C   UNK N   1      36.336  13.695  14.559  0.00  0.00     0.299 C 
HETATM   29  C   UNK N   1      37.021  12.399  14.939  0.00  0.00     0.099 C 
HETATM   30  F   UNK N   1      36.905  14.734  15.274  0.00  0.00    -0.198 F 
HETATM   31  F   UNK N   1      34.996  13.613  14.896  0.00  0.00    -0.198 F 
ENDBRANCH  11  28
TORSDOF 4
ENDMDL
MODEL 6
REMARK VINA RESULT:      -7.6      4.606      7.931
REMARK  4 active torsions:
REMARK  status: ('A' for Active; 'I' for Inactive)
REMARK    1  A    between atoms: C_4  and  N_18 
REMARK    2  A    between atoms: C_11  and  C_14 
REMARK    3  A    between atoms: N_18  and  C_19 
REMARK    4  A    between atoms: C_22  and  S_25 
ROOT
HETATM    1  C   UNK N   1      38.729  13.722   9.381  0.00  0.00     0.069 C 
HETATM    2  C   UNK N   1      37.582  13.464  10.288  0.00  0.00     0.026 A 
HETATM    3  C   UNK N   1      36.286  13.331   9.752  0.00  0.00     0.076 A 
HETATM    4  C   UNK N   1      35.217  13.057  10.612  0.00  0.00     0.147 A 
HETATM    5  N   UNK N   1      35.499  12.947  11.956  0.00  0.00    -0.068 N 
HETATM    6  C   UNK N   1      36.737  13.084  12.434  0.00  0.00     0.707 A 
HETATM    7  N   UNK N   1      37.794  13.339  11.630  0.00  0.00    -0.194 N 
ATOM      8  HN  UNK N   1      38.732  13.434  12.019  1.00  0.00     0.184 HD
HETATM    9  N   UNK N   1      36.789  12.894  13.766  0.00  0.00    -0.171 N 
ATOM     10  HN  UNK N   1      37.597  12.940  14.386  1.00  0.00     0.186 HD
HETATM   11  C   UNK N   1      35.496  12.626  14.073  0.00  0.00     0.185 A 
HETATM   12  N   UNK N   1      34.704  12.679  12.977  0.00  0.00    -0.261 N 
ATOM     13  HN  UNK N   1      33.694  12.540  12.944  1.00  0.00     0.189 HD
ENDROOT
BRANCH   4  14
HETATM   14  N   UNK N   1      33.902  12.931  10.058  0.00  0.00    -0.340 N 
HETATM   15  H   UNK N   1      33.334  12.192  10.373  0.00  0.00     0.167 HD
BRANCH  14  16
HETATM   16  C   UNK N   1      33.378  13.809   9.086  0.00  0.00     0.033 A 
HETATM   17  C   UNK N   1      33.226  13.357   7.774  0.00  0.00     0.031 A 
HETATM   18  C   UNK N   1      33.025  14.281   6.746  0.00  0.00     0.029 A 
HETATM   19  C   UNK N   1      32.976  15.659   7.031  0.00  0.00     0.099 A 
HETATM   20  C   UNK N   1      33.012  16.079   8.364  0.00  0.00     0.029 A 
HETATM   21  C   UNK N   1      33.197  15.161   9.385  0.00  0.00     0.031 A 
BRANCH  19  22
HETATM   22  S   UNK N   1      33.002  16.891   5.698  0.00  0.00     0.311 SA
HETATM   23  F   UNK N   1      33.042  18.045   4.439  0.00  0.00    -0.093 F 
HETATM   24  F   UNK N   1      32.210  15.803   4.641  0.00  0.00    -0.093 F 
HETATM   25  F   UNK N   1      31.489  17.492   6.221  0.00  0.00    -0.093 F 
HETATM   26  F   UNK N   1      34.521  16.292   5.184  0.00  0.00    -0.093 F 
HETATM   27  F   UNK N   1      33.805  18.021   6.716  0.00  0.00    -0.093 F 
ENDBRANCH  19  22
ENDBRANCH  14  16
ENDBRANCH   4  14
BRANCH  11  28
HETATM   28  C   UNK N   1      35.032  12.191  15.434  0.00  0.00     0.299 C 
HETATM   29  C   UNK N   1      34.266  10.887  15.355  0.00  0.00     0.099 C 
HETATM   30  F   UNK N   1      36.110  12.030  16.287  0.00  0.00    -0.198 F 
HETATM   31  F   UNK N   1      34.204  13.170  15.953  0.00  0.00    -0.198 F 
ENDBRANCH  11  28
TORSDOF 4
ENDMDL
MODEL 7
REMARK VINA RESULT:      -7.5      5.041      8.322
REMARK  4 active torsions:
REMARK  status: ('A' for Active; 'I' for Inactive)
REMARK    1  A    between atoms: C_4  and  N_18 
REMARK    2  A    between atoms: C_11  and  C_14 
REMARK    3  A    between atoms: N_18  and  C_19 
REMARK    4  A    between atoms: C_22  and  S_25 
ROOT
HETATM    1  C   UNK N   1      37.616   9.021  11.418  0.00  0.00     0.069 C 
HETATM    2  C   UNK N   1      37.300  10.243  12.200  0.00  0.00     0.026 A 
HETATM    3  C   UNK N   1      37.432  11.510  11.599  0.00  0.00     0.076 A 
HETATM    4  C   UNK N   1      37.102  12.652  12.335  0.00  0.00     0.147 A 
HETATM    5  N   UNK N   1      36.673  12.468  13.631  0.00  0.00    -0.068 N 
HETATM    6  C   UNK N   1      36.561  11.254  14.175  0.00  0.00     0.707 A 
HETATM    7  N   UNK N   1      36.863  10.129  13.488  0.00  0.00    -0.194 N 
ATOM      8  HN  UNK N   1      36.765   9.212  13.925  1.00  0.00     0.184 HD
HETATM    9  N   UNK N   1      36.083  11.305  15.432  0.00  0.00    -0.171 N 
ATOM     10  HN  UNK N   1      35.902  10.536  16.078  1.00  0.00     0.186 HD
HETATM   11  C   UNK N   1      35.904  12.635  15.622  0.00  0.00     0.185 A 
HETATM   12  N   UNK N   1      36.282  13.348  14.535  0.00  0.00    -0.261 N 
ATOM     13  HN  UNK N   1      36.268  14.362  14.434  1.00  0.00     0.189 HD
ENDROOT
BRANCH   4  14
HETATM   14  N   UNK N   1      37.248  13.936  11.717  0.00  0.00    -0.340 N 
HETATM   15  H   UNK N   1      38.116  14.394  11.795  0.00  0.00     0.167 HD
BRANCH  14  16
HETATM   16  C   UNK N   1      36.217  14.581  11.003  0.00  0.00     0.033 A 
HETATM   17  C   UNK N   1      35.614  13.918   9.933  0.00  0.00     0.031 A 
HETATM   18  C   UNK N   1      34.838  14.640   9.023  0.00  0.00     0.029 A 
HETATM   19  C   UNK N   1      34.666  16.028   9.183  0.00  0.00     0.099 A 
HETATM   20  C   UNK N   1      35.180  16.649  10.326  0.00  0.00     0.029 A 
HETATM   21  C   UNK N   1      35.937  15.929  11.236  0.00  0.00     0.031 A 
BRANCH  19  22
HETATM   22  S   UNK N   1      33.909  17.033   7.875  0.00  0.00     0.311 SA
HETATM   23  F   UNK N   1      33.185  17.985   6.655  0.00  0.00    -0.093 F 
HETATM   24  F   UNK N   1      35.040  18.288   8.147  0.00  0.00    -0.093 F 
HETATM   25  F   UNK N   1      34.960  16.329   6.723  0.00  0.00    -0.093 F 
HETATM   26  F   UNK N   1      32.853  17.727   9.030  0.00  0.00    -0.093 F 
HETATM   27  F   UNK N   1      32.744  15.806   7.565  0.00  0.00    -0.093 F 
ENDBRANCH  19  22
ENDBRANCH  14  16
ENDBRANCH   4  14
BRANCH  11  28
HETATM   28  C   UNK N   1      35.239  13.225  16.834  0.00  0.00     0.299 C 
HETATM   29  C   UNK N   1      35.255  12.250  17.992  0.00  0.00     0.099 C 
HETATM   30  F   UNK N   1      35.877  14.392  17.218  0.00  0.00    -0.198 F 
HETATM   31  F   UNK N   1      33.926  13.527  16.516  0.00  0.00    -0.198 F 
ENDBRANCH  11  28
TORSDOF 4
ENDMDL
MODEL 8
REMARK VINA RESULT:      -7.4      3.196      4.650
REMARK  4 active torsions:
REMARK  status: ('A' for Active; 'I' for Inactive)
REMARK    1  A    between atoms: C_4  and  N_18 
REMARK    2  A    between atoms: C_11  and  C_14 
REMARK    3  A    between atoms: N_18  and  C_19 
REMARK    4  A    between atoms: C_22  and  S_25 
ROOT
HETATM    1  C   UNK N   1      38.070  12.194   7.232  0.00  0.00     0.069 C 
HETATM    2  C   UNK N   1      37.239  13.261   7.845  0.00  0.00     0.026 A 
HETATM    3  C   UNK N   1      37.372  13.547   9.217  0.00  0.00     0.076 A 
HETATM    4  C   UNK N   1      36.606  14.576   9.777  0.00  0.00     0.147 A 
HETATM    5  N   UNK N   1      35.743  15.248   8.941  0.00  0.00    -0.068 N 
HETATM    6  C   UNK N   1      35.635  14.950   7.644  0.00  0.00     0.707 A 
HETATM    7  N   UNK N   1      36.367  13.969   7.069  0.00  0.00    -0.194 N 
ATOM      8  HN  UNK N   1      36.270  13.763   6.075  1.00  0.00     0.184 HD
HETATM    9  N   UNK N   1      34.767  15.760   7.009  0.00  0.00    -0.171 N 
ATOM     10  HN  UNK N   1      34.492  15.756   6.027  1.00  0.00     0.186 HD
HETATM   11  C   UNK N   1      34.351  16.580   8.005  0.00  0.00     0.185 A 
HETATM   12  N   UNK N   1      34.927  16.258   9.187  0.00  0.00    -0.261 N 
ATOM     13  HN  UNK N   1      34.763  16.705  10.089  1.00  0.00     0.189 HD
ENDROOT
BRANCH   4  14
HETATM   14  N   UNK N   1      36.743  14.854  11.175  0.00  0.00    -0.340 N 
HETATM   15  H   UNK N   1      37.370  15.561  11.450  0.00  0.00     0.167 HD
BRANCH  14  16
HETATM   16  C   UNK N   1      36.029  14.169  12.181  0.00  0.00     0.033 A 
HETATM   17  C   UNK N   1      36.319  14.433  13.520  0.00  0.00     0.031 A 
HETATM   18  C   UNK N   1      35.871  13.553  14.508  0.00  0.00     0.029 A 
HETATM   19  C   UNK N   1      35.133  12.407  14.156  0.00  0.00     0.099 A 
HETATM   20  C   UNK N   1      34.753  12.227  12.822  0.00  0.00     0.029 A 
HETATM   21  C   UNK N   1      35.185  13.108  11.844  0.00  0.00     0.031 A 
BRANCH  19  22
HETATM   22  S   UNK N   1      34.785  11.108  15.374  0.00  0.00     0.311 SA
HETATM   23  F   UNK N   1      34.454   9.896  16.533  0.00  0.00    -0.093 F 
HETATM   24  F   UNK N   1      33.159  11.012  14.848  0.00  0.00    -0.093 F 
HETATM   25  F   UNK N   1      35.230   9.915  14.232  0.00  0.00    -0.093 F 
HETATM   26  F   UNK N   1      34.349  12.306  16.517  0.00  0.00    -0.093 F 
HETATM   27  F   UNK N   1      36.406  11.168  15.946  0.00  0.00    -0.093 F 
ENDBRANCH  19  22
ENDBRANCH  14  16
ENDBRANCH   4  14
BRANCH  11  28
HETATM   28  C   UNK N   1      33.471  17.779   7.790  0.00  0.00     0.299 C 
HETATM   29  C   UNK N   1      32.097  17.558   8.385  0.00  0.00     0.099 C 
HETATM   30  F   UNK N   1      34.035  18.905   8.363  0.00  0.00    -0.198 F 
HETATM   31  F   UNK N   1      33.344  17.996   6.429  0.00  0.00    -0.198 F 
ENDBRANCH  11  28
TORSDOF 4
ENDMDL
MODEL 9
REMARK VINA RESULT:      -7.3     14.625     17.439
REMARK  4 active torsions:
REMARK  status: ('A' for Active; 'I' for Inactive)
REMARK    1  A    between atoms: C_4  and  N_18 
REMARK    2  A    between atoms: C_11  and  C_14 
REMARK    3  A    between atoms: N_18  and  C_19 
REMARK    4  A    between atoms: C_22  and  S_25 
ROOT
HETATM    1  C   UNK N   1      25.888  28.520  -4.297  0.00  0.00     0.069 C 
HETATM    2  C   UNK N   1      26.129  27.084  -4.591  0.00  0.00     0.026 A 
HETATM    3  C   UNK N   1      26.834  26.292  -3.665  0.00  0.00     0.076 A 
HETATM    4  C   UNK N   1      27.029  24.934  -3.938  0.00  0.00     0.147 A 
HETATM    5  N   UNK N   1      26.523  24.448  -5.124  0.00  0.00    -0.068 N 
HETATM    6  C   UNK N   1      25.862  25.226  -5.984  0.00  0.00     0.707 A 
HETATM    7  N   UNK N   1      25.648  26.539  -5.747  0.00  0.00    -0.194 N 
ATOM      8  HN  UNK N   1      25.136  27.113  -6.418  1.00  0.00     0.184 HD
HETATM    9  N   UNK N   1      25.420  24.536  -7.053  0.00  0.00    -0.171 N 
ATOM     10  HN  UNK N   1      24.893  24.876  -7.858  1.00  0.00     0.186 HD
HETATM   11  C   UNK N   1      25.850  23.279  -6.786  0.00  0.00     0.185 A 
HETATM   12  N   UNK N   1      26.541  23.225  -5.624  0.00  0.00    -0.261 N 
ATOM     13  HN  UNK N   1      26.987  22.405  -5.215  1.00  0.00     0.189 HD
ENDROOT
BRANCH   4  14
HETATM   14  N   UNK N   1      27.755  24.138  -2.994  0.00  0.00    -0.340 N 
HETATM   15  H   UNK N   1      27.290  23.848  -2.176  0.00  0.00     0.167 HD
BRANCH  14  16
HETATM   16  C   UNK N   1      29.098  23.747  -3.172  0.00  0.00     0.033 A 
HETATM   17  C   UNK N   1      29.750  24.076  -4.362  0.00  0.00     0.031 A 
HETATM   18  C   UNK N   1      30.944  23.432  -4.695  0.00  0.00     0.029 A 
HETATM   19  C   UNK N   1      31.487  22.458  -3.836  0.00  0.00     0.099 A 
HETATM   20  C   UNK N   1      30.881  22.231  -2.596  0.00  0.00     0.029 A 
HETATM   21  C   UNK N   1      29.705  22.880  -2.260  0.00  0.00     0.031 A 
BRANCH  19  22
HETATM   22  S   UNK N   1      32.870  21.410  -4.368  0.00  0.00     0.311 SA
HETATM   23  F   UNK N   1      34.166  20.424  -4.885  0.00  0.00    -0.093 F 
HETATM   24  F   UNK N   1      33.875  22.782  -4.551  0.00  0.00    -0.093 F 
HETATM   25  F   UNK N   1      33.377  21.249  -2.743  0.00  0.00    -0.093 F 
HETATM   26  F   UNK N   1      32.353  21.565  -5.993  0.00  0.00    -0.093 F 
HETATM   27  F   UNK N   1      31.902  19.998  -4.207  0.00  0.00    -0.093 F 
ENDBRANCH  19  22
ENDBRANCH  14  16
ENDBRANCH   4  14
BRANCH  11  28
HETATM   28  C   UNK N   1      25.484  22.077  -7.611  0.00  0.00     0.299 C 
HETATM   29  C   UNK N   1      24.383  21.277  -6.947  0.00  0.00     0.099 C 
HETATM   30  F   UNK N   1      25.064  22.462  -8.872  0.00  0.00    -0.198 F 
HETATM   31  F   UNK N   1      26.604  21.276  -7.748  0.00  0.00    -0.198 F 
ENDBRANCH  11  28
TORSDOF 4
ENDMDL
