REMARK  17 active torsions:
REMARK  status: ('A' for Active; 'I' for Inactive)
REMARK    1  A    between atoms: C_2  and  C_3 
REMARK    2  A    between atoms: C_3  and  C_4 
REMARK    3  A    between atoms: C_4  and  C_5 
REMARK    4  A    between atoms: C_5  and  C_45 
REMARK    5  A    between atoms: N_7  and  C_39 
REMARK    6  A    between atoms: C_10  and  S_37 
REMARK    7  A    between atoms: C_11  and  O_18 
REMARK    8  A    between atoms: O_18  and  C_19 
REMARK    9  A    between atoms: C_19  and  C_20 
REMARK       I    between atoms: C_20  and  N_22 
REMARK   10  A    between atoms: C_23  and  N_22 
REMARK   11  A    between atoms: C_23  and  C_24 
REMARK   12  A    between atoms: C_23  and  C_30 
REMARK       I    between atoms: C_30  and  N_32 
REMARK   13  A    between atoms: N_32  and  C_33 
REMARK   14  A    between atoms: C_33  and  C_34 
REMARK   15  A    between atoms: C_34  and  O_36 
REMARK   16  A    between atoms: C_45  and  C_46 
REMARK   17  A    between atoms: C_46  and  C_47 
ROOT
HETATM    1  C   UNK N   1      -3.734   3.717   0.213  0.00  0.00    -0.011 C 
HETATM    2  C   UNK N   1      -2.883   4.749   0.987  0.00  0.00     0.140 C 
HETATM    3  N   UNK N   1      -1.644   5.169   0.366  0.00  0.00    -0.345 N 
HETATM    4  C   UNK N   1      -0.509   4.289   0.404  0.00  0.00     0.058 A 
HETATM    5  C   UNK N   1       0.605   4.694   1.140  0.00  0.00     0.052 A 
HETATM    6  C   UNK N   1       1.784   3.966   1.107  0.00  0.00     0.035 A 
HETATM    7  C   UNK N   1       1.850   2.830   0.295  0.00  0.00     0.087 A 
HETATM    8  C   UNK N   1       0.737   2.388  -0.393  0.00  0.00     0.064 A 
HETATM    9  C   UNK N   1      -0.456   3.090  -0.342  0.00  0.00     0.088 A 
HETATM   10  S   UNK N   1      -1.801   2.529  -1.356  0.00  0.00     0.178 S 
HETATM   11  O   UNK N   1      -1.089   1.415  -2.145  0.00  0.00    -0.223 OA
HETATM   12  O   UNK N   1      -1.959   1.259  -0.505  0.00  0.00    -0.223 OA
HETATM   13  C   UNK N   1      -2.966   2.423   0.002  0.00  0.00     0.157 C 
ENDROOT
BRANCH   7  14
HETATM   14  O   UNK N   1       3.010   2.216   0.081  0.00  0.00    -0.341 OA
BRANCH  14  15
HETATM   15  C   UNK N   1       3.488   2.193  -1.211  0.00  0.00     0.278 C 
BRANCH  15  16
HETATM   16  C   UNK N   1       4.830   2.815  -1.210  0.00  0.00     0.242 C 
HETATM   17  O   UNK N   1       5.607   2.563  -2.116  0.00  0.00    -0.271 OA
HETATM   18  N   UNK N   1       5.260   3.393  -0.065  0.00  0.00    -0.342 N 
HETATM   19  H   UNK N   1       4.642   3.936   0.476  0.00  0.00     0.163 HD
BRANCH  18  20
HETATM   20  C   UNK N   1       6.609   3.213   0.356  0.00  0.00     0.210 C 
BRANCH  20  21
HETATM   21  C   UNK N   1       6.869   1.762   0.621  0.00  0.00    -0.026 A 
HETATM   22  C   UNK N   1       7.497   0.995  -0.366  0.00  0.00     0.010 A 
HETATM   23  C   UNK N   1       7.462  -0.399  -0.310  0.00  0.00     0.001 A 
HETATM   24  C   UNK N   1       6.760  -1.038   0.715  0.00  0.00     0.000 A 
HETATM   25  C   UNK N   1       6.107  -0.281   1.692  0.00  0.00     0.001 A 
HETATM   26  C   UNK N   1       6.144   1.116   1.634  0.00  0.00     0.010 A 
ENDBRANCH  20  21
BRANCH  20  27
HETATM   27  C   UNK N   1       7.476   4.432   0.502  0.00  0.00     0.245 C 
HETATM   28  O   UNK N   1       7.083   5.361   1.188  0.00  0.00    -0.271 OA
HETATM   29  N   UNK N   1       8.672   4.534  -0.122  0.00  0.00    -0.349 N 
HETATM   30  H   UNK N   1       9.178   5.374  -0.039  0.00  0.00     0.163 HD
BRANCH  29  31
HETATM   31  C   UNK N   1       9.233   3.464  -0.903  0.00  0.00     0.232 C 
BRANCH  31  32
HETATM   32  C   UNK N   1      10.357   2.855  -0.133  0.00  0.00     0.158 C 
HETATM   33  O   UNK N   1      11.318   3.535   0.184  0.00  0.00    -0.649 OA
BRANCH  32  34
HETATM   34  O   UNK N   1      10.299   1.564   0.241  0.00  0.00    -0.775 OA
HETATM   35  H   UNK N   1       9.500   1.149   0.502  0.00  0.00     0.167 HD
ENDBRANCH  32  34
ENDBRANCH  31  32
ENDBRANCH  29  31
ENDBRANCH  20  27
ENDBRANCH  18  20
ENDBRANCH  15  16
ENDBRANCH  14  15
ENDBRANCH   7  14
BRANCH   6  36
HETATM   36  S   UNK N   1       3.208   4.589   1.998  0.00  0.00    -0.132 SA
HETATM   37  C   UNK N   1       3.496   5.918   0.790  0.00  0.00     0.095 C 
ENDBRANCH   6  36
BRANCH   3  38
HETATM   38  C   UNK N   1      -1.386   6.566   0.118  0.00  0.00     0.034 A 
HETATM   39  C   UNK N   1      -2.312   7.556   0.501  0.00  0.00     0.029 A 
HETATM   40  C   UNK N   1      -2.029   8.910   0.277  0.00  0.00     0.002 A 
HETATM   41  C   UNK N   1      -0.832   9.293  -0.335  0.00  0.00     0.000 A 
HETATM   42  C   UNK N   1       0.086   8.322  -0.734  0.00  0.00     0.002 A 
HETATM   43  C   UNK N   1      -0.192   6.975  -0.508  0.00  0.00     0.029 A 
ENDBRANCH   3  38
BRANCH   1  44
HETATM   44  C   UNK N   1      -4.928   3.364   1.111  0.00  0.00     0.012 C 
BRANCH  44  45
HETATM   45  C   UNK N   1      -5.792   2.224   0.555  0.00  0.00     0.000 C 
BRANCH  45  46
HETATM   46  C   UNK N   1      -5.254   0.869   0.999  0.00  0.00    -0.005 C 
HETATM   47  C   UNK N   1      -5.205  -0.080  -0.184  0.00  0.00     0.005 C 
ENDBRANCH  45  46
ENDBRANCH  44  45
ENDBRANCH   1  44
BRANCH   1  48
HETATM   48  C   UNK N   1      -4.233   4.242  -1.151  0.00  0.00     0.012 C 
BRANCH  48  49
HETATM   49  C   UNK N   1      -4.578   5.723  -1.201  0.00  0.00     0.000 C 
BRANCH  49  50
HETATM   50  C   UNK N   1      -5.737   6.059  -0.292  0.00  0.00    -0.005 C 
HETATM   51  C   UNK N   1      -5.661   7.528   0.059  0.00  0.00     0.005 C 
ENDBRANCH  49  50
ENDBRANCH  48  49
ENDBRANCH   1  48
TORSDOF 17
