REMARK  21 active torsions:
REMARK  status: ('A' for Active; 'I' for Inactive)
REMARK    1  A    between atoms: C_2  and  O_41 
REMARK    2  A    between atoms: C_5  and  O_11 
REMARK    3  A    between atoms: C_6  and  O_10 
REMARK    4  A    between atoms: C_7  and  N_8 
REMARK    5  A    between atoms: C_12  and  O_11 
REMARK    6  A    between atoms: C_13  and  N_33 
REMARK    7  A    between atoms: C_15  and  N_32 
REMARK    8  A    between atoms: C_16  and  O_19 
REMARK    9  A    between atoms: C_17  and  O_18 
REMARK   10  A    between atoms: C_20  and  O_19 
REMARK   11  A    between atoms: C_21  and  N_31 
REMARK   12  A    between atoms: C_24  and  C_26 
REMARK   13  A    between atoms: C_26  and  N_27 
REMARK   14  A    between atoms: N_27  and  C_28 
REMARK   15  A    between atoms: C_28  and  C_29 
REMARK   16  A    between atoms: C_29  and  O_30 
REMARK       I    between atoms: N_33  and  C_34 
REMARK   17  A    between atoms: C_34  and  C_36 
REMARK   18  A    between atoms: C_36  and  C_37 
REMARK   19  A    between atoms: C_36  and  O_40 
REMARK   20  A    between atoms: C_37  and  C_38 
REMARK   21  A    between atoms: C_38  and  N_39 
ROOT
HETATM    1  C   UNK N   1       3.221  -2.232   0.109  0.00  0.00     0.178 C 
HETATM    2  C   UNK N   1       3.107  -3.689   0.563  0.00  0.00     0.118 C 
HETATM    3  C   UNK N   1       1.995  -4.423  -0.170  0.00  0.00     0.055 C 
HETATM    4  C   UNK N   1       0.685  -3.780   0.266  0.00  0.00     0.107 C 
HETATM    5  C   UNK N   1       0.572  -2.339  -0.239  0.00  0.00     0.178 C 
HETATM    6  C   UNK N   1       1.852  -1.527   0.017  0.00  0.00     0.180 C 
ENDROOT
BRANCH   5   7
HETATM    7  O   UNK N   1      -0.507  -1.718   0.437  0.00  0.00    -0.349 OA
BRANCH   7   8
HETATM    8  C   UNK N   1      -0.818  -0.497  -0.194  0.00  0.00     0.288 C 
HETATM    9  C   UNK N   1      -2.309  -0.193  -0.097  0.00  0.00     0.133 C 
HETATM   10  C   UNK N   1      -2.581   1.156  -0.770  0.00  0.00     0.059 C 
HETATM   11  C   UNK N   1      -1.572   2.201  -0.363  0.00  0.00     0.009 C 
HETATM   12  C   UNK N   1      -0.402   1.849   0.196  0.00  0.00     0.063 C 
HETATM   13  O   UNK N   1      -0.106   0.537   0.404  0.00  0.00    -0.321 OA
BRANCH   9  14
HETATM   14  N   UNK N   1      -3.084  -1.230  -0.754  0.00  0.00    -0.422 N 
HETATM   15  H   UNK N   1      -3.987  -1.122  -1.215  0.00  0.00     0.150 HD
HETATM   16  H   UNK N   1      -2.682  -2.167  -0.754  0.00  0.00     0.150 HD
ENDBRANCH   9  14
BRANCH  12  17
HETATM   17  C   UNK N   1       0.568   2.904   0.628  0.00  0.00     0.178 C 
BRANCH  17  18
HETATM   18  N   UNK N   1       1.010   3.684  -0.520  0.00  0.00    -0.414 N 
HETATM   19  H   UNK N   1       0.679   3.588  -1.480  0.00  0.00     0.153 HD
BRANCH  18  20
HETATM   20  C   UNK N   1       2.011   4.625  -0.043  0.00  0.00     0.140 C 
BRANCH  20  21
HETATM   21  C   UNK N   1       1.500   6.047  -0.176  0.00  0.00     0.183 C 
BRANCH  21  22
HETATM   22  O   UNK N   1       0.499   6.278   0.767  0.00  0.00    -0.399 OA
HETATM   23  H   UNK N   1       0.290   6.962   1.423  0.00  0.00     0.209 HD
ENDBRANCH  21  22
ENDBRANCH  20  21
ENDBRANCH  18  20
ENDBRANCH  17  18
ENDBRANCH  12  17
ENDBRANCH   7   8
ENDBRANCH   5   7
BRANCH   4  24
HETATM   24  N   UNK N   1      -0.439  -4.563  -0.216  0.00  0.00    -0.423 N 
HETATM   25  H   UNK N   1      -1.310  -4.155  -0.555  0.00  0.00     0.150 HD
HETATM   26  H   UNK N   1      -0.352  -5.579  -0.216  0.00  0.00     0.150 HD
ENDBRANCH   4  24
BRANCH   6  27
HETATM   27  O   UNK N   1       1.935  -0.557  -0.986  0.00  0.00    -0.390 OA
HETATM   28  H   UNK N   1       2.547  -0.271  -1.682  0.00  0.00     0.210 HD
ENDBRANCH   6  27
BRANCH   1  29
HETATM   29  O   UNK N   1       4.050  -1.547   1.027  0.00  0.00    -0.349 OA
BRANCH  29  30
HETATM   30  C   UNK N   1       4.393  -0.304   0.470  0.00  0.00     0.291 C 
HETATM   31  O   UNK N   1       3.442   0.658   0.857  0.00  0.00    -0.356 OA
HETATM   32  C   UNK N   1       3.606   1.738  -0.026  0.00  0.00     0.210 C 
HETATM   33  C   UNK N   1       4.881   2.491   0.336  0.00  0.00     0.098 C 
HETATM   34  C   UNK N   1       4.742   3.060   1.743  0.00  0.00     0.050 C 
HETATM   35  C   UNK N   1       6.062   1.497   0.226  0.00  0.00     0.146 C 
HETATM   36  C   UNK N   1       5.764   0.173   0.947  0.00  0.00     0.198 C 
BRANCH  33  37
HETATM   37  O   UNK N   1       5.053   3.542  -0.565  0.00  0.00    -0.386 OA
HETATM   38  H   UNK N   1       5.746   3.803  -1.192  0.00  0.00     0.210 HD
ENDBRANCH  33  37
BRANCH  35  39
HETATM   39  N   UNK N   1       7.309   2.076   0.714  0.00  0.00    -0.416 N 
HETATM   40  C   UNK N   1       7.917   2.814  -0.379  0.00  0.00     0.140 C 
HETATM   41  H   UNK N   1       7.686   1.979   1.657  0.00  0.00     0.153 HD
ENDBRANCH  35  39
BRANCH  36  42
HETATM   42  O   UNK N   1       6.738  -0.767   0.621  0.00  0.00    -0.388 OA
HETATM   43  H   UNK N   1       6.511  -1.682   0.394  0.00  0.00     0.210 HD
ENDBRANCH  36  42
ENDBRANCH  29  30
ENDBRANCH   1  29
BRANCH   2  44
HETATM   44  N   UNK N   1       4.375  -4.395   0.483  0.00  0.00    -0.352 N 
HETATM   45  C   UNK N   1       5.181  -4.421  -0.615  0.00  0.00     0.246 C 
HETATM   46  O   UNK N   1       4.884  -3.795  -1.621  0.00  0.00    -0.271 OA
HETATM   47  H   UNK N   1       4.672  -4.891   1.280  0.00  0.00     0.163 HD
BRANCH  45  48
HETATM   48  C   UNK N   1       6.455  -5.227  -0.598  0.00  0.00     0.211 C 
BRANCH  48  49
HETATM   49  C   UNK N   1       7.696  -4.355  -0.782  0.00  0.00     0.060 C 
BRANCH  49  50
HETATM   50  C   UNK N   1       7.971  -3.487   0.437  0.00  0.00     0.114 C 
BRANCH  50  51
HETATM   51  N   UNK N   1       9.140  -2.662   0.195  0.00  0.00    -0.430 N 
HETATM   52  H   UNK N   1      10.053  -3.083   0.024  0.00  0.00     0.149 HD
HETATM   53  H   UNK N   1       9.047  -1.646   0.195  0.00  0.00     0.149 HD
ENDBRANCH  50  51
ENDBRANCH  49  50
ENDBRANCH  48  49
BRANCH  48  54
HETATM   54  O   UNK N   1       6.567  -5.988   0.569  0.00  0.00    -0.386 OA
HETATM   55  H   UNK N   1       6.149  -6.320   1.379  0.00  0.00     0.210 HD
ENDBRANCH  48  54
ENDBRANCH  45  48
ENDBRANCH   2  44
TORSDOF 21
