MODEL 1
REMARK VINA RESULT:      -6.1      0.000      0.000
REMARK  3 active torsions:
REMARK  status: ('A' for Active; 'I' for Inactive)
REMARK    1  A    between atoms: N_6  and  C_7 
REMARK    2  A    between atoms: C_7  and  C_8 
REMARK    3  A    between atoms: C_8  and  C_10 
ROOT
HETATM    1  C   UNK N   1      28.792  24.432  -3.738  0.00  0.00     0.212 C 
ENDROOT
BRANCH   1   2
HETATM    2  N   UNK N   1      29.250  23.280  -4.524  0.00  0.00    -0.346 N 
HETATM    3  C   UNK N   1      28.850  22.956  -5.787  0.00  0.00     0.141 A 
HETATM    4  S   UNK N   1      29.650  21.571  -6.234  0.00  0.00    -0.088 SA
HETATM    5  C   UNK N   1      30.518  21.345  -4.850  0.00  0.00     0.002 A 
HETATM    6  C   UNK N   1      30.172  22.394  -3.998  0.00  0.00     0.021 A 
HETATM    7  C   UNK N   1      31.477  20.238  -4.573  0.00  0.00     0.058 C 
HETATM    8  C   UNK N   1      30.750  22.549  -2.628  0.00  0.00     0.069 C 
ENDBRANCH   1   2
BRANCH   1   9
HETATM    9  C   UNK N   1      27.335  24.528  -3.345  0.00  0.00     0.177 C 
HETATM   10  O   UNK N   1      26.836  23.764  -2.532  0.00  0.00    -0.291 OA
BRANCH   9  11
HETATM   11  C   UNK N   1      26.515  25.585  -3.979  0.00  0.00     0.011 A 
HETATM   12  C   UNK N   1      26.364  26.844  -3.379  0.00  0.00     0.015 A 
HETATM   13  C   UNK N   1      25.583  27.828  -3.996  0.00  0.00     0.001 A 
HETATM   14  C   UNK N   1      24.950  27.560  -5.214  0.00  0.00     0.000 A 
HETATM   15  C   UNK N   1      25.096  26.310  -5.817  0.00  0.00     0.001 A 
HETATM   16  C   UNK N   1      25.874  25.329  -5.203  0.00  0.00     0.015 A 
ENDBRANCH   9  11
ENDBRANCH   1   9
TORSDOF 3
ENDMDL
MODEL 2
REMARK VINA RESULT:      -6.1      0.928      1.647
REMARK  3 active torsions:
REMARK  status: ('A' for Active; 'I' for Inactive)
REMARK    1  A    between atoms: N_6  and  C_7 
REMARK    2  A    between atoms: C_7  and  C_8 
REMARK    3  A    between atoms: C_8  and  C_10 
ROOT
HETATM    1  C   UNK N   1      28.862  24.481  -3.715  0.00  0.00     0.212 C 
ENDROOT
BRANCH   1   2
HETATM    2  N   UNK N   1      29.496  23.178  -3.944  0.00  0.00    -0.346 N 
HETATM    3  C   UNK N   1      30.156  22.427  -3.016  0.00  0.00     0.141 A 
HETATM    4  S   UNK N   1      30.691  21.045  -3.765  0.00  0.00    -0.088 SA
HETATM    5  C   UNK N   1      30.106  21.356  -5.276  0.00  0.00     0.002 A 
HETATM    6  C   UNK N   1      29.465  22.593  -5.197  0.00  0.00     0.021 A 
HETATM    7  C   UNK N   1      30.243  20.487  -6.478  0.00  0.00     0.058 C 
HETATM    8  C   UNK N   1      28.797  23.235  -6.371  0.00  0.00     0.069 C 
ENDBRANCH   1   2
BRANCH   1   9
HETATM    9  C   UNK N   1      27.399  24.534  -3.335  0.00  0.00     0.177 C 
HETATM   10  O   UNK N   1      26.914  23.753  -2.530  0.00  0.00    -0.291 OA
BRANCH   9  11
HETATM   11  C   UNK N   1      26.555  25.571  -3.971  0.00  0.00     0.011 A 
HETATM   12  C   UNK N   1      26.391  26.834  -3.382  0.00  0.00     0.015 A 
HETATM   13  C   UNK N   1      25.588  27.799  -4.002  0.00  0.00     0.001 A 
HETATM   14  C   UNK N   1      24.947  27.508  -5.210  0.00  0.00     0.000 A 
HETATM   15  C   UNK N   1      25.107  26.254  -5.802  0.00  0.00     0.001 A 
HETATM   16  C   UNK N   1      25.907  25.292  -5.185  0.00  0.00     0.015 A 
ENDBRANCH   9  11
ENDBRANCH   1   9
TORSDOF 3
ENDMDL
MODEL 3
REMARK VINA RESULT:      -5.8     21.280     24.055
REMARK  3 active torsions:
REMARK  status: ('A' for Active; 'I' for Inactive)
REMARK    1  A    between atoms: N_6  and  C_7 
REMARK    2  A    between atoms: C_7  and  C_8 
REMARK    3  A    between atoms: C_8  and  C_10 
ROOT
HETATM    1  C   UNK N   1      36.405  13.563  14.656  0.00  0.00     0.212 C 
ENDROOT
BRANCH   1   2
HETATM    2  N   UNK N   1      36.483  13.726  13.200  0.00  0.00    -0.346 N 
HETATM    3  C   UNK N   1      36.003  14.780  12.480  0.00  0.00     0.141 A 
HETATM    4  S   UNK N   1      36.334  14.494  10.877  0.00  0.00    -0.088 SA
HETATM    5  C   UNK N   1      37.088  13.037  11.050  0.00  0.00     0.002 A 
HETATM    6  C   UNK N   1      37.084  12.757  12.417  0.00  0.00     0.021 A 
HETATM    7  C   UNK N   1      37.655  12.196   9.959  0.00  0.00     0.058 C 
HETATM    8  C   UNK N   1      37.680  11.512  12.989  0.00  0.00     0.069 C 
ENDBRANCH   1   2
BRANCH   1   9
HETATM    9  C   UNK N   1      35.232  12.820  15.255  0.00  0.00     0.177 C 
HETATM   10  O   UNK N   1      34.256  12.513  14.587  0.00  0.00    -0.291 OA
BRANCH   9  11
HETATM   11  C   UNK N   1      35.296  12.466  16.692  0.00  0.00     0.011 A 
HETATM   12  C   UNK N   1      35.543  11.149  17.105  0.00  0.00     0.015 A 
HETATM   13  C   UNK N   1      35.599  10.839  18.468  0.00  0.00     0.001 A 
HETATM   14  C   UNK N   1      35.409  11.841  19.425  0.00  0.00     0.000 A 
HETATM   15  C   UNK N   1      35.164  13.155  19.021  0.00  0.00     0.001 A 
HETATM   16  C   UNK N   1      35.108  13.465  17.662  0.00  0.00     0.015 A 
ENDBRANCH   9  11
ENDBRANCH   1   9
TORSDOF 3
ENDMDL
MODEL 4
REMARK VINA RESULT:      -5.5     10.977     13.758
REMARK  3 active torsions:
REMARK  status: ('A' for Active; 'I' for Inactive)
REMARK    1  A    between atoms: N_6  and  C_7 
REMARK    2  A    between atoms: C_7  and  C_8 
REMARK    3  A    between atoms: C_8  and  C_10 
ROOT
HETATM    1  C   UNK N   1      28.869  17.217   7.198  0.00  0.00     0.212 C 
ENDROOT
BRANCH   1   2
HETATM    2  N   UNK N   1      28.257  18.444   6.674  0.00  0.00    -0.346 N 
HETATM    3  C   UNK N   1      27.912  19.546   7.400  0.00  0.00     0.141 A 
HETATM    4  S   UNK N   1      27.257  20.658   6.355  0.00  0.00    -0.088 SA
HETATM    5  C   UNK N   1      27.392  19.781   4.964  0.00  0.00     0.002 A 
HETATM    6  C   UNK N   1      27.973  18.566   5.327  0.00  0.00     0.021 A 
HETATM    7  C   UNK N   1      26.973  20.209   3.600  0.00  0.00     0.058 C 
HETATM    8  C   UNK N   1      28.265  17.482   4.339  0.00  0.00     0.069 C 
ENDBRANCH   1   2
BRANCH   1   9
HETATM    9  C   UNK N   1      30.069  17.322   8.112  0.00  0.00     0.177 C 
HETATM   10  O   UNK N   1      29.952  17.332   9.329  0.00  0.00    -0.291 OA
BRANCH   9  11
HETATM   11  C   UNK N   1      31.410  17.412   7.490  0.00  0.00     0.011 A 
HETATM   12  C   UNK N   1      32.526  17.833   8.227  0.00  0.00     0.015 A 
HETATM   13  C   UNK N   1      33.783  17.911   7.617  0.00  0.00     0.001 A 
HETATM   14  C   UNK N   1      33.932  17.568   6.270  0.00  0.00     0.000 A 
HETATM   15  C   UNK N   1      32.825  17.147   5.530  0.00  0.00     0.001 A 
HETATM   16  C   UNK N   1      31.572  17.070   6.137  0.00  0.00     0.015 A 
ENDBRANCH   9  11
ENDBRANCH   1   9
TORSDOF 3
ENDMDL
MODEL 5
REMARK VINA RESULT:      -5.5     10.589     12.346
REMARK  3 active torsions:
REMARK  status: ('A' for Active; 'I' for Inactive)
REMARK    1  A    between atoms: N_6  and  C_7 
REMARK    2  A    between atoms: C_7  and  C_8 
REMARK    3  A    between atoms: C_8  and  C_10 
ROOT
HETATM    1  C   UNK N   1      29.637  16.645   6.197  0.00  0.00     0.212 C 
ENDROOT
BRANCH   1   2
HETATM    2  N   UNK N   1      31.075  16.937   6.162  0.00  0.00    -0.346 N 
HETATM    3  C   UNK N   1      31.911  16.744   5.101  0.00  0.00     0.141 A 
HETATM    4  S   UNK N   1      33.434  17.223   5.560  0.00  0.00    -0.088 SA
HETATM    5  C   UNK N   1      33.079  17.684   7.104  0.00  0.00     0.002 A 
HETATM    6  C   UNK N   1      31.713  17.456   7.273  0.00  0.00     0.021 A 
HETATM    7  C   UNK N   1      34.033  18.232   8.109  0.00  0.00     0.058 C 
HETATM    8  C   UNK N   1      30.996  17.748   8.553  0.00  0.00     0.069 C 
ENDBRANCH   1   2
BRANCH   1   9
HETATM    9  C   UNK N   1      28.742  17.212   5.119  0.00  0.00     0.177 C 
HETATM   10  O   UNK N   1      28.531  16.612   4.075  0.00  0.00    -0.291 OA
BRANCH   9  11
HETATM   11  C   UNK N   1      28.115  18.532   5.361  0.00  0.00     0.011 A 
HETATM   12  C   UNK N   1      28.029  19.068   6.654  0.00  0.00     0.015 A 
HETATM   13  C   UNK N   1      27.432  20.318   6.858  0.00  0.00     0.001 A 
HETATM   14  C   UNK N   1      26.920  21.036   5.774  0.00  0.00     0.000 A 
HETATM   15  C   UNK N   1      27.003  20.509   4.484  0.00  0.00     0.001 A 
HETATM   16  C   UNK N   1      27.597  19.264   4.279  0.00  0.00     0.015 A 
ENDBRANCH   9  11
ENDBRANCH   1   9
TORSDOF 3
ENDMDL
MODEL 6
REMARK VINA RESULT:      -5.5      2.569      6.219
REMARK  3 active torsions:
REMARK  status: ('A' for Active; 'I' for Inactive)
REMARK    1  A    between atoms: N_6  and  C_7 
REMARK    2  A    between atoms: C_7  and  C_8 
REMARK    3  A    between atoms: C_8  and  C_10 
ROOT
HETATM    1  C   UNK N   1      30.162  24.074  -3.490  0.00  0.00     0.212 C 
ENDROOT
BRANCH   1   2
HETATM    2  N   UNK N   1      28.773  24.078  -3.963  0.00  0.00    -0.346 N 
HETATM    3  C   UNK N   1      27.663  24.299  -3.202  0.00  0.00     0.141 A 
HETATM    4  S   UNK N   1      26.336  24.199  -4.197  0.00  0.00    -0.088 SA
HETATM    5  C   UNK N   1      27.126  23.874  -5.608  0.00  0.00     0.002 A 
HETATM    6  C   UNK N   1      28.485  23.842  -5.295  0.00  0.00     0.021 A 
HETATM    7  C   UNK N   1      26.503  23.658  -6.945  0.00  0.00     0.058 C 
HETATM    8  C   UNK N   1      29.544  23.574  -6.315  0.00  0.00     0.069 C 
ENDBRANCH   1   2
BRANCH   1   9
HETATM    9  C   UNK N   1      30.633  22.953  -2.592  0.00  0.00     0.177 C 
HETATM   10  O   UNK N   1      30.389  22.942  -1.394  0.00  0.00    -0.291 OA
BRANCH   9  11
HETATM   11  C   UNK N   1      31.408  21.850  -3.206  0.00  0.00     0.011 A 
HETATM   12  C   UNK N   1      32.751  21.631  -2.869  0.00  0.00     0.015 A 
HETATM   13  C   UNK N   1      33.463  20.583  -3.463  0.00  0.00     0.001 A 
HETATM   14  C   UNK N   1      32.838  19.749  -4.395  0.00  0.00     0.000 A 
HETATM   15  C   UNK N   1      31.500  19.961  -4.735  0.00  0.00     0.001 A 
HETATM   16  C   UNK N   1      30.790  21.005  -4.143  0.00  0.00     0.015 A 
ENDBRANCH   9  11
ENDBRANCH   1   9
TORSDOF 3
ENDMDL
MODEL 7
REMARK VINA RESULT:      -5.5      2.076      3.138
REMARK  3 active torsions:
REMARK  status: ('A' for Active; 'I' for Inactive)
REMARK    1  A    between atoms: N_6  and  C_7 
REMARK    2  A    between atoms: C_7  and  C_8 
REMARK    3  A    between atoms: C_8  and  C_10 
ROOT
HETATM    1  C   UNK N   1      27.201  23.806  -7.052  0.00  0.00     0.212 C 
ENDROOT
BRANCH   1   2
HETATM    2  N   UNK N   1      28.187  22.761  -6.752  0.00  0.00    -0.346 N 
HETATM    3  C   UNK N   1      29.144  22.810  -5.782  0.00  0.00     0.141 A 
HETATM    4  S   UNK N   1      30.006  21.391  -5.846  0.00  0.00    -0.088 SA
HETATM    5  C   UNK N   1      29.197  20.681  -7.095  0.00  0.00     0.002 A 
HETATM    6  C   UNK N   1      28.209  21.587  -7.483  0.00  0.00     0.021 A 
HETATM    7  C   UNK N   1      29.473  19.341  -7.685  0.00  0.00     0.058 C 
HETATM    8  C   UNK N   1      27.253  21.313  -8.599  0.00  0.00     0.069 C 
ENDBRANCH   1   2
BRANCH   1   9
HETATM    9  C   UNK N   1      26.004  23.974  -6.144  0.00  0.00     0.177 C 
HETATM   10  O   UNK N   1      25.152  23.104  -6.035  0.00  0.00    -0.291 OA
BRANCH   9  11
HETATM   11  C   UNK N   1      25.887  25.236  -5.378  0.00  0.00     0.011 A 
HETATM   12  C   UNK N   1      25.222  26.350  -5.912  0.00  0.00     0.015 A 
HETATM   13  C   UNK N   1      25.124  27.532  -5.169  0.00  0.00     0.001 A 
HETATM   14  C   UNK N   1      25.688  27.607  -3.892  0.00  0.00     0.000 A 
HETATM   15  C   UNK N   1      26.350  26.502  -3.354  0.00  0.00     0.001 A 
HETATM   16  C   UNK N   1      26.448  25.324  -4.093  0.00  0.00     0.015 A 
ENDBRANCH   9  11
ENDBRANCH   1   9
TORSDOF 3
ENDMDL
MODEL 8
REMARK VINA RESULT:      -5.3      1.960      2.624
REMARK  3 active torsions:
REMARK  status: ('A' for Active; 'I' for Inactive)
REMARK    1  A    between atoms: N_6  and  C_7 
REMARK    2  A    between atoms: C_7  and  C_8 
REMARK    3  A    between atoms: C_8  and  C_10 
ROOT
HETATM    1  C   UNK N   1      27.134  23.670  -7.298  0.00  0.00     0.212 C 
ENDROOT
BRANCH   1   2
HETATM    2  N   UNK N   1      27.896  22.419  -7.376  0.00  0.00    -0.346 N 
HETATM    3  C   UNK N   1      27.666  21.388  -8.239  0.00  0.00     0.141 A 
HETATM    4  S   UNK N   1      28.793  20.206  -7.931  0.00  0.00    -0.088 SA
HETATM    5  C   UNK N   1      29.598  20.963  -6.706  0.00  0.00     0.002 A 
HETATM    6  C   UNK N   1      28.963  22.192  -6.525  0.00  0.00     0.021 A 
HETATM    7  C   UNK N   1      30.766  20.432  -5.949  0.00  0.00     0.058 C 
HETATM    8  C   UNK N   1      29.398  23.184  -5.495  0.00  0.00     0.069 C 
ENDBRANCH   1   2
BRANCH   1   9
HETATM    9  C   UNK N   1      25.995  23.781  -6.310  0.00  0.00     0.177 C 
HETATM   10  O   UNK N   1      25.178  22.883  -6.167  0.00  0.00    -0.291 OA
BRANCH   9  11
HETATM   11  C   UNK N   1      25.891  25.020  -5.507  0.00  0.00     0.011 A 
HETATM   12  C   UNK N   1      26.467  25.109  -4.231  0.00  0.00     0.015 A 
HETATM   13  C   UNK N   1      26.356  26.292  -3.491  0.00  0.00     0.001 A 
HETATM   14  C   UNK N   1      25.670  27.390  -4.020  0.00  0.00     0.000 A 
HETATM   15  C   UNK N   1      25.095  27.308  -5.289  0.00  0.00     0.001 A 
HETATM   16  C   UNK N   1      25.205  26.131  -6.027  0.00  0.00     0.015 A 
ENDBRANCH   9  11
ENDBRANCH   1   9
TORSDOF 3
ENDMDL
MODEL 9
REMARK VINA RESULT:      -5.3     25.480     27.975
REMARK  3 active torsions:
REMARK  status: ('A' for Active; 'I' for Inactive)
REMARK    1  A    between atoms: N_6  and  C_7 
REMARK    2  A    between atoms: C_7  and  C_8 
REMARK    3  A    between atoms: C_8  and  C_10 
ROOT
HETATM    1  C   UNK N   1      35.357  10.688  20.129  0.00  0.00     0.212 C 
ENDROOT
BRANCH   1   2
HETATM    2  N   UNK N   1      34.116  10.151  20.698  0.00  0.00    -0.346 N 
HETATM    3  C   UNK N   1      33.519  10.555  21.855  0.00  0.00     0.141 A 
HETATM    4  S   UNK N   1      32.146   9.643  22.065  0.00  0.00    -0.088 SA
HETATM    5  C   UNK N   1      32.271   8.717  20.706  0.00  0.00     0.002 A 
HETATM    6  C   UNK N   1      33.433   9.134  20.056  0.00  0.00     0.021 A 
HETATM    7  C   UNK N   1      31.327   7.649  20.269  0.00  0.00     0.058 C 
HETATM    8  C   UNK N   1      33.903   8.531  18.771  0.00  0.00     0.069 C 
ENDBRANCH   1   2
BRANCH   1   9
HETATM    9  C   UNK N   1      35.324  12.014  19.402  0.00  0.00     0.177 C 
HETATM   10  O   UNK N   1      35.219  13.074  20.001  0.00  0.00    -0.291 OA
BRANCH   9  11
HETATM   11  C   UNK N   1      35.423  11.997  17.925  0.00  0.00     0.011 A 
HETATM   12  C   UNK N   1      36.007  10.916  17.249  0.00  0.00     0.015 A 
HETATM   13  C   UNK N   1      36.090  10.923  15.852  0.00  0.00     0.001 A 
HETATM   14  C   UNK N   1      35.591  12.007  15.124  0.00  0.00     0.000 A 
HETATM   15  C   UNK N   1      35.007  13.086  15.790  0.00  0.00     0.001 A 
HETATM   16  C   UNK N   1      34.924  13.080  17.182  0.00  0.00     0.015 A 
ENDBRANCH   9  11
ENDBRANCH   1   9
TORSDOF 3
ENDMDL
