MODEL 1
REMARK VINA RESULT:      -7.0      0.000      0.000
REMARK  5 active torsions:
REMARK  status: ('A' for Active; 'I' for Inactive)
REMARK    1  A    between atoms: C_3  and  C_19 
REMARK    2  A    between atoms: C_8  and  N_13 
REMARK    3  A    between atoms: C_22  and  C_26 
REMARK    4  A    between atoms: C_26  and  C_27 
REMARK    5  A    between atoms: C_27  and  O_28 
ROOT
HETATM    1  C   UNK N   1      33.058  16.818   5.773  0.00  0.00     0.070 C 
HETATM    2  C   UNK N   1      31.910  17.012   6.702  0.00  0.00     0.036 A 
HETATM    3  C   UNK N   1      31.865  16.738   8.067  0.00  0.00     0.092 A 
HETATM    4  N   UNK N   1      30.642  17.095   8.494  0.00  0.00    -0.235 N 
HETATM    5  C   UNK N   1      29.970  17.550   7.430  0.00  0.00     0.154 A 
HETATM    6  N   UNK N   1      30.718  17.516   6.306  0.00  0.00    -0.341 N 
ATOM      7  HN  UNK N   1      30.446  17.807   5.367  1.00  0.00     0.167 HD
HETATM    8  C   UNK N   1      28.650  18.001   7.558  0.00  0.00     0.078 A 
HETATM    9  C   UNK N   1      28.096  17.972   8.853  0.00  0.00     0.052 A 
HETATM   10  C   UNK N   1      28.855  17.483   9.934  0.00  0.00     0.110 A 
HETATM   11  N   UNK N   1      30.127  17.043   9.724  0.00  0.00    -0.303 N 
ATOM     12  HN  UNK N   1      30.679  16.677  10.499  1.00  0.00     0.186 HD
ENDROOT
BRANCH   3  13
HETATM   13  C   UNK N   1      32.937  16.177   8.922  0.00  0.00     0.010 A 
HETATM   14  C   UNK N   1      34.060  16.948   9.231  0.00  0.00     0.017 A 
HETATM   15  C   UNK N   1      35.092  16.409   9.987  0.00  0.00     0.026 A 
HETATM   16  C   UNK N   1      34.992  15.098  10.454  0.00  0.00     0.011 A 
HETATM   17  N   UNK N   1      33.887  14.359  10.164  0.00  0.00    -0.368 N 
HETATM   18  C   UNK N   1      32.869  14.866   9.415  0.00  0.00     0.102 A 
ATOM     19  HN  UNK N   1      33.818  13.403  10.516  1.00  0.00     0.165 HD
BRANCH  16  20
HETATM   20  C   UNK N   1      36.123  14.475  11.208  0.00  0.00     0.083 C 
BRANCH  20  21
HETATM   21  C   UNK N   1      35.892  14.490  12.712  0.00  0.00     0.173 C 
BRANCH  21  22
HETATM   22  O   UNK N   1      34.730  13.770  13.009  0.00  0.00    -0.396 OA
HETATM   23  C   UNK N   1      35.142  12.444  13.156  0.00  0.00     0.201 C 
ENDBRANCH  21  22
ENDBRANCH  20  21
ENDBRANCH  16  20
ENDBRANCH   3  13
BRANCH   8  24
HETATM   24  N   UNK N   1      27.873  18.438   6.438  0.00  0.00    -0.374 N 
HETATM   25  C   UNK N   1      27.315  17.495   5.490  0.00  0.00     0.149 C 
HETATM   26  C   UNK N   1      27.593  18.010   4.082  0.00  0.00     0.187 C 
HETATM   27  O   UNK N   1      27.051  19.303   3.951  0.00  0.00    -0.388 OA
HETATM   28  C   UNK N   1      27.837  20.157   4.752  0.00  0.00     0.187 C 
HETATM   29  C   UNK N   1      27.585  19.841   6.230  0.00  0.00     0.149 C 
ENDBRANCH   8  24
TORSDOF 5
ENDMDL
MODEL 2
REMARK VINA RESULT:      -6.9      2.854      9.422
REMARK  5 active torsions:
REMARK  status: ('A' for Active; 'I' for Inactive)
REMARK    1  A    between atoms: C_3  and  C_19 
REMARK    2  A    between atoms: C_8  and  N_13 
REMARK    3  A    between atoms: C_22  and  C_26 
REMARK    4  A    between atoms: C_26  and  C_27 
REMARK    5  A    between atoms: C_27  and  O_28 
ROOT
HETATM    1  C   UNK N   1      29.545  16.702   3.135  0.00  0.00     0.070 C 
HETATM    2  C   UNK N   1      29.517  17.158   4.553  0.00  0.00     0.036 A 
HETATM    3  C   UNK N   1      28.562  17.964   5.168  0.00  0.00     0.092 A 
HETATM    4  N   UNK N   1      28.930  18.088   6.454  0.00  0.00    -0.235 N 
HETATM    5  C   UNK N   1      30.068  17.401   6.607  0.00  0.00     0.154 A 
HETATM    6  N   UNK N   1      30.462  16.811   5.457  0.00  0.00    -0.341 N 
ATOM      7  HN  UNK N   1      31.288  16.233   5.304  1.00  0.00     0.167 HD
HETATM    8  C   UNK N   1      30.706  17.341   7.853  0.00  0.00     0.078 A 
HETATM    9  C   UNK N   1      30.074  18.013   8.918  0.00  0.00     0.052 A 
HETATM   10  C   UNK N   1      28.875  18.719   8.694  0.00  0.00     0.110 A 
HETATM   11  N   UNK N   1      28.328  18.745   7.447  0.00  0.00    -0.303 N 
ATOM     12  HN  UNK N   1      27.467  19.263   7.274  1.00  0.00     0.186 HD
ENDROOT
BRANCH   3  13
HETATM   13  C   UNK N   1      27.354  18.572   4.564  0.00  0.00     0.010 A 
HETATM   14  C   UNK N   1      27.433  19.825   3.952  0.00  0.00     0.017 A 
HETATM   15  C   UNK N   1      26.294  20.423   3.431  0.00  0.00     0.026 A 
HETATM   16  C   UNK N   1      25.070  19.755   3.504  0.00  0.00     0.011 A 
HETATM   17  N   UNK N   1      25.004  18.526   4.085  0.00  0.00    -0.368 N 
HETATM   18  C   UNK N   1      26.110  17.928   4.611  0.00  0.00     0.102 A 
ATOM     19  HN  UNK N   1      24.108  18.040   4.127  1.00  0.00     0.165 HD
BRANCH  16  20
HETATM   20  C   UNK N   1      23.819  20.411   3.015  0.00  0.00     0.083 C 
BRANCH  20  21
HETATM   21  C   UNK N   1      22.572  19.617   3.375  0.00  0.00     0.173 C 
BRANCH  21  22
HETATM   22  O   UNK N   1      21.463  20.469   3.373  0.00  0.00    -0.396 OA
HETATM   23  C   UNK N   1      21.072  20.567   2.036  0.00  0.00     0.201 C 
ENDBRANCH  21  22
ENDBRANCH  20  21
ENDBRANCH  16  20
ENDBRANCH   3  13
BRANCH   8  24
HETATM   24  N   UNK N   1      31.956  16.670   8.048  0.00  0.00    -0.374 N 
HETATM   25  C   UNK N   1      32.014  15.260   8.375  0.00  0.00     0.149 C 
HETATM   26  C   UNK N   1      33.005  15.074   9.519  0.00  0.00     0.187 C 
HETATM   27  O   UNK N   1      34.254  15.599   9.134  0.00  0.00    -0.388 OA
HETATM   28  C   UNK N   1      34.107  17.001   9.079  0.00  0.00     0.187 C 
HETATM   29  C   UNK N   1      33.212  17.371   7.891  0.00  0.00     0.149 C 
ENDBRANCH   8  24
TORSDOF 5
ENDMDL
MODEL 3
REMARK VINA RESULT:      -6.9      2.627      9.526
REMARK  5 active torsions:
REMARK  status: ('A' for Active; 'I' for Inactive)
REMARK    1  A    between atoms: C_3  and  C_19 
REMARK    2  A    between atoms: C_8  and  N_13 
REMARK    3  A    between atoms: C_22  and  C_26 
REMARK    4  A    between atoms: C_26  and  C_27 
REMARK    5  A    between atoms: C_27  and  O_28 
ROOT
HETATM    1  C   UNK N   1      28.154  18.350   8.240  0.00  0.00     0.070 C 
HETATM    2  C   UNK N   1      29.135  17.937   7.197  0.00  0.00     0.036 A 
HETATM    3  C   UNK N   1      29.036  18.114   5.819  0.00  0.00     0.092 A 
HETATM    4  N   UNK N   1      30.161  17.613   5.282  0.00  0.00    -0.235 N 
HETATM    5  C   UNK N   1      30.902  17.137   6.290  0.00  0.00     0.154 A 
HETATM    6  N   UNK N   1      30.303  17.320   7.488  0.00  0.00    -0.341 N 
ATOM      7  HN  UNK N   1      30.654  17.052   8.407  1.00  0.00     0.167 HD
HETATM    8  C   UNK N   1      32.147  16.544   6.046  0.00  0.00     0.078 A 
HETATM    9  C   UNK N   1      32.573  16.506   4.703  0.00  0.00     0.052 A 
HETATM   10  C   UNK N   1      31.749  17.025   3.686  0.00  0.00     0.110 A 
HETATM   11  N   UNK N   1      30.541  17.568   4.004  0.00  0.00    -0.303 N 
ATOM     12  HN  UNK N   1      29.933  17.935   3.273  1.00  0.00     0.186 HD
ENDROOT
BRANCH   3  13
HETATM   13  C   UNK N   1      27.932  18.741   5.056  0.00  0.00     0.010 A 
HETATM   14  C   UNK N   1      26.997  17.943   4.395  0.00  0.00     0.017 A 
HETATM   15  C   UNK N   1      25.992  18.526   3.635  0.00  0.00     0.026 A 
HETATM   16  C   UNK N   1      25.909  19.917   3.552  0.00  0.00     0.011 A 
HETATM   17  N   UNK N   1      26.813  20.689   4.215  0.00  0.00    -0.368 N 
HETATM   18  C   UNK N   1      27.812  20.135   4.956  0.00  0.00     0.102 A 
ATOM     19  HN  UNK N   1      26.741  21.705   4.156  1.00  0.00     0.165 HD
BRANCH  16  20
HETATM   20  C   UNK N   1      24.879  20.563   2.682  0.00  0.00     0.083 C 
BRANCH  20  21
HETATM   21  C   UNK N   1      23.462  20.185   3.088  0.00  0.00     0.173 C 
BRANCH  21  22
HETATM   22  O   UNK N   1      22.580  21.195   2.687  0.00  0.00    -0.396 OA
HETATM   23  C   UNK N   1      21.317  20.600   2.670  0.00  0.00     0.201 C 
ENDBRANCH  21  22
ENDBRANCH  20  21
ENDBRANCH  16  20
ENDBRANCH   3  13
BRANCH   8  24
HETATM   24  N   UNK N   1      32.944  15.967   7.085  0.00  0.00    -0.374 N 
HETATM   25  C   UNK N   1      32.569  14.722   7.724  0.00  0.00     0.149 C 
HETATM   26  C   UNK N   1      32.716  14.894   9.232  0.00  0.00     0.187 C 
HETATM   27  O   UNK N   1      34.038  15.281   9.522  0.00  0.00    -0.388 OA
HETATM   28  C   UNK N   1      34.191  16.600   9.046  0.00  0.00     0.187 C 
HETATM   29  C   UNK N   1      34.177  16.591   7.513  0.00  0.00     0.149 C 
ENDBRANCH   8  24
TORSDOF 5
ENDMDL
MODEL 4
REMARK VINA RESULT:      -6.9      1.492      2.668
REMARK  5 active torsions:
REMARK  status: ('A' for Active; 'I' for Inactive)
REMARK    1  A    between atoms: C_3  and  C_19 
REMARK    2  A    between atoms: C_8  and  N_13 
REMARK    3  A    between atoms: C_22  and  C_26 
REMARK    4  A    between atoms: C_26  and  C_27 
REMARK    5  A    between atoms: C_27  and  O_28 
ROOT
HETATM    1  C   UNK N   1      29.515  18.653   9.828  0.00  0.00     0.070 C 
HETATM    2  C   UNK N   1      29.616  18.217   8.407  0.00  0.00     0.036 A 
HETATM    3  C   UNK N   1      30.650  17.501   7.809  0.00  0.00     0.092 A 
HETATM    4  N   UNK N   1      30.300  17.312   6.526  0.00  0.00    -0.235 N 
HETATM    5  C   UNK N   1      29.113  17.905   6.350  0.00  0.00     0.154 A 
HETATM    6  N   UNK N   1      28.657  18.473   7.488  0.00  0.00    -0.341 N 
ATOM      7  HN  UNK N   1      27.784  18.982   7.623  1.00  0.00     0.167 HD
HETATM    8  C   UNK N   1      28.479  17.881   5.100  0.00  0.00     0.078 A 
HETATM    9  C   UNK N   1      29.144  17.185   4.071  0.00  0.00     0.052 A 
HETATM   10  C   UNK N   1      30.391  16.580   4.318  0.00  0.00     0.110 A 
HETATM   11  N   UNK N   1      30.951  16.666   5.557  0.00  0.00    -0.303 N 
ATOM     12  HN  UNK N   1      31.859  16.240   5.742  1.00  0.00     0.186 HD
ENDROOT
BRANCH   3  13
HETATM   13  C   UNK N   1      31.900  17.009   8.434  0.00  0.00     0.010 A 
HETATM   14  C   UNK N   1      33.071  17.765   8.345  0.00  0.00     0.017 A 
HETATM   15  C   UNK N   1      34.257  17.284   8.883  0.00  0.00     0.026 A 
HETATM   16  C   UNK N   1      34.268  16.047   9.531  0.00  0.00     0.011 A 
HETATM   17  N   UNK N   1      33.119  15.324   9.629  0.00  0.00    -0.368 N 
HETATM   18  C   UNK N   1      31.949  15.775   9.099  0.00  0.00     0.102 A 
ATOM     19  HN  UNK N   1      33.134  14.426  10.112  1.00  0.00     0.165 HD
BRANCH  16  20
HETATM   20  C   UNK N   1      35.549  15.479  10.052  0.00  0.00     0.083 C 
BRANCH  20  21
HETATM   21  C   UNK N   1      35.556  15.371  11.571  0.00  0.00     0.173 C 
BRANCH  21  22
HETATM   22  O   UNK N   1      34.558  14.479  11.977  0.00  0.00    -0.396 OA
HETATM   23  C   UNK N   1      35.132  13.210  11.880  0.00  0.00     0.201 C 
ENDBRANCH  21  22
ENDBRANCH  20  21
ENDBRANCH  16  20
ENDBRANCH   3  13
BRANCH   8  24
HETATM   24  N   UNK N   1      27.241  18.553   4.851  0.00  0.00    -0.374 N 
HETATM   25  C   UNK N   1      25.974  17.852   4.912  0.00  0.00     0.149 C 
HETATM   26  C   UNK N   1      25.151  18.242   3.688  0.00  0.00     0.187 C 
HETATM   27  O   UNK N   1      25.002  19.641   3.663  0.00  0.00    -0.388 OA
HETATM   28  C   UNK N   1      26.271  20.182   3.366  0.00  0.00     0.187 C 
HETATM   29  C   UNK N   1      27.205  19.970   4.562  0.00  0.00     0.149 C 
ENDBRANCH   8  24
TORSDOF 5
ENDMDL
MODEL 5
REMARK VINA RESULT:      -6.4      3.815     10.293
REMARK  5 active torsions:
REMARK  status: ('A' for Active; 'I' for Inactive)
REMARK    1  A    between atoms: C_3  and  C_19 
REMARK    2  A    between atoms: C_8  and  N_13 
REMARK    3  A    between atoms: C_22  and  C_26 
REMARK    4  A    between atoms: C_26  and  C_27 
REMARK    5  A    between atoms: C_27  and  O_28 
ROOT
HETATM    1  C   UNK N   1      26.790  20.931   6.784  0.00  0.00     0.070 C 
HETATM    2  C   UNK N   1      27.307  19.716   6.095  0.00  0.00     0.036 A 
HETATM    3  C   UNK N   1      26.716  19.016   5.045  0.00  0.00     0.092 A 
HETATM    4  N   UNK N   1      27.550  18.011   4.731  0.00  0.00    -0.235 N 
HETATM    5  C   UNK N   1      28.593  18.087   5.567  0.00  0.00     0.154 A 
HETATM    6  N   UNK N   1      28.481  19.127   6.422  0.00  0.00    -0.341 N 
ATOM      7  HN  UNK N   1      29.135  19.405   7.153  1.00  0.00     0.167 HD
HETATM    8  C   UNK N   1      29.642  17.162   5.488  0.00  0.00     0.078 A 
HETATM    9  C   UNK N   1      29.546  16.185   4.477  0.00  0.00     0.052 A 
HETATM   10  C   UNK N   1      28.423  16.157   3.627  0.00  0.00     0.110 A 
HETATM   11  N   UNK N   1      27.434  17.081   3.782  0.00  0.00    -0.303 N 
ATOM     12  HN  UNK N   1      26.613  17.061   3.178  1.00  0.00     0.186 HD
ENDROOT
BRANCH   3  13
HETATM   13  C   UNK N   1      25.430  19.302   4.368  0.00  0.00     0.010 A 
HETATM   14  C   UNK N   1      25.359  20.301   3.396  0.00  0.00     0.017 A 
HETATM   15  C   UNK N   1      24.145  20.609   2.796  0.00  0.00     0.026 A 
HETATM   16  C   UNK N   1      22.999  19.899   3.157  0.00  0.00     0.011 A 
HETATM   17  N   UNK N   1      23.080  18.913   4.092  0.00  0.00    -0.368 N 
HETATM   18  C   UNK N   1      24.259  18.605   4.699  0.00  0.00     0.102 A 
ATOM     19  HN  UNK N   1      22.239  18.393   4.344  1.00  0.00     0.165 HD
BRANCH  16  20
HETATM   20  C   UNK N   1      21.670  20.263   2.577  0.00  0.00     0.083 C 
BRANCH  20  21
HETATM   21  C   UNK N   1      20.520  19.935   3.518  0.00  0.00     0.173 C 
BRANCH  21  22
HETATM   22  O   UNK N   1      20.228  18.570   3.437  0.00  0.00    -0.396 OA
HETATM   23  C   UNK N   1      19.939  18.330   2.092  0.00  0.00     0.201 C 
ENDBRANCH  21  22
ENDBRANCH  20  21
ENDBRANCH  16  20
ENDBRANCH   3  13
BRANCH   8  24
HETATM   24  N   UNK N   1      30.746  17.169   6.399  0.00  0.00    -0.374 N 
HETATM   25  C   UNK N   1      32.111  17.303   5.933  0.00  0.00     0.149 C 
HETATM   26  C   UNK N   1      32.966  16.260   6.646  0.00  0.00     0.187 C 
HETATM   27  O   UNK N   1      32.842  16.440   8.037  0.00  0.00    -0.388 OA
HETATM   28  C   UNK N   1      31.530  16.052   8.383  0.00  0.00     0.187 C 
HETATM   29  C   UNK N   1      30.535  17.076   7.827  0.00  0.00     0.149 C 
ENDBRANCH   8  24
TORSDOF 5
ENDMDL
MODEL 6
REMARK VINA RESULT:      -6.2      3.118      8.745
REMARK  5 active torsions:
REMARK  status: ('A' for Active; 'I' for Inactive)
REMARK    1  A    between atoms: C_3  and  C_19 
REMARK    2  A    between atoms: C_8  and  N_13 
REMARK    3  A    between atoms: C_22  and  C_26 
REMARK    4  A    between atoms: C_26  and  C_27 
REMARK    5  A    between atoms: C_27  and  O_28 
ROOT
HETATM    1  C   UNK N   1      28.957  14.783   4.602  0.00  0.00     0.070 C 
HETATM    2  C   UNK N   1      29.138  15.732   5.735  0.00  0.00     0.036 A 
HETATM    3  C   UNK N   1      28.160  16.491   6.373  0.00  0.00     0.092 A 
HETATM    4  N   UNK N   1      28.778  17.175   7.351  0.00  0.00    -0.235 N 
HETATM    5  C   UNK N   1      30.077  16.857   7.296  0.00  0.00     0.154 A 
HETATM    6  N   UNK N   1      30.339  15.968   6.313  0.00  0.00    -0.341 N 
ATOM      7  HN  UNK N   1      31.241  15.565   6.063  1.00  0.00     0.167 HD
HETATM    8  C   UNK N   1      30.990  17.418   8.199  0.00  0.00     0.078 A 
HETATM    9  C   UNK N   1      30.461  18.298   9.164  0.00  0.00     0.052 A 
HETATM   10  C   UNK N   1      29.084  18.592   9.172  0.00  0.00     0.110 A 
HETATM   11  N   UNK N   1      28.264  18.021   8.247  0.00  0.00    -0.303 N 
ATOM     12  HN  UNK N   1      27.268  18.237   8.238  1.00  0.00     0.186 HD
ENDROOT
BRANCH   3  13
HETATM   13  C   UNK N   1      26.711  16.550   6.075  0.00  0.00     0.010 A 
HETATM   14  C   UNK N   1      25.869  15.517   6.492  0.00  0.00     0.017 A 
HETATM   15  C   UNK N   1      24.519  15.541   6.169  0.00  0.00     0.026 A 
HETATM   16  C   UNK N   1      24.003  16.615   5.441  0.00  0.00     0.011 A 
HETATM   17  N   UNK N   1      24.827  17.627   5.054  0.00  0.00    -0.368 N 
HETATM   18  C   UNK N   1      26.156  17.615   5.352  0.00  0.00     0.102 A 
ATOM     19  HN  UNK N   1      24.441  18.412   4.529  1.00  0.00     0.165 HD
BRANCH  16  20
HETATM   20  C   UNK N   1      22.569  16.625   5.021  0.00  0.00     0.083 C 
BRANCH  20  21
HETATM   21  C   UNK N   1      21.951  18.013   5.109  0.00  0.00     0.173 C 
BRANCH  21  22
HETATM   22  O   UNK N   1      21.860  18.396   6.451  0.00  0.00    -0.396 OA
HETATM   23  C   UNK N   1      20.881  17.570   7.008  0.00  0.00     0.201 C 
ENDBRANCH  21  22
ENDBRANCH  20  21
ENDBRANCH  16  20
ENDBRANCH   3  13
BRANCH   8  24
HETATM   24  N   UNK N   1      32.395  17.155   8.138  0.00  0.00    -0.374 N 
HETATM   25  C   UNK N   1      32.986  16.035   8.842  0.00  0.00     0.149 C 
HETATM   26  C   UNK N   1      34.238  16.528   9.560  0.00  0.00     0.187 C 
HETATM   27  O   UNK N   1      35.111  17.103   8.617  0.00  0.00    -0.388 OA
HETATM   28  C   UNK N   1      34.510  18.305   8.186  0.00  0.00     0.187 C 
HETATM   29  C   UNK N   1      33.275  17.980   7.339  0.00  0.00     0.149 C 
ENDBRANCH   8  24
TORSDOF 5
ENDMDL
MODEL 7
REMARK VINA RESULT:      -6.2      6.298      9.505
REMARK  5 active torsions:
REMARK  status: ('A' for Active; 'I' for Inactive)
REMARK    1  A    between atoms: C_3  and  C_19 
REMARK    2  A    between atoms: C_8  and  N_13 
REMARK    3  A    between atoms: C_22  and  C_26 
REMARK    4  A    between atoms: C_26  and  C_27 
REMARK    5  A    between atoms: C_27  and  O_28 
ROOT
HETATM    1  C   UNK N   1      37.249  15.121  15.458  0.00  0.00     0.070 C 
HETATM    2  C   UNK N   1      36.597  14.114  14.575  0.00  0.00     0.036 A 
HETATM    3  C   UNK N   1      35.958  12.936  14.956  0.00  0.00     0.092 A 
HETATM    4  N   UNK N   1      35.499  12.363  13.831  0.00  0.00    -0.235 N 
HETATM    5  C   UNK N   1      35.859  13.152  12.811  0.00  0.00     0.154 A 
HETATM    6  N   UNK N   1      36.537  14.243  13.230  0.00  0.00    -0.341 N 
ATOM      7  HN  UNK N   1      36.919  14.996  12.658  1.00  0.00     0.167 HD
HETATM    8  C   UNK N   1      35.522  12.816  11.493  0.00  0.00     0.078 A 
HETATM    9  C   UNK N   1      34.772  11.637  11.316  0.00  0.00     0.052 A 
HETATM   10  C   UNK N   1      34.421  10.849  12.429  0.00  0.00     0.110 A 
HETATM   11  N   UNK N   1      34.805  11.234  13.678  0.00  0.00    -0.303 N 
ATOM     12  HN  UNK N   1      34.565  10.664  14.489  1.00  0.00     0.186 HD
ENDROOT
BRANCH   3  13
HETATM   13  C   UNK N   1      35.783  12.393  16.323  0.00  0.00     0.010 A 
HETATM   14  C   UNK N   1      35.194  13.177  17.316  0.00  0.00     0.017 A 
HETATM   15  C   UNK N   1      35.075  12.693  18.612  0.00  0.00     0.026 A 
HETATM   16  C   UNK N   1      35.531  11.408  18.912  0.00  0.00     0.011 A 
HETATM   17  N   UNK N   1      36.087  10.642  17.933  0.00  0.00    -0.368 N 
HETATM   18  C   UNK N   1      36.221  11.105  16.659  0.00  0.00     0.102 A 
ATOM     19  HN  UNK N   1      36.410   9.701  18.159  1.00  0.00     0.165 HD
BRANCH  16  20
HETATM   20  C   UNK N   1      35.479  10.895  20.315  0.00  0.00     0.083 C 
BRANCH  20  21
HETATM   21  C   UNK N   1      34.296   9.965  20.546  0.00  0.00     0.173 C 
BRANCH  21  22
HETATM   22  O   UNK N   1      33.931   9.370  19.334  0.00  0.00    -0.396 OA
HETATM   23  C   UNK N   1      32.799   8.605  19.622  0.00  0.00     0.201 C 
ENDBRANCH  21  22
ENDBRANCH  20  21
ENDBRANCH  16  20
ENDBRANCH   3  13
BRANCH   8  24
HETATM   24  N   UNK N   1      35.939  13.597  10.368  0.00  0.00    -0.374 N 
HETATM   25  C   UNK N   1      35.143  14.704   9.878  0.00  0.00     0.149 C 
HETATM   26  C   UNK N   1      35.053  14.594   8.360  0.00  0.00     0.187 C 
HETATM   27  O   UNK N   1      36.355  14.577   7.824  0.00  0.00    -0.388 OA
HETATM   28  C   UNK N   1      36.930  13.341   8.188  0.00  0.00     0.187 C 
HETATM   29  C   UNK N   1      37.193  13.329   9.698  0.00  0.00     0.149 C 
ENDBRANCH   8  24
TORSDOF 5
ENDMDL
MODEL 8
REMARK VINA RESULT:      -6.2      1.977      8.479
REMARK  5 active torsions:
REMARK  status: ('A' for Active; 'I' for Inactive)
REMARK    1  A    between atoms: C_3  and  C_19 
REMARK    2  A    between atoms: C_8  and  N_13 
REMARK    3  A    between atoms: C_22  and  C_26 
REMARK    4  A    between atoms: C_26  and  C_27 
REMARK    5  A    between atoms: C_27  and  O_28 
ROOT
HETATM    1  C   UNK N   1      29.989  18.730   9.318  0.00  0.00     0.070 C 
HETATM    2  C   UNK N   1      30.622  17.592   8.596  0.00  0.00     0.036 A 
HETATM    3  C   UNK N   1      30.164  16.953   7.446  0.00  0.00     0.092 A 
HETATM    4  N   UNK N   1      31.068  16.007   7.142  0.00  0.00    -0.235 N 
HETATM    5  C   UNK N   1      32.023  16.058   8.078  0.00  0.00     0.154 A 
HETATM    6  N   UNK N   1      31.785  17.023   8.992  0.00  0.00    -0.341 N 
ATOM      7  HN  UNK N   1      32.355  17.270   9.801  1.00  0.00     0.167 HD
HETATM    8  C   UNK N   1      33.116  15.182   8.033  0.00  0.00     0.078 A 
HETATM    9  C   UNK N   1      33.158  14.282   6.950  0.00  0.00     0.052 A 
HETATM   10  C   UNK N   1      32.123  14.278   5.995  0.00  0.00     0.110 A 
HETATM   11  N   UNK N   1      31.083  15.149   6.120  0.00  0.00    -0.303 N 
ATOM     12  HN  UNK N   1      30.324  15.145   5.440  1.00  0.00     0.186 HD
ENDROOT
BRANCH   3  13
HETATM   13  C   UNK N   1      28.936  17.242   6.670  0.00  0.00     0.010 A 
HETATM   14  C   UNK N   1      29.002  18.044   5.530  0.00  0.00     0.017 A 
HETATM   15  C   UNK N   1      27.846  18.361   4.829  0.00  0.00     0.026 A 
HETATM   16  C   UNK N   1      26.618  17.855   5.260  0.00  0.00     0.011 A 
HETATM   17  N   UNK N   1      26.564  17.058   6.362  0.00  0.00    -0.368 N 
HETATM   18  C   UNK N   1      27.686  16.745   7.068  0.00  0.00     0.102 A 
ATOM     19  HN  UNK N   1      25.664  16.686   6.665  1.00  0.00     0.165 HD
BRANCH  16  20
HETATM   20  C   UNK N   1      25.354  18.243   4.563  0.00  0.00     0.083 C 
BRANCH  20  21
HETATM   21  C   UNK N   1      24.541  17.032   4.126  0.00  0.00     0.173 C 
BRANCH  21  22
HETATM   22  O   UNK N   1      25.408  16.026   3.687  0.00  0.00    -0.396 OA
HETATM   23  C   UNK N   1      24.758  14.824   3.973  0.00  0.00     0.201 C 
ENDBRANCH  21  22
ENDBRANCH  20  21
ENDBRANCH  16  20
ENDBRANCH   3  13
BRANCH   8  24
HETATM   24  N   UNK N   1      34.128  15.159   9.046  0.00  0.00    -0.374 N 
HETATM   25  C   UNK N   1      34.220  14.072   9.999  0.00  0.00     0.149 C 
HETATM   26  C   UNK N   1      34.410  14.670  11.389  0.00  0.00     0.187 C 
HETATM   27  O   UNK N   1      35.554  15.491  11.383  0.00  0.00    -0.388 OA
HETATM   28  C   UNK N   1      35.238  16.623  10.602  0.00  0.00     0.187 C 
HETATM   29  C   UNK N   1      35.121  16.208   9.131  0.00  0.00     0.149 C 
ENDBRANCH   8  24
TORSDOF 5
ENDMDL
MODEL 9
REMARK VINA RESULT:      -6.1      4.032      6.594
REMARK  5 active torsions:
REMARK  status: ('A' for Active; 'I' for Inactive)
REMARK    1  A    between atoms: C_3  and  C_19 
REMARK    2  A    between atoms: C_8  and  N_13 
REMARK    3  A    between atoms: C_22  and  C_26 
REMARK    4  A    between atoms: C_26  and  C_27 
REMARK    5  A    between atoms: C_27  and  O_28 
ROOT
HETATM    1  C   UNK N   1      25.768  14.869   6.872  0.00  0.00     0.070 C 
HETATM    2  C   UNK N   1      25.611  16.112   6.067  0.00  0.00     0.036 A 
HETATM    3  C   UNK N   1      26.591  17.051   5.752  0.00  0.00     0.092 A 
HETATM    4  N   UNK N   1      26.001  17.984   4.986  0.00  0.00    -0.235 N 
HETATM    5  C   UNK N   1      24.715  17.635   4.859  0.00  0.00     0.154 A 
HETATM    6  N   UNK N   1      24.435  16.485   5.510  0.00  0.00    -0.341 N 
ATOM      7  HN  UNK N   1      23.538  16.004   5.568  1.00  0.00     0.167 HD
HETATM    8  C   UNK N   1      23.831  18.422   4.109  0.00  0.00     0.078 A 
HETATM    9  C   UNK N   1      24.375  19.564   3.489  0.00  0.00     0.052 A 
HETATM   10  C   UNK N   1      25.737  19.879   3.659  0.00  0.00     0.110 A 
HETATM   11  N   UNK N   1      26.527  19.072   4.422  0.00  0.00    -0.303 N 
ATOM     12  HN  UNK N   1      27.512  19.298   4.560  1.00  0.00     0.186 HD
ENDROOT
BRANCH   3  13
HETATM   13  C   UNK N   1      28.018  17.049   6.147  0.00  0.00     0.010 A 
HETATM   14  C   UNK N   1      28.403  17.585   7.378  0.00  0.00     0.017 A 
HETATM   15  C   UNK N   1      29.745  17.634   7.731  0.00  0.00     0.026 A 
HETATM   16  C   UNK N   1      30.706  17.125   6.856  0.00  0.00     0.011 A 
HETATM   17  N   UNK N   1      30.322  16.587   5.666  0.00  0.00    -0.368 N 
HETATM   18  C   UNK N   1      29.011  16.540   5.299  0.00  0.00     0.102 A 
ATOM     19  HN  UNK N   1      31.030  16.210   5.036  1.00  0.00     0.165 HD
BRANCH  16  20
HETATM   20  C   UNK N   1      32.161  17.233   7.185  0.00  0.00     0.083 C 
BRANCH  20  21
HETATM   21  C   UNK N   1      33.014  17.490   5.950  0.00  0.00     0.173 C 
BRANCH  21  22
HETATM   22  O   UNK N   1      34.299  17.873   6.346  0.00  0.00    -0.396 OA
HETATM   23  C   UNK N   1      34.279  17.855   7.742  0.00  0.00     0.201 C 
ENDBRANCH  21  22
ENDBRANCH  20  21
ENDBRANCH  16  20
ENDBRANCH   3  13
BRANCH   8  24
HETATM   24  N   UNK N   1      22.436  18.121   3.996  0.00  0.00    -0.374 N 
HETATM   25  C   UNK N   1      21.976  16.858   3.456  0.00  0.00     0.149 C 
HETATM   26  C   UNK N   1      20.858  17.143   2.458  0.00  0.00     0.187 C 
HETATM   27  O   UNK N   1      19.838  17.864   3.107  0.00  0.00    -0.388 OA
HETATM   28  C   UNK N   1      20.352  19.151   3.369  0.00  0.00     0.187 C 
HETATM   29  C   UNK N   1      21.431  19.056   4.453  0.00  0.00     0.149 C 
ENDBRANCH   8  24
TORSDOF 5
ENDMDL
