MODEL 1
REMARK VINA RESULT:      -7.5      0.000      0.000
REMARK WARNING: 32 MAX_TORS EXCEEDED!!!
REMARK  55 active torsions:
REMARK  status: ('A' for Active; 'I' for Inactive)
REMARK    1  A    between atoms: C_1  and  C_2 
REMARK    2  A    between atoms: C_1  and  C_104 
REMARK    3  A    between atoms: C_2  and  C_3 
REMARK    4  A    between atoms: C_3  and  C_4 
REMARK    5  A    between atoms: C_3  and  N_103 
REMARK       I    between atoms: C_4  and  N_6 
REMARK    6  A    between atoms: C_7  and  N_6 
REMARK    7  A    between atoms: C_7  and  C_8 
REMARK    8  A    between atoms: C_7  and  C_16 
REMARK    9  A    between atoms: C_8  and  C_9 
REMARK   10  A    between atoms: C_9  and  C_10 
REMARK   11  A    between atoms: C_10  and  N_11 
REMARK       I    between atoms: N_11  and  C_12 
REMARK       I    between atoms: C_12  and  N_15 
REMARK       I    between atoms: C_16  and  N_18 
REMARK   12  A    between atoms: C_19  and  N_18 
REMARK   13  A    between atoms: C_19  and  C_20 
REMARK   14  A    between atoms: C_19  and  C_28 
REMARK   15  A    between atoms: C_20  and  C_21 
REMARK   16  A    between atoms: C_21  and  C_22 
REMARK   17  A    between atoms: C_22  and  N_23 
REMARK       I    between atoms: N_23  and  C_24 
REMARK       I    between atoms: C_24  and  N_27 
REMARK       I    between atoms: C_28  and  N_30 
REMARK   18  A    between atoms: C_31  and  N_30 
REMARK   19  A    between atoms: C_31  and  C_32 
REMARK   20  A    between atoms: C_31  and  C_40 
REMARK   21  A    between atoms: C_32  and  C_33 
REMARK   22  A    between atoms: C_33  and  C_34 
REMARK   23  A    between atoms: C_34  and  N_35 
REMARK       I    between atoms: N_35  and  C_36 
REMARK       I    between atoms: C_36  and  N_39 
REMARK       I    between atoms: C_40  and  N_42 
REMARK   24  A    between atoms: C_43  and  N_42 
REMARK   25  A    between atoms: C_43  and  C_44 
REMARK   26  A    between atoms: C_43  and  C_52 
REMARK   27  A    between atoms: C_44  and  C_45 
REMARK   28  A    between atoms: C_45  and  C_46 
REMARK   29  A    between atoms: C_46  and  N_47 
REMARK       I    between atoms: N_47  and  C_48 
REMARK       I    between atoms: C_48  and  N_51 
REMARK       I    between atoms: C_52  and  N_54 
REMARK   30  A    between atoms: C_55  and  N_54 
REMARK   31  A    between atoms: C_55  and  C_56 
REMARK   32  A    between atoms: C_55  and  C_64 
REMARK   33  A    between atoms: C_56  and  C_57 
REMARK   34  A    between atoms: C_57  and  C_58 
REMARK   35  A    between atoms: C_58  and  N_59 
REMARK       I    between atoms: N_59  and  C_60 
REMARK       I    between atoms: C_60  and  N_63 
REMARK       I    between atoms: C_64  and  N_66 
REMARK   36  A    between atoms: C_67  and  N_66 
REMARK   37  A    between atoms: C_67  and  C_68 
REMARK   38  A    between atoms: C_67  and  C_76 
REMARK   39  A    between atoms: C_68  and  C_69 
REMARK   40  A    between atoms: C_69  and  C_70 
REMARK   41  A    between atoms: C_70  and  N_71 
REMARK       I    between atoms: N_71  and  C_72 
REMARK       I    between atoms: C_72  and  N_75 
REMARK       I    between atoms: C_76  and  N_78 
REMARK   42  A    between atoms: C_79  and  N_78 
REMARK   43  A    between atoms: C_79  and  C_80 
REMARK   44  A    between atoms: C_79  and  C_88 
REMARK   45  A    between atoms: C_80  and  C_81 
REMARK   46  A    between atoms: C_81  and  C_82 
REMARK   47  A    between atoms: C_82  and  N_83 
REMARK       I    between atoms: N_83  and  C_84 
REMARK       I    between atoms: C_84  and  N_87 
REMARK       I    between atoms: C_88  and  N_90 
REMARK   48  A    between atoms: C_91  and  N_90 
REMARK   49  A    between atoms: C_91  and  C_92 
REMARK   50  A    between atoms: C_91  and  C_100 
REMARK   51  A    between atoms: C_92  and  C_93 
REMARK   52  A    between atoms: C_93  and  C_94 
REMARK   53  A    between atoms: C_94  and  N_95 
REMARK       I    between atoms: N_95  and  C_96 
REMARK       I    between atoms: C_96  and  N_99 
REMARK   54  A    between atoms: C_100  and  O_102 
REMARK   55  A    between atoms: C_104  and  N_105 
REMARK       I    between atoms: N_105  and  C_106 
REMARK       I    between atoms: C_106  and  N_109 
ROOT
HETATM    1  C   UNK N   1      28.304  17.614   8.026  0.00  0.00     0.176 C 
ENDROOT
BRANCH   1   2
HETATM    2  N   UNK N   1      29.640  17.093   7.918  0.00  0.00    -0.346 N 
HETATM    3  C   UNK N   1      30.635  17.654   8.632  0.00  0.00     0.241 C 
HETATM    4  O   UNK N   1      30.418  18.640   9.316  0.00  0.00    -0.271 OA
HETATM    5  H   UNK N   1      29.826  16.329   7.324  0.00  0.00     0.163 HD
BRANCH   3   6
HETATM    6  C   UNK N   1      32.016  17.091   8.534  0.00  0.00     0.176 C 
BRANCH   6   7
HETATM    7  N   UNK N   1      31.859  15.681   8.310  0.00  0.00    -0.346 N 
HETATM    8  C   UNK N   1      32.733  14.761   8.774  0.00  0.00     0.241 C 
HETATM    9  O   UNK N   1      32.363  13.594   8.815  0.00  0.00    -0.271 OA
HETATM   10  H   UNK N   1      31.080  15.370   7.796  0.00  0.00     0.163 HD
BRANCH   8  11
HETATM   11  C   UNK N   1      34.186  15.055   9.170  0.00  0.00     0.176 C 
BRANCH  11  12
HETATM   12  N   UNK N   1      34.286  14.497  10.498  0.00  0.00    -0.346 N 
HETATM   13  C   UNK N   1      35.056  15.080  11.451  0.00  0.00     0.241 C 
HETATM   14  O   UNK N   1      35.250  16.288  11.442  0.00  0.00    -0.271 OA
HETATM   15  H   UNK N   1      33.785  13.678  10.715  0.00  0.00     0.163 HD
BRANCH  13  16
HETATM   16  C   UNK N   1      36.038  14.198  12.153  0.00  0.00     0.176 C 
BRANCH  16  17
HETATM   17  N   UNK N   1      36.555  14.773  13.365  0.00  0.00    -0.346 N 
HETATM   18  C   UNK N   1      36.866  14.058  14.470  0.00  0.00     0.240 C 
HETATM   19  O   UNK N   1      37.382  14.636  15.412  0.00  0.00    -0.271 OA
HETATM   20  H   UNK N   1      36.692  15.747  13.392  0.00  0.00     0.163 HD
BRANCH  18  21
HETATM   21  C   UNK N   1      36.614  12.572  14.594  0.00  0.00     0.167 C 
BRANCH  21  22
HETATM   22  C   UNK N   1      35.721  12.078  15.747  0.00  0.00     0.036 C 
BRANCH  22  23
HETATM   23  C   UNK N   1      34.653  13.042  16.263  0.00  0.00     0.023 C 
BRANCH  23  24
HETATM   24  C   UNK N   1      34.953  13.542  17.656  0.00  0.00     0.138 C 
BRANCH  24  25
HETATM   25  N   UNK N   1      35.333  12.420  18.474  0.00  0.00    -0.227 N 
HETATM   26  C   UNK N   1      35.179  12.433  19.881  0.00  0.00     0.665 C 
HETATM   27  N   UNK N   1      34.699  13.463  20.476  0.00  0.00    -0.235 N 
HETATM   28  N   UNK N   1      35.627  11.331  20.640  0.00  0.00    -0.235 N 
HETATM   29  H   UNK N   1      33.973  13.369  21.134  0.00  0.00     0.174 HD
ATOM     30  HN  UNK N   1      35.074  14.388  20.265  1.00  0.00     0.174 HD
HETATM   31  H   UNK N   1      36.383  10.701  20.653  0.00  0.00     0.174 HD
HETATM   32  H   UNK N   1      34.999  11.135  21.372  0.00  0.00     0.174 HD
HETATM   33  H   UNK N   1      35.710  11.621  18.042  0.00  0.00     0.177 HD
ENDBRANCH  24  25
ENDBRANCH  23  24
ENDBRANCH  22  23
ENDBRANCH  21  22
BRANCH  21  34
HETATM   34  N   UNK N   1      37.877  11.860  14.620  0.00  0.00    -0.418 N 
HETATM   35  H   UNK N   1      38.253  11.323  13.839  0.00  0.00     0.150 HD
HETATM   36  H   UNK N   1      38.427  11.900  15.478  0.00  0.00     0.150 HD
ENDBRANCH  21  34
ENDBRANCH  18  21
ENDBRANCH  16  17
BRANCH  16  37
HETATM   37  C   UNK N   1      37.205  13.855  11.221  0.00  0.00     0.036 C 
BRANCH  37  38
HETATM   38  C   UNK N   1      37.517  12.360  11.186  0.00  0.00     0.023 C 
BRANCH  38  39
HETATM   39  C   UNK N   1      36.562  11.664  10.248  0.00  0.00     0.138 C 
BRANCH  39  40
HETATM   40  N   UNK N   1      35.550  10.960  10.991  0.00  0.00    -0.227 N 
HETATM   41  C   UNK N   1      34.253  10.757  10.451  0.00  0.00     0.665 C 
HETATM   42  N   UNK N   1      33.963  11.174   9.274  0.00  0.00    -0.235 N 
HETATM   43  N   UNK N   1      33.245  10.188  11.255  0.00  0.00    -0.235 N 
HETATM   44  H   UNK N   1      33.215  11.232   8.637  0.00  0.00     0.174 HD
ATOM     45  HN  UNK N   1      34.793  11.592   8.854  1.00  0.00     0.174 HD
HETATM   46  H   UNK N   1      33.401   9.349  11.745  0.00  0.00     0.174 HD
HETATM   47  H   UNK N   1      32.370  10.635  11.326  0.00  0.00     0.174 HD
HETATM   48  H   UNK N   1      35.761  10.612  11.888  0.00  0.00     0.177 HD
ENDBRANCH  39  40
ENDBRANCH  38  39
ENDBRANCH  37  38
ENDBRANCH  16  37
ENDBRANCH  13  16
ENDBRANCH  11  12
BRANCH  11  49
HETATM   49  C   UNK N   1      35.316  14.506   8.276  0.00  0.00     0.036 C 
BRANCH  49  50
HETATM   50  C   UNK N   1      35.376  15.106   6.875  0.00  0.00     0.023 C 
BRANCH  50  51
HETATM   51  C   UNK N   1      36.273  14.349   5.901  0.00  0.00     0.138 C 
BRANCH  51  52
HETATM   52  N   UNK N   1      37.407  13.730   6.549  0.00  0.00    -0.227 N 
HETATM   53  C   UNK N   1      38.757  14.043   6.239  0.00  0.00     0.665 C 
HETATM   54  N   UNK N   1      39.042  14.864   5.296  0.00  0.00    -0.235 N 
HETATM   55  N   UNK N   1      39.794  13.486   7.017  0.00  0.00    -0.235 N 
HETATM   56  H   UNK N   1      39.804  15.478   5.189  0.00  0.00     0.174 HD
ATOM     57  HN  UNK N   1      38.368  14.883   4.531  1.00  0.00     0.174 HD
HETATM   58  H   UNK N   1      39.953  12.515   7.055  0.00  0.00     0.174 HD
HETATM   59  H   UNK N   1      40.376  14.085   7.535  0.00  0.00     0.174 HD
HETATM   60  H   UNK N   1      37.234  13.055   7.244  0.00  0.00     0.177 HD
ENDBRANCH  51  52
ENDBRANCH  50  51
ENDBRANCH  49  50
ENDBRANCH  11  49
ENDBRANCH   8  11
ENDBRANCH   6   7
BRANCH   6  61
HETATM   61  C   UNK N   1      32.794  17.761   7.401  0.00  0.00     0.036 C 
BRANCH  61  62
HETATM   62  C   UNK N   1      32.316  17.344   6.013  0.00  0.00     0.023 C 
BRANCH  62  63
HETATM   63  C   UNK N   1      33.379  17.512   4.946  0.00  0.00     0.138 C 
BRANCH  63  64
HETATM   64  N   UNK N   1      33.400  16.307   4.175  0.00  0.00    -0.227 N 
HETATM   65  C   UNK N   1      32.578  16.123   3.037  0.00  0.00     0.665 C 
HETATM   66  N   UNK N   1      31.890  17.095   2.564  0.00  0.00    -0.235 N 
HETATM   67  N   UNK N   1      32.392  14.824   2.525  0.00  0.00    -0.235 N 
HETATM   68  H   UNK N   1      31.624  17.285   1.635  0.00  0.00     0.174 HD
ATOM     69  HN  UNK N   1      31.568  17.773   3.254  1.00  0.00     0.174 HD
HETATM   70  H   UNK N   1      32.859  13.984   2.733  0.00  0.00     0.174 HD
HETATM   71  H   UNK N   1      31.678  14.744   1.851  0.00  0.00     0.174 HD
HETATM   72  H   UNK N   1      34.008  15.580   4.445  0.00  0.00     0.177 HD
ENDBRANCH  63  64
ENDBRANCH  62  63
ENDBRANCH  61  62
ENDBRANCH   6  61
ENDBRANCH   3   6
ENDBRANCH   1   2
BRANCH   1  73
HETATM   73  C   UNK N   1      27.900  18.217   6.691  0.00  0.00     0.036 C 
BRANCH  73  74
HETATM   74  C   UNK N   1      27.828  19.712   6.794  0.00  0.00     0.023 C 
BRANCH  74  75
HETATM   75  C   UNK N   1      27.850  20.317   5.404  0.00  0.00     0.138 C 
BRANCH  75  76
HETATM   76  N   UNK N   1      27.496  19.313   4.432  0.00  0.00    -0.227 N 
HETATM   77  C   UNK N   1      26.168  19.145   3.956  0.00  0.00     0.665 C 
HETATM   78  N   UNK N   1      25.213  19.879   4.398  0.00  0.00    -0.235 N 
HETATM   79  N   UNK N   1      25.891  18.133   3.014  0.00  0.00    -0.235 N 
HETATM   80  H   UNK N   1      24.260  20.120   4.343  0.00  0.00     0.174 HD
ATOM     81  HN  UNK N   1      25.618  20.473   5.121  1.00  0.00     0.174 HD
HETATM   82  H   UNK N   1      26.147  17.199   3.188  0.00  0.00     0.174 HD
HETATM   83  H   UNK N   1      25.435  18.365   2.173  0.00  0.00     0.174 HD
HETATM   84  H   UNK N   1      28.202  18.722   4.085  0.00  0.00     0.177 HD
ENDBRANCH  75  76
ENDBRANCH  74  75
ENDBRANCH  73  74
ENDBRANCH   1  73
BRANCH   1  85
HETATM   85  C   UNK N   1      27.386  16.485   8.257  0.00  0.00     0.241 C 
HETATM   86  O   UNK N   1      26.987  16.231   9.387  0.00  0.00    -0.271 OA
HETATM   87  N   UNK N   1      26.840  15.898   7.176  0.00  0.00    -0.346 N 
HETATM   88  H   UNK N   1      27.372  15.785   6.355  0.00  0.00     0.163 HD
BRANCH  87  89
HETATM   89  C   UNK N   1      25.499  15.443   7.220  0.00  0.00     0.176 C 
BRANCH  89  90
HETATM   90  C   UNK N   1      25.462  13.939   7.432  0.00  0.00     0.036 C 
BRANCH  90  91
HETATM   91  C   UNK N   1      24.668  13.625   8.669  0.00  0.00     0.023 C 
BRANCH  91  92
HETATM   92  C   UNK N   1      23.501  12.708   8.337  0.00  0.00     0.138 C 
BRANCH  92  93
HETATM   93  N   UNK N   1      23.306  11.824   9.450  0.00  0.00    -0.227 N 
HETATM   94  C   UNK N   1      22.263  12.048  10.376  0.00  0.00     0.665 C 
HETATM   95  N   UNK N   1      21.286  12.825  10.084  0.00  0.00    -0.235 N 
HETATM   96  N   UNK N   1      22.400  11.575  11.693  0.00  0.00    -0.235 N 
HETATM   97  H   UNK N   1      20.396  12.667  10.475  0.00  0.00     0.174 HD
ATOM     98  HN  UNK N   1      21.431  13.607   9.445  1.00  0.00     0.174 HD
HETATM   99  H   UNK N   1      23.204  11.429  12.241  0.00  0.00     0.174 HD
HETATM  100  H   UNK N   1      21.551  11.354  12.140  0.00  0.00     0.174 HD
HETATM  101  H   UNK N   1      23.906  11.053   9.569  0.00  0.00     0.177 HD
ENDBRANCH  92  93
ENDBRANCH  91  92
ENDBRANCH  90  91
ENDBRANCH  89  90
BRANCH  89 102
HETATM  102  C   UNK N   1      24.978  15.767   5.873  0.00  0.00     0.241 C 
HETATM  103  O   UNK N   1      25.738  15.765   4.914  0.00  0.00    -0.271 OA
HETATM  104  N   UNK N   1      23.640  15.795   5.683  0.00  0.00    -0.346 N 
HETATM  105  H   UNK N   1      23.135  14.952   5.727  0.00  0.00     0.163 HD
BRANCH 104 106
HETATM  106  C   UNK N   1      22.929  17.020   5.421  0.00  0.00     0.176 C 
BRANCH 106 107
HETATM  107  C   UNK N   1      21.681  17.145   6.303  0.00  0.00     0.036 C 
BRANCH 107 108
HETATM  108  C   UNK N   1      21.295  15.907   7.113  0.00  0.00     0.023 C 
BRANCH 108 109
HETATM  109  C   UNK N   1      20.813  16.225   8.516  0.00  0.00     0.138 C 
BRANCH 109 110
HETATM  110  N   UNK N   1      19.377  16.329   8.560  0.00  0.00    -0.227 N 
HETATM  111  C   UNK N   1      18.743  17.520   8.998  0.00  0.00     0.665 C 
HETATM  112  N   UNK N   1      19.438  18.542   9.343  0.00  0.00    -0.235 N 
HETATM  113  N   UNK N   1      17.335  17.589   9.032  0.00  0.00    -0.235 N 
HETATM  114  H   UNK N   1      19.652  19.472   9.584  0.00  0.00     0.174 HD
ATOM    115  HN  UNK N   1      20.363  18.118   9.412  1.00  0.00     0.174 HD
HETATM  116  H   UNK N   1      16.745  17.408   8.264  0.00  0.00     0.174 HD
HETATM  117  H   UNK N   1      16.911  17.837   9.886  0.00  0.00     0.174 HD
HETATM  118  H   UNK N   1      18.827  15.561   8.283  0.00  0.00     0.177 HD
ENDBRANCH 109 110
ENDBRANCH 108 109
ENDBRANCH 107 108
ENDBRANCH 106 107
BRANCH 106 119
HETATM  119  C   UNK N   1      22.691  17.269   3.956  0.00  0.00     0.241 C 
HETATM  120  O   UNK N   1      22.871  18.387   3.498  0.00  0.00    -0.271 OA
HETATM  121  N   UNK N   1      22.212  16.254   3.180  0.00  0.00    -0.346 N 
HETATM  122  H   UNK N   1      22.367  15.336   3.500  0.00  0.00     0.163 HD
BRANCH 121 123
HETATM  123  C   UNK N   1      21.497  16.404   1.936  0.00  0.00     0.176 C 
BRANCH 123 124
HETATM  124  C   UNK N   1      20.048  16.860   2.063  0.00  0.00     0.036 C 
BRANCH 124 125
HETATM  125  C   UNK N   1      19.571  17.379   3.408  0.00  0.00     0.023 C 
BRANCH 125 126
HETATM  126  C   UNK N   1      19.553  18.910   3.343  0.00  0.00     0.138 C 
BRANCH 126 127
HETATM  127  N   UNK N   1      19.758  19.355   1.980  0.00  0.00    -0.227 N 
HETATM  128  C   UNK N   1      20.548  20.478   1.635  0.00  0.00     0.665 C 
HETATM  129  N   UNK N   1      21.276  21.060   2.514  0.00  0.00    -0.235 N 
HETATM  130  N   UNK N   1      20.595  20.907   0.292  0.00  0.00    -0.235 N 
HETATM  131  H   UNK N   1      22.258  21.058   2.438  0.00  0.00     0.174 HD
ATOM    132  HN  UNK N   1      20.832  21.532   3.301  1.00  0.00     0.174 HD
HETATM  133  H   UNK N   1      20.047  21.174  -0.481  0.00  0.00     0.174 HD
HETATM  134  H   UNK N   1      21.541  20.960   0.024  0.00  0.00     0.174 HD
HETATM  135  H   UNK N   1      19.324  18.851   1.255  0.00  0.00     0.177 HD
ENDBRANCH 126 127
ENDBRANCH 125 126
ENDBRANCH 124 125
ENDBRANCH 123 124
BRANCH 123 136
HETATM  136  C   UNK N   1      21.452  15.037   1.353  0.00  0.00     0.241 C 
HETATM  137  O   UNK N   1      22.363  14.635   0.647  0.00  0.00    -0.271 OA
HETATM  138  N   UNK N   1      20.373  14.260   1.645  0.00  0.00    -0.345 N 
HETATM  139  H   UNK N   1      19.747  14.617   2.316  0.00  0.00     0.163 HD
BRANCH 138 140
HETATM  140  C   UNK N   1      20.043  12.975   1.086  0.00  0.00     0.182 C 
BRANCH 140 141
HETATM  141  C   UNK N   1      20.403  11.869   2.075  0.00  0.00     0.038 C 
BRANCH 141 142
HETATM  142  C   UNK N   1      21.814  11.312   1.873  0.00  0.00     0.023 C 
BRANCH 142 143
HETATM  143  C   UNK N   1      22.775  11.802   2.945  0.00  0.00     0.138 C 
BRANCH 143 144
HETATM  144  N   UNK N   1      23.902  12.472   2.342  0.00  0.00    -0.227 N 
HETATM  145  C   UNK N   1      25.155  11.832   2.162  0.00  0.00     0.665 C 
HETATM  146  N   UNK N   1      26.132  12.489   1.663  0.00  0.00    -0.235 N 
HETATM  147  N   UNK N   1      25.356  10.498   2.589  0.00  0.00    -0.235 N 
HETATM  148  H   UNK N   1      26.209  13.469   1.710  0.00  0.00     0.174 HD
ATOM    149  HN  UNK N   1      26.873  11.969   1.192  1.00  0.00     0.174 HD
HETATM  150  H   UNK N   1      26.104   9.969   2.229  0.00  0.00     0.174 HD
HETATM  151  H   UNK N   1      24.745  10.097   3.249  0.00  0.00     0.174 HD
HETATM  152  H   UNK N   1      23.797  13.405   2.046  0.00  0.00     0.177 HD
ENDBRANCH 143 144
ENDBRANCH 142 143
ENDBRANCH 141 142
ENDBRANCH 140 141
BRANCH 140 153
HETATM  153  C   UNK N   1      18.687  12.912   0.448  0.00  0.00     0.163 C 
HETATM  154  O   UNK N   1      17.884  13.817   0.605  0.00  0.00    -0.648 OA
BRANCH 153 155
HETATM  155  O   UNK N   1      18.343  11.834  -0.281  0.00  0.00    -0.775 OA
HETATM  156  H   UNK N   1      18.550  10.972   0.022  0.00  0.00     0.167 HD
ENDBRANCH 153 155
ENDBRANCH 140 153
ENDBRANCH 138 140
ENDBRANCH 123 136
ENDBRANCH 121 123
ENDBRANCH 106 119
ENDBRANCH 104 106
ENDBRANCH  89 102
ENDBRANCH  87  89
ENDBRANCH   1  85
TORSDOF 55
ENDMDL
MODEL 2
REMARK VINA RESULT:      -7.5      3.935      8.974
REMARK WARNING: 32 MAX_TORS EXCEEDED!!!
REMARK  55 active torsions:
REMARK  status: ('A' for Active; 'I' for Inactive)
REMARK    1  A    between atoms: C_1  and  C_2 
REMARK    2  A    between atoms: C_1  and  C_104 
REMARK    3  A    between atoms: C_2  and  C_3 
REMARK    4  A    between atoms: C_3  and  C_4 
REMARK    5  A    between atoms: C_3  and  N_103 
REMARK       I    between atoms: C_4  and  N_6 
REMARK    6  A    between atoms: C_7  and  N_6 
REMARK    7  A    between atoms: C_7  and  C_8 
REMARK    8  A    between atoms: C_7  and  C_16 
REMARK    9  A    between atoms: C_8  and  C_9 
REMARK   10  A    between atoms: C_9  and  C_10 
REMARK   11  A    between atoms: C_10  and  N_11 
REMARK       I    between atoms: N_11  and  C_12 
REMARK       I    between atoms: C_12  and  N_15 
REMARK       I    between atoms: C_16  and  N_18 
REMARK   12  A    between atoms: C_19  and  N_18 
REMARK   13  A    between atoms: C_19  and  C_20 
REMARK   14  A    between atoms: C_19  and  C_28 
REMARK   15  A    between atoms: C_20  and  C_21 
REMARK   16  A    between atoms: C_21  and  C_22 
REMARK   17  A    between atoms: C_22  and  N_23 
REMARK       I    between atoms: N_23  and  C_24 
REMARK       I    between atoms: C_24  and  N_27 
REMARK       I    between atoms: C_28  and  N_30 
REMARK   18  A    between atoms: C_31  and  N_30 
REMARK   19  A    between atoms: C_31  and  C_32 
REMARK   20  A    between atoms: C_31  and  C_40 
REMARK   21  A    between atoms: C_32  and  C_33 
REMARK   22  A    between atoms: C_33  and  C_34 
REMARK   23  A    between atoms: C_34  and  N_35 
REMARK       I    between atoms: N_35  and  C_36 
REMARK       I    between atoms: C_36  and  N_39 
REMARK       I    between atoms: C_40  and  N_42 
REMARK   24  A    between atoms: C_43  and  N_42 
REMARK   25  A    between atoms: C_43  and  C_44 
REMARK   26  A    between atoms: C_43  and  C_52 
REMARK   27  A    between atoms: C_44  and  C_45 
REMARK   28  A    between atoms: C_45  and  C_46 
REMARK   29  A    between atoms: C_46  and  N_47 
REMARK       I    between atoms: N_47  and  C_48 
REMARK       I    between atoms: C_48  and  N_51 
REMARK       I    between atoms: C_52  and  N_54 
REMARK   30  A    between atoms: C_55  and  N_54 
REMARK   31  A    between atoms: C_55  and  C_56 
REMARK   32  A    between atoms: C_55  and  C_64 
REMARK   33  A    between atoms: C_56  and  C_57 
REMARK   34  A    between atoms: C_57  and  C_58 
REMARK   35  A    between atoms: C_58  and  N_59 
REMARK       I    between atoms: N_59  and  C_60 
REMARK       I    between atoms: C_60  and  N_63 
REMARK       I    between atoms: C_64  and  N_66 
REMARK   36  A    between atoms: C_67  and  N_66 
REMARK   37  A    between atoms: C_67  and  C_68 
REMARK   38  A    between atoms: C_67  and  C_76 
REMARK   39  A    between atoms: C_68  and  C_69 
REMARK   40  A    between atoms: C_69  and  C_70 
REMARK   41  A    between atoms: C_70  and  N_71 
REMARK       I    between atoms: N_71  and  C_72 
REMARK       I    between atoms: C_72  and  N_75 
REMARK       I    between atoms: C_76  and  N_78 
REMARK   42  A    between atoms: C_79  and  N_78 
REMARK   43  A    between atoms: C_79  and  C_80 
REMARK   44  A    between atoms: C_79  and  C_88 
REMARK   45  A    between atoms: C_80  and  C_81 
REMARK   46  A    between atoms: C_81  and  C_82 
REMARK   47  A    between atoms: C_82  and  N_83 
REMARK       I    between atoms: N_83  and  C_84 
REMARK       I    between atoms: C_84  and  N_87 
REMARK       I    between atoms: C_88  and  N_90 
REMARK   48  A    between atoms: C_91  and  N_90 
REMARK   49  A    between atoms: C_91  and  C_92 
REMARK   50  A    between atoms: C_91  and  C_100 
REMARK   51  A    between atoms: C_92  and  C_93 
REMARK   52  A    between atoms: C_93  and  C_94 
REMARK   53  A    between atoms: C_94  and  N_95 
REMARK       I    between atoms: N_95  and  C_96 
REMARK       I    between atoms: C_96  and  N_99 
REMARK   54  A    between atoms: C_100  and  O_102 
REMARK   55  A    between atoms: C_104  and  N_105 
REMARK       I    between atoms: N_105  and  C_106 
REMARK       I    between atoms: C_106  and  N_109 
ROOT
HETATM    1  C   UNK N   1      22.351  18.093   5.241  0.00  0.00     0.176 C 
ENDROOT
BRANCH   1   2
HETATM    2  N   UNK N   1      23.739  17.784   5.457  0.00  0.00    -0.346 N 
HETATM    3  C   UNK N   1      24.690  18.539   4.873  0.00  0.00     0.241 C 
HETATM    4  O   UNK N   1      24.377  19.439   4.113  0.00  0.00    -0.271 OA
HETATM    5  H   UNK N   1      23.993  17.024   6.029  0.00  0.00     0.163 HD
BRANCH   3   6
HETATM    6  C   UNK N   1      26.130  18.228   5.123  0.00  0.00     0.176 C 
BRANCH   6   7
HETATM    7  N   UNK N   1      26.667  17.777   3.869  0.00  0.00    -0.346 N 
HETATM    8  C   UNK N   1      27.219  16.556   3.701  0.00  0.00     0.241 C 
HETATM    9  O   UNK N   1      27.354  16.144   2.556  0.00  0.00    -0.271 OA
HETATM   10  H   UNK N   1      26.630  18.386   3.096  0.00  0.00     0.163 HD
BRANCH   8  11
HETATM   11  C   UNK N   1      27.774  15.683   4.835  0.00  0.00     0.176 C 
BRANCH  11  12
HETATM   12  N   UNK N   1      29.062  16.274   5.106  0.00  0.00    -0.346 N 
HETATM   13  C   UNK N   1      30.212  15.679   4.696  0.00  0.00     0.241 C 
HETATM   14  O   UNK N   1      30.226  14.979   3.692  0.00  0.00    -0.271 OA
HETATM   15  H   UNK N   1      29.108  17.125   5.598  0.00  0.00     0.163 HD
BRANCH  13  16
HETATM   16  C   UNK N   1      31.268  15.473   5.733  0.00  0.00     0.176 C 
BRANCH  16  17
HETATM   17  N   UNK N   1      31.430  14.097   6.115  0.00  0.00    -0.346 N 
HETATM   18  C   UNK N   1      32.624  13.522   6.391  0.00  0.00     0.240 C 
HETATM   19  O   UNK N   1      32.637  12.370   6.792  0.00  0.00    -0.271 OA
HETATM   20  H   UNK N   1      30.623  13.538   6.182  0.00  0.00     0.163 HD
BRANCH  18  21
HETATM   21  C   UNK N   1      33.945  14.241   6.234  0.00  0.00     0.167 C 
BRANCH  21  22
HETATM   22  C   UNK N   1      34.746  14.018   4.938  0.00  0.00     0.036 C 
BRANCH  22  23
HETATM   23  C   UNK N   1      34.096  14.471   3.631  0.00  0.00     0.023 C 
BRANCH  23  24
HETATM   24  C   UNK N   1      33.732  13.309   2.735  0.00  0.00     0.138 C 
BRANCH  24  25
HETATM   25  N   UNK N   1      32.300  13.163   2.736  0.00  0.00    -0.227 N 
HETATM   26  C   UNK N   1      31.612  12.518   1.679  0.00  0.00     0.665 C 
HETATM   27  N   UNK N   1      32.255  12.048   0.674  0.00  0.00    -0.235 N 
HETATM   28  N   UNK N   1      30.203  12.460   1.700  0.00  0.00    -0.235 N 
HETATM   29  H   UNK N   1      32.092  11.129   0.359  0.00  0.00     0.174 HD
ATOM     30  HN  UNK N   1      32.941  12.632   0.195  1.00  0.00     0.174 HD
HETATM   31  H   UNK N   1      29.443  13.035   1.944  0.00  0.00     0.174 HD
HETATM   32  H   UNK N   1      29.887  11.585   1.375  0.00  0.00     0.174 HD
HETATM   33  H   UNK N   1      31.783  13.521   3.493  0.00  0.00     0.177 HD
ENDBRANCH  24  25
ENDBRANCH  23  24
ENDBRANCH  22  23
ENDBRANCH  21  22
BRANCH  21  34
HETATM   34  N   UNK N   1      34.791  13.968   7.380  0.00  0.00    -0.418 N 
HETATM   35  H   UNK N   1      34.473  13.982   8.348  0.00  0.00     0.150 HD
HETATM   36  H   UNK N   1      35.771  13.747   7.205  0.00  0.00     0.150 HD
ENDBRANCH  21  34
ENDBRANCH  18  21
ENDBRANCH  16  17
BRANCH  16  37
HETATM   37  C   UNK N   1      30.959  16.308   6.980  0.00  0.00     0.036 C 
BRANCH  37  38
HETATM   38  C   UNK N   1      31.713  17.636   7.007  0.00  0.00     0.023 C 
BRANCH  38  39
HETATM   39  C   UNK N   1      32.639  17.671   8.197  0.00  0.00     0.138 C 
BRANCH  39  40
HETATM   40  N   UNK N   1      32.519  16.459   8.965  0.00  0.00    -0.227 N 
HETATM   41  C   UNK N   1      33.498  16.100   9.927  0.00  0.00     0.665 C 
HETATM   42  N   UNK N   1      34.501  16.866  10.153  0.00  0.00    -0.235 N 
HETATM   43  N   UNK N   1      33.426  14.844  10.562  0.00  0.00    -0.235 N 
HETATM   44  H   UNK N   1      35.327  16.921  10.686  0.00  0.00     0.174 HD
ATOM     45  HN  UNK N   1      34.414  17.708   9.584  1.00  0.00     0.174 HD
HETATM   46  H   UNK N   1      32.592  14.540  10.988  0.00  0.00     0.174 HD
HETATM   47  H   UNK N   1      34.220  14.263  10.580  0.00  0.00     0.174 HD
HETATM   48  H   UNK N   1      31.743  15.870   8.821  0.00  0.00     0.177 HD
ENDBRANCH  39  40
ENDBRANCH  38  39
ENDBRANCH  37  38
ENDBRANCH  16  37
ENDBRANCH  13  16
ENDBRANCH  11  12
BRANCH  11  49
HETATM   49  C   UNK N   1      26.958  15.565   6.138  0.00  0.00     0.036 C 
BRANCH  49  50
HETATM   50  C   UNK N   1      25.695  14.716   6.030  0.00  0.00     0.023 C 
BRANCH  50  51
HETATM   51  C   UNK N   1      25.754  13.629   4.961  0.00  0.00     0.138 C 
BRANCH  51  52
HETATM   52  N   UNK N   1      24.739  13.790   3.943  0.00  0.00    -0.227 N 
HETATM   53  C   UNK N   1      25.006  13.716   2.550  0.00  0.00     0.665 C 
HETATM   54  N   UNK N   1      26.203  13.566   2.116  0.00  0.00    -0.235 N 
HETATM   55  N   UNK N   1      23.931  13.753   1.636  0.00  0.00    -0.235 N 
HETATM   56  H   UNK N   1      26.539  13.124   1.303  0.00  0.00     0.174 HD
ATOM     57  HN  UNK N   1      26.925  13.972   2.710  1.00  0.00     0.174 HD
HETATM   58  H   UNK N   1      23.343  14.538   1.555  0.00  0.00     0.174 HD
HETATM   59  H   UNK N   1      23.766  12.971   1.062  0.00  0.00     0.174 HD
HETATM   60  H   UNK N   1      23.814  13.959   4.231  0.00  0.00     0.177 HD
ENDBRANCH  51  52
ENDBRANCH  50  51
ENDBRANCH  49  50
ENDBRANCH  11  49
ENDBRANCH   8  11
ENDBRANCH   6   7
BRANCH   6  61
HETATM   61  C   UNK N   1      26.868  19.461   5.644  0.00  0.00     0.036 C 
BRANCH  61  62
HETATM   62  C   UNK N   1      28.055  19.119   6.540  0.00  0.00     0.023 C 
BRANCH  62  63
HETATM   63  C   UNK N   1      27.873  19.589   7.969  0.00  0.00     0.138 C 
BRANCH  63  64
HETATM   64  N   UNK N   1      27.822  18.423   8.796  0.00  0.00    -0.227 N 
HETATM   65  C   UNK N   1      28.872  18.076   9.680  0.00  0.00     0.665 C 
HETATM   66  N   UNK N   1      29.847  18.881   9.884  0.00  0.00    -0.235 N 
HETATM   67  N   UNK N   1      28.925  16.771  10.209  0.00  0.00    -0.235 N 
HETATM   68  H   UNK N   1      30.394  19.018  10.691  0.00  0.00     0.174 HD
ATOM     69  HN  UNK N   1      30.096  19.470   9.089  1.00  0.00     0.174 HD
HETATM   70  H   UNK N   1      28.257  16.049  10.191  0.00  0.00     0.174 HD
HETATM   71  H   UNK N   1      29.766  16.546  10.669  0.00  0.00     0.174 HD
HETATM   72  H   UNK N   1      27.028  17.841   8.749  0.00  0.00     0.177 HD
ENDBRANCH  63  64
ENDBRANCH  62  63
ENDBRANCH  61  62
ENDBRANCH   6  61
ENDBRANCH   3   6
ENDBRANCH   1   2
BRANCH   1  73
HETATM   73  C   UNK N   1      21.806  17.179   4.157  0.00  0.00     0.036 C 
BRANCH  73  74
HETATM   74  C   UNK N   1      20.575  17.776   3.540  0.00  0.00     0.023 C 
BRANCH  74  75
HETATM   75  C   UNK N   1      20.664  17.674   2.031  0.00  0.00     0.138 C 
BRANCH  75  76
HETATM   76  N   UNK N   1      20.138  18.875   1.432  0.00  0.00    -0.227 N 
HETATM   77  C   UNK N   1      20.838  20.110   1.451  0.00  0.00     0.665 C 
HETATM   78  N   UNK N   1      21.977  20.211   2.034  0.00  0.00    -0.235 N 
HETATM   79  N   UNK N   1      20.257  21.248   0.857  0.00  0.00    -0.235 N 
HETATM   80  H   UNK N   1      22.751  20.781   2.248  0.00  0.00     0.174 HD
ATOM     81  HN  UNK N   1      22.162  19.304   2.463  1.00  0.00     0.174 HD
HETATM   82  H   UNK N   1      19.352  21.542   1.109  0.00  0.00     0.174 HD
HETATM   83  H   UNK N   1      20.762  21.755   0.182  0.00  0.00     0.174 HD
HETATM   84  H   UNK N   1      19.258  18.836   0.991  0.00  0.00     0.177 HD
ENDBRANCH  75  76
ENDBRANCH  74  75
ENDBRANCH  73  74
ENDBRANCH   1  73
BRANCH   1  85
HETATM   85  C   UNK N   1      21.608  17.758   6.468  0.00  0.00     0.241 C 
HETATM   86  O   UNK N   1      20.946  18.612   7.045  0.00  0.00    -0.271 OA
HETATM   87  N   UNK N   1      21.506  16.457   6.795  0.00  0.00    -0.346 N 
HETATM   88  H   UNK N   1      22.265  15.849   6.641  0.00  0.00     0.163 HD
BRANCH  87  89
HETATM   89  C   UNK N   1      20.306  15.963   7.364  0.00  0.00     0.176 C 
BRANCH  89  90
HETATM   90  C   UNK N   1      20.268  16.263   8.853  0.00  0.00     0.036 C 
BRANCH  90  91
HETATM   91  C   UNK N   1      18.840  16.342   9.314  0.00  0.00     0.023 C 
BRANCH  91  92
HETATM   92  C   UNK N   1      18.225  17.677   8.928  0.00  0.00     0.138 C 
BRANCH  92  93
HETATM   93  N   UNK N   1      17.384  18.104  10.009  0.00  0.00    -0.227 N 
HETATM   94  C   UNK N   1      17.853  19.035  10.964  0.00  0.00     0.665 C 
HETATM   95  N   UNK N   1      18.885  19.756  10.721  0.00  0.00    -0.235 N 
HETATM   96  N   UNK N   1      17.305  19.026  12.258  0.00  0.00    -0.235 N 
HETATM   97  H   UNK N   1      18.966  20.651  11.124  0.00  0.00     0.174 HD
ATOM     98  HN  UNK N   1      19.622  19.402  10.111  1.00  0.00     0.174 HD
HETATM   99  H   UNK N   1      16.916  18.291  12.784  0.00  0.00     0.174 HD
HETATM  100  H   UNK N   1      17.312  19.899  12.713  0.00  0.00     0.174 HD
HETATM  101  H   UNK N   1      16.472  17.745  10.086  0.00  0.00     0.177 HD
ENDBRANCH  92  93
ENDBRANCH  91  92
ENDBRANCH  90  91
ENDBRANCH  89  90
BRANCH  89 102
HETATM  102  C   UNK N   1      20.399  14.500   7.154  0.00  0.00     0.241 C 
HETATM  103  O   UNK N   1      20.486  13.756   8.120  0.00  0.00    -0.271 OA
HETATM  104  N   UNK N   1      20.118  14.000   5.930  0.00  0.00    -0.346 N 
HETATM  105  H   UNK N   1      19.191  14.035   5.602  0.00  0.00     0.163 HD
BRANCH 104 106
HETATM  106  C   UNK N   1      21.133  13.419   5.089  0.00  0.00     0.176 C 
BRANCH 106 107
HETATM  107  C   UNK N   1      20.999  13.894   3.637  0.00  0.00     0.036 C 
BRANCH 107 108
HETATM  108  C   UNK N   1      20.445  12.878   2.638  0.00  0.00     0.023 C 
BRANCH 108 109
HETATM  109  C   UNK N   1      19.034  13.188   2.175  0.00  0.00     0.138 C 
BRANCH 109 110
HETATM  110  N   UNK N   1      18.990  14.422   1.435  0.00  0.00    -0.227 N 
HETATM  111  C   UNK N   1      18.187  14.550   0.272  0.00  0.00     0.665 C 
HETATM  112  N   UNK N   1      17.462  13.572  -0.132  0.00  0.00    -0.235 N 
HETATM  113  N   UNK N   1      18.169  15.771  -0.432  0.00  0.00    -0.235 N 
HETATM  114  H   UNK N   1      16.772  13.082  -0.637  0.00  0.00     0.174 HD
ATOM    115  HN  UNK N   1      17.847  12.814   0.432  1.00  0.00     0.174 HD
HETATM  116  H   UNK N   1      17.953  16.646  -0.035  0.00  0.00     0.174 HD
HETATM  117  H   UNK N   1      18.387  15.747  -1.393  0.00  0.00     0.174 HD
HETATM  118  H   UNK N   1      19.527  15.189   1.739  0.00  0.00     0.177 HD
ENDBRANCH 109 110
ENDBRANCH 108 109
ENDBRANCH 107 108
ENDBRANCH 106 107
BRANCH 106 119
HETATM  119  C   UNK N   1      21.261  11.928   5.254  0.00  0.00     0.241 C 
HETATM  120  O   UNK N   1      20.313  11.286   5.680  0.00  0.00    -0.271 OA
HETATM  121  N   UNK N   1      22.459  11.332   4.986  0.00  0.00    -0.346 N 
HETATM  122  H   UNK N   1      23.071  11.810   4.381  0.00  0.00     0.163 HD
BRANCH 121 123
HETATM  123  C   UNK N   1      22.911  10.066   5.510  0.00  0.00     0.176 C 
BRANCH 123 124
HETATM  124  C   UNK N   1      23.818  10.149   6.734  0.00  0.00     0.036 C 
BRANCH 124 125
HETATM  125  C   UNK N   1      23.223  10.649   8.038  0.00  0.00     0.023 C 
BRANCH 125 126
HETATM  126  C   UNK N   1      24.013  11.888   8.471  0.00  0.00     0.138 C 
BRANCH 126 127
HETATM  127  N   UNK N   1      24.255  11.853   9.898  0.00  0.00    -0.227 N 
HETATM  128  C   UNK N   1      23.346  12.361  10.859  0.00  0.00     0.665 C 
HETATM  129  N   UNK N   1      22.167  12.724  10.515  0.00  0.00    -0.235 N 
HETATM  130  N   UNK N   1      23.719  12.391  12.219  0.00  0.00    -0.235 N 
HETATM  131  H   UNK N   1      21.374  12.246  10.849  0.00  0.00     0.174 HD
ATOM    132  HN  UNK N   1      22.049  13.517   9.886  1.00  0.00     0.174 HD
HETATM  133  H   UNK N   1      24.409  12.693  12.852  0.00  0.00     0.174 HD
HETATM  134  H   UNK N   1      23.017  11.931  12.734  0.00  0.00     0.174 HD
HETATM  135  H   UNK N   1      25.096  11.457  10.219  0.00  0.00     0.177 HD
ENDBRANCH 126 127
ENDBRANCH 125 126
ENDBRANCH 124 125
ENDBRANCH 123 124
BRANCH 123 136
HETATM  136  C   UNK N   1      23.733   9.473   4.424  0.00  0.00     0.241 C 
HETATM  137  O   UNK N   1      23.685   8.275   4.195  0.00  0.00    -0.271 OA
HETATM  138  N   UNK N   1      24.521  10.312   3.696  0.00  0.00    -0.345 N 
HETATM  139  H   UNK N   1      24.408  11.274   3.868  0.00  0.00     0.163 HD
BRANCH 138 140
HETATM  140  C   UNK N   1      25.500   9.952   2.704  0.00  0.00     0.182 C 
BRANCH 140 141
HETATM  141  C   UNK N   1      24.954  10.236   1.307  0.00  0.00     0.038 C 
BRANCH 141 142
HETATM  142  C   UNK N   1      24.838   8.982   0.437  0.00  0.00     0.023 C 
BRANCH 142 143
HETATM  143  C   UNK N   1      23.393   8.677   0.074  0.00  0.00     0.138 C 
BRANCH 143 144
HETATM  144  N   UNK N   1      22.709   8.079   1.194  0.00  0.00    -0.227 N 
HETATM  145  C   UNK N   1      21.448   8.545   1.649  0.00  0.00     0.665 C 
HETATM  146  N   UNK N   1      20.909   8.006   2.675  0.00  0.00    -0.235 N 
HETATM  147  N   UNK N   1      20.813   9.644   1.022  0.00  0.00    -0.235 N 
HETATM  148  H   UNK N   1      21.420   7.545   3.379  0.00  0.00     0.174 HD
ATOM    149  HN  UNK N   1      19.895   8.057   2.771  1.00  0.00     0.174 HD
HETATM  150  H   UNK N   1      19.847   9.793   1.142  0.00  0.00     0.174 HD
HETATM  151  H   UNK N   1      21.339  10.261   0.465  0.00  0.00     0.174 HD
HETATM  152  H   UNK N   1      23.131   7.320   1.659  0.00  0.00     0.177 HD
ENDBRANCH 143 144
ENDBRANCH 142 143
ENDBRANCH 141 142
ENDBRANCH 140 141
BRANCH 140 153
HETATM  153  C   UNK N   1      26.889  10.430   3.010  0.00  0.00     0.163 C 
HETATM  154  O   UNK N   1      27.287  10.487   4.161  0.00  0.00    -0.648 OA
BRANCH 153 155
HETATM  155  O   UNK N   1      27.693  10.825   2.005  0.00  0.00    -0.775 OA
HETATM  156  H   UNK N   1      27.899  11.732   1.893  0.00  0.00     0.167 HD
ENDBRANCH 153 155
ENDBRANCH 140 153
ENDBRANCH 138 140
ENDBRANCH 123 136
ENDBRANCH 121 123
ENDBRANCH 106 119
ENDBRANCH 104 106
ENDBRANCH  89 102
ENDBRANCH  87  89
ENDBRANCH   1  85
TORSDOF 55
ENDMDL
MODEL 3
REMARK VINA RESULT:      -7.4      4.323      8.882
REMARK WARNING: 32 MAX_TORS EXCEEDED!!!
REMARK  55 active torsions:
REMARK  status: ('A' for Active; 'I' for Inactive)
REMARK    1  A    between atoms: C_1  and  C_2 
REMARK    2  A    between atoms: C_1  and  C_104 
REMARK    3  A    between atoms: C_2  and  C_3 
REMARK    4  A    between atoms: C_3  and  C_4 
REMARK    5  A    between atoms: C_3  and  N_103 
REMARK       I    between atoms: C_4  and  N_6 
REMARK    6  A    between atoms: C_7  and  N_6 
REMARK    7  A    between atoms: C_7  and  C_8 
REMARK    8  A    between atoms: C_7  and  C_16 
REMARK    9  A    between atoms: C_8  and  C_9 
REMARK   10  A    between atoms: C_9  and  C_10 
REMARK   11  A    between atoms: C_10  and  N_11 
REMARK       I    between atoms: N_11  and  C_12 
REMARK       I    between atoms: C_12  and  N_15 
REMARK       I    between atoms: C_16  and  N_18 
REMARK   12  A    between atoms: C_19  and  N_18 
REMARK   13  A    between atoms: C_19  and  C_20 
REMARK   14  A    between atoms: C_19  and  C_28 
REMARK   15  A    between atoms: C_20  and  C_21 
REMARK   16  A    between atoms: C_21  and  C_22 
REMARK   17  A    between atoms: C_22  and  N_23 
REMARK       I    between atoms: N_23  and  C_24 
REMARK       I    between atoms: C_24  and  N_27 
REMARK       I    between atoms: C_28  and  N_30 
REMARK   18  A    between atoms: C_31  and  N_30 
REMARK   19  A    between atoms: C_31  and  C_32 
REMARK   20  A    between atoms: C_31  and  C_40 
REMARK   21  A    between atoms: C_32  and  C_33 
REMARK   22  A    between atoms: C_33  and  C_34 
REMARK   23  A    between atoms: C_34  and  N_35 
REMARK       I    between atoms: N_35  and  C_36 
REMARK       I    between atoms: C_36  and  N_39 
REMARK       I    between atoms: C_40  and  N_42 
REMARK   24  A    between atoms: C_43  and  N_42 
REMARK   25  A    between atoms: C_43  and  C_44 
REMARK   26  A    between atoms: C_43  and  C_52 
REMARK   27  A    between atoms: C_44  and  C_45 
REMARK   28  A    between atoms: C_45  and  C_46 
REMARK   29  A    between atoms: C_46  and  N_47 
REMARK       I    between atoms: N_47  and  C_48 
REMARK       I    between atoms: C_48  and  N_51 
REMARK       I    between atoms: C_52  and  N_54 
REMARK   30  A    between atoms: C_55  and  N_54 
REMARK   31  A    between atoms: C_55  and  C_56 
REMARK   32  A    between atoms: C_55  and  C_64 
REMARK   33  A    between atoms: C_56  and  C_57 
REMARK   34  A    between atoms: C_57  and  C_58 
REMARK   35  A    between atoms: C_58  and  N_59 
REMARK       I    between atoms: N_59  and  C_60 
REMARK       I    between atoms: C_60  and  N_63 
REMARK       I    between atoms: C_64  and  N_66 
REMARK   36  A    between atoms: C_67  and  N_66 
REMARK   37  A    between atoms: C_67  and  C_68 
REMARK   38  A    between atoms: C_67  and  C_76 
REMARK   39  A    between atoms: C_68  and  C_69 
REMARK   40  A    between atoms: C_69  and  C_70 
REMARK   41  A    between atoms: C_70  and  N_71 
REMARK       I    between atoms: N_71  and  C_72 
REMARK       I    between atoms: C_72  and  N_75 
REMARK       I    between atoms: C_76  and  N_78 
REMARK   42  A    between atoms: C_79  and  N_78 
REMARK   43  A    between atoms: C_79  and  C_80 
REMARK   44  A    between atoms: C_79  and  C_88 
REMARK   45  A    between atoms: C_80  and  C_81 
REMARK   46  A    between atoms: C_81  and  C_82 
REMARK   47  A    between atoms: C_82  and  N_83 
REMARK       I    between atoms: N_83  and  C_84 
REMARK       I    between atoms: C_84  and  N_87 
REMARK       I    between atoms: C_88  and  N_90 
REMARK   48  A    between atoms: C_91  and  N_90 
REMARK   49  A    between atoms: C_91  and  C_92 
REMARK   50  A    between atoms: C_91  and  C_100 
REMARK   51  A    between atoms: C_92  and  C_93 
REMARK   52  A    between atoms: C_93  and  C_94 
REMARK   53  A    between atoms: C_94  and  N_95 
REMARK       I    between atoms: N_95  and  C_96 
REMARK       I    between atoms: C_96  and  N_99 
REMARK   54  A    between atoms: C_100  and  O_102 
REMARK   55  A    between atoms: C_104  and  N_105 
REMARK       I    between atoms: N_105  and  C_106 
REMARK       I    between atoms: C_106  and  N_109 
ROOT
HETATM    1  C   UNK N   1      22.380  18.239   5.019  0.00  0.00     0.176 C 
ENDROOT
BRANCH   1   2
HETATM    2  N   UNK N   1      23.772  17.912   5.177  0.00  0.00    -0.346 N 
HETATM    3  C   UNK N   1      24.668  18.363   4.279  0.00  0.00     0.241 C 
HETATM    4  O   UNK N   1      24.296  18.988   3.301  0.00  0.00    -0.271 OA
HETATM    5  H   UNK N   1      24.067  17.362   5.939  0.00  0.00     0.163 HD
BRANCH   3   6
HETATM    6  C   UNK N   1      26.116  18.040   4.463  0.00  0.00     0.176 C 
BRANCH   6   7
HETATM    7  N   UNK N   1      26.380  16.893   3.640  0.00  0.00    -0.346 N 
HETATM    8  C   UNK N   1      26.945  15.761   4.116  0.00  0.00     0.241 C 
HETATM    9  O   UNK N   1      26.840  14.745   3.440  0.00  0.00    -0.271 OA
HETATM   10  H   UNK N   1      26.138  16.932   2.687  0.00  0.00     0.163 HD
BRANCH   8  11
HETATM   11  C   UNK N   1      27.786  15.673   5.396  0.00  0.00     0.176 C 
BRANCH  11  12
HETATM   12  N   UNK N   1      29.139  15.794   4.911  0.00  0.00    -0.346 N 
HETATM   13  C   UNK N   1      29.999  14.744   4.951  0.00  0.00     0.241 C 
HETATM   14  O   UNK N   1      29.582  13.596   4.877  0.00  0.00    -0.271 OA
HETATM   15  H   UNK N   1      29.445  16.655   4.544  0.00  0.00     0.163 HD
BRANCH  13  16
HETATM   16  C   UNK N   1      31.328  14.988   5.587  0.00  0.00     0.176 C 
BRANCH  16  17
HETATM   17  N   UNK N   1      31.688  13.990   6.556  0.00  0.00    -0.346 N 
HETATM   18  C   UNK N   1      32.778  13.195   6.457  0.00  0.00     0.240 C 
HETATM   19  O   UNK N   1      33.037  12.443   7.382  0.00  0.00    -0.271 OA
HETATM   20  H   UNK N   1      31.106  13.878   7.342  0.00  0.00     0.163 HD
BRANCH  18  21
HETATM   21  C   UNK N   1      33.699  13.198   5.258  0.00  0.00     0.167 C 
BRANCH  21  22
HETATM   22  C   UNK N   1      33.497  12.117   4.181  0.00  0.00     0.036 C 
BRANCH  22  23
HETATM   23  C   UNK N   1      32.640  12.490   2.972  0.00  0.00     0.023 C 
BRANCH  23  24
HETATM   24  C   UNK N   1      33.202  13.666   2.207  0.00  0.00     0.138 C 
BRANCH  24  25
HETATM   25  N   UNK N   1      34.454  13.272   1.617  0.00  0.00    -0.227 N 
HETATM   26  C   UNK N   1      34.537  12.791   0.288  0.00  0.00     0.665 C 
HETATM   27  N   UNK N   1      33.482  12.684  -0.434  0.00  0.00    -0.235 N 
HETATM   28  N   UNK N   1      35.780  12.358  -0.218  0.00  0.00    -0.235 N 
HETATM   29  H   UNK N   1      33.461  13.050  -1.348  0.00  0.00     0.174 HD
ATOM     30  HN  UNK N   1      32.659  12.214  -0.058  1.00  0.00     0.174 HD
HETATM   31  H   UNK N   1      36.572  11.861   0.090  0.00  0.00     0.174 HD
HETATM   32  H   UNK N   1      35.888  12.634  -1.157  0.00  0.00     0.174 HD
HETATM   33  H   UNK N   1      35.276  13.338   2.153  0.00  0.00     0.177 HD
ENDBRANCH  24  25
ENDBRANCH  23  24
ENDBRANCH  22  23
ENDBRANCH  21  22
BRANCH  21  34
HETATM   34  N   UNK N   1      35.081  13.189   5.700  0.00  0.00    -0.418 N 
HETATM   35  H   UNK N   1      35.641  14.026   5.858  0.00  0.00     0.150 HD
HETATM   36  H   UNK N   1      35.521  12.284   5.863  0.00  0.00     0.150 HD
ENDBRANCH  21  34
ENDBRANCH  18  21
ENDBRANCH  16  17
BRANCH  16  37
HETATM   37  C   UNK N   1      31.353  16.368   6.254  0.00  0.00     0.036 C 
BRANCH  37  38
HETATM   38  C   UNK N   1      32.379  17.311   5.628  0.00  0.00     0.023 C 
BRANCH  38  39
HETATM   39  C   UNK N   1      33.747  17.023   6.196  0.00  0.00     0.138 C 
BRANCH  39  40
HETATM   40  N   UNK N   1      33.649  16.659   7.585  0.00  0.00    -0.227 N 
HETATM   41  C   UNK N   1      34.188  17.491   8.600  0.00  0.00     0.665 C 
HETATM   42  N   UNK N   1      34.752  18.604   8.301  0.00  0.00    -0.235 N 
HETATM   43  N   UNK N   1      34.200  17.044   9.936  0.00  0.00    -0.235 N 
HETATM   44  H   UNK N   1      35.226  19.364   8.708  0.00  0.00     0.174 HD
ATOM     45  HN  UNK N   1      34.687  18.751   7.294  1.00  0.00     0.174 HD
HETATM   46  H   UNK N   1      33.383  16.697  10.362  0.00  0.00     0.174 HD
HETATM   47  H   UNK N   1      35.038  17.078  10.453  0.00  0.00     0.174 HD
HETATM   48  H   UNK N   1      33.200  15.819   7.835  0.00  0.00     0.177 HD
ENDBRANCH  39  40
ENDBRANCH  38  39
ENDBRANCH  37  38
ENDBRANCH  16  37
ENDBRANCH  13  16
ENDBRANCH  11  12
BRANCH  11  49
HETATM   49  C   UNK N   1      27.528  16.702   6.516  0.00  0.00     0.036 C 
BRANCH  49  50
HETATM   50  C   UNK N   1      26.815  16.148   7.745  0.00  0.00     0.023 C 
BRANCH  50  51
HETATM   51  C   UNK N   1      27.392  16.618   9.077  0.00  0.00     0.138 C 
BRANCH  51  52
HETATM   52  N   UNK N   1      28.484  17.553   8.915  0.00  0.00    -0.227 N 
HETATM   53  C   UNK N   1      29.695  17.481   9.652  0.00  0.00     0.665 C 
HETATM   54  N   UNK N   1      29.857  16.600  10.569  0.00  0.00    -0.235 N 
HETATM   55  N   UNK N   1      30.755  18.357   9.331  0.00  0.00    -0.235 N 
HETATM   56  H   UNK N   1      30.671  16.148  10.888  0.00  0.00     0.174 HD
ATOM     57  HN  UNK N   1      29.000  16.322  11.047  1.00  0.00     0.174 HD
HETATM   58  H   UNK N   1      30.671  19.333   9.425  0.00  0.00     0.174 HD
HETATM   59  H   UNK N   1      31.602  17.980   9.004  0.00  0.00     0.174 HD
HETATM   60  H   UNK N   1      28.382  18.278   8.257  0.00  0.00     0.177 HD
ENDBRANCH  51  52
ENDBRANCH  50  51
ENDBRANCH  49  50
ENDBRANCH  11  49
ENDBRANCH   8  11
ENDBRANCH   6   7
BRANCH   6  61
HETATM   61  C   UNK N   1      26.990  19.232   4.070  0.00  0.00     0.036 C 
BRANCH  61  62
HETATM   62  C   UNK N   1      26.504  20.554   4.655  0.00  0.00     0.023 C 
BRANCH  62  63
HETATM   63  C   UNK N   1      27.502  21.182   5.608  0.00  0.00     0.138 C 
BRANCH  63  64
HETATM   64  N   UNK N   1      26.756  21.937   6.567  0.00  0.00    -0.227 N 
HETATM   65  C   UNK N   1      26.353  21.391   7.810  0.00  0.00     0.665 C 
HETATM   66  N   UNK N   1      26.776  20.243   8.188  0.00  0.00    -0.235 N 
HETATM   67  N   UNK N   1      25.355  22.046   8.558  0.00  0.00    -0.235 N 
HETATM   68  H   UNK N   1      26.954  19.903   9.095  0.00  0.00     0.174 HD
ATOM     69  HN  UNK N   1      26.953  19.578   7.435  1.00  0.00     0.174 HD
HETATM   70  H   UNK N   1      24.953  22.937   8.444  0.00  0.00     0.174 HD
HETATM   71  H   UNK N   1      25.000  21.527   9.316  0.00  0.00     0.174 HD
HETATM   72  H   UNK N   1      26.514  22.868   6.355  0.00  0.00     0.177 HD
ENDBRANCH  63  64
ENDBRANCH  62  63
ENDBRANCH  61  62
ENDBRANCH   6  61
ENDBRANCH   3   6
ENDBRANCH   1   2
BRANCH   1  73
HETATM   73  C   UNK N   1      21.789  17.363   3.928  0.00  0.00     0.036 C 
BRANCH  73  74
HETATM   74  C   UNK N   1      20.491  17.939   3.442  0.00  0.00     0.023 C 
BRANCH  74  75
HETATM   75  C   UNK N   1      20.491  17.983   1.927  0.00  0.00     0.138 C 
BRANCH  75  76
HETATM   76  N   UNK N   1      20.001  19.262   1.479  0.00  0.00    -0.227 N 
HETATM   77  C   UNK N   1      20.804  20.434   1.485  0.00  0.00     0.665 C 
HETATM   78  N   UNK N   1      22.012  20.402   1.918  0.00  0.00    -0.235 N 
HETATM   79  N   UNK N   1      20.255  21.655   1.045  0.00  0.00    -0.235 N 
HETATM   80  H   UNK N   1      22.853  20.891   2.064  0.00  0.00     0.174 HD
ATOM     81  HN  UNK N   1      22.168  19.454   2.262  1.00  0.00     0.174 HD
HETATM   82  H   UNK N   1      19.417  22.000   1.431  0.00  0.00     0.174 HD
HETATM   83  H   UNK N   1      20.714  22.169   0.342  0.00  0.00     0.174 HD
HETATM   84  H   UNK N   1      19.074  19.326   1.155  0.00  0.00     0.177 HD
ENDBRANCH  75  76
ENDBRANCH  74  75
ENDBRANCH  73  74
ENDBRANCH   1  73
BRANCH   1  85
HETATM   85  C   UNK N   1      21.677  17.871   6.261  0.00  0.00     0.241 C 
HETATM   86  O   UNK N   1      21.067  18.718   6.903  0.00  0.00    -0.271 OA
HETATM   87  N   UNK N   1      21.545  16.560   6.534  0.00  0.00    -0.346 N 
HETATM   88  H   UNK N   1      22.276  15.936   6.321  0.00  0.00     0.163 HD
BRANCH  87  89
HETATM   89  C   UNK N   1      20.354  16.078   7.131  0.00  0.00     0.176 C 
BRANCH  89  90
HETATM   90  C   UNK N   1      20.524  15.979   8.637  0.00  0.00     0.036 C 
BRANCH  90  91
HETATM   91  C   UNK N   1      19.207  16.247   9.311  0.00  0.00     0.023 C 
BRANCH  91  92
HETATM   92  C   UNK N   1      18.709  17.644   8.976  0.00  0.00     0.138 C 
BRANCH  92  93
HETATM   93  N   UNK N   1      17.660  17.970   9.898  0.00  0.00    -0.227 N 
HETATM   94  C   UNK N   1      17.852  18.959  10.890  0.00  0.00     0.665 C 
HETATM   95  N   UNK N   1      18.813  19.802  10.794  0.00  0.00    -0.235 N 
HETATM   96  N   UNK N   1      17.109  18.890  12.081  0.00  0.00    -0.235 N 
HETATM   97  H   UNK N   1      18.719  20.702  11.180  0.00  0.00     0.174 HD
ATOM     98  HN  UNK N   1      19.676  19.538  10.318  1.00  0.00     0.174 HD
HETATM   99  H   UNK N   1      16.733  18.117  12.559  0.00  0.00     0.174 HD
HETATM  100  H   UNK N   1      16.936  19.761  12.508  0.00  0.00     0.174 HD
HETATM  101  H   UNK N   1      16.798  17.500   9.841  0.00  0.00     0.177 HD
ENDBRANCH  92  93
ENDBRANCH  91  92
ENDBRANCH  90  91
ENDBRANCH  89  90
BRANCH  89 102
HETATM  102  C   UNK N   1      20.202  14.721   6.557  0.00  0.00     0.241 C 
HETATM  103  O   UNK N   1      20.294  13.744   7.287  0.00  0.00    -0.271 OA
HETATM  104  N   UNK N   1      19.706  14.596   5.306  0.00  0.00    -0.346 N 
HETATM  105  H   UNK N   1      18.762  14.820   5.144  0.00  0.00     0.163 HD
BRANCH 104 106
HETATM  106  C   UNK N   1      20.515  14.146   4.203  0.00  0.00     0.176 C 
BRANCH 106 107
HETATM  107  C   UNK N   1      19.792  14.333   2.863  0.00  0.00     0.036 C 
BRANCH 107 108
HETATM  108  C   UNK N   1      20.458  13.707   1.639  0.00  0.00     0.023 C 
BRANCH 108 109
HETATM  109  C   UNK N   1      21.488  14.607   0.980  0.00  0.00     0.138 C 
BRANCH 109 110
HETATM  110  N   UNK N   1      22.795  14.401   1.548  0.00  0.00    -0.227 N 
HETATM  111  C   UNK N   1      23.734  13.537   0.928  0.00  0.00     0.665 C 
HETATM  112  N   UNK N   1      23.446  12.936  -0.168  0.00  0.00    -0.235 N 
HETATM  113  N   UNK N   1      25.006  13.356   1.511  0.00  0.00    -0.235 N 
HETATM  114  H   UNK N   1      23.572  12.420  -0.997  0.00  0.00     0.174 HD
ATOM    115  HN  UNK N   1      22.439  13.096  -0.204  1.00  0.00     0.174 HD
HETATM  116  H   UNK N   1      25.631  14.083   1.733  0.00  0.00     0.174 HD
HETATM  117  H   UNK N   1      25.288  12.433   1.712  0.00  0.00     0.174 HD
HETATM  118  H   UNK N   1      23.041  14.867   2.380  0.00  0.00     0.177 HD
ENDBRANCH 109 110
ENDBRANCH 108 109
ENDBRANCH 107 108
ENDBRANCH 106 107
BRANCH 106 119
HETATM  119  C   UNK N   1      21.103  12.777   4.414  0.00  0.00     0.241 C 
HETATM  120  O   UNK N   1      20.359  11.818   4.552  0.00  0.00    -0.271 OA
HETATM  121  N   UNK N   1      22.457  12.645   4.515  0.00  0.00    -0.346 N 
HETATM  122  H   UNK N   1      23.007  13.353   4.110  0.00  0.00     0.163 HD
BRANCH 121 123
HETATM  123  C   UNK N   1      23.156  11.561   5.163  0.00  0.00     0.176 C 
BRANCH 123 124
HETATM  124  C   UNK N   1      23.609  11.835   6.593  0.00  0.00     0.036 C 
BRANCH 124 125
HETATM  125  C   UNK N   1      23.603  13.271   7.088  0.00  0.00     0.023 C 
BRANCH 125 126
HETATM  126  C   UNK N   1      24.603  13.375   8.244  0.00  0.00     0.138 C 
BRANCH 126 127
HETATM  127  N   UNK N   1      24.040  12.797   9.446  0.00  0.00    -0.227 N 
HETATM  128  C   UNK N   1      24.715  12.768  10.690  0.00  0.00     0.665 C 
HETATM  129  N   UNK N   1      25.805  13.420  10.858  0.00  0.00    -0.235 N 
HETATM  130  N   UNK N   1      24.137  12.080  11.778  0.00  0.00    -0.235 N 
HETATM  131  H   UNK N   1      25.852  14.171  11.492  0.00  0.00     0.174 HD
ATOM    132  HN  UNK N   1      26.634  13.156  10.327  1.00  0.00     0.174 HD
HETATM  133  H   UNK N   1      23.761  11.218  12.069  0.00  0.00     0.174 HD
HETATM  134  H   UNK N   1      24.092  12.703  12.539  0.00  0.00     0.174 HD
HETATM  135  H   UNK N   1      23.140  12.402   9.396  0.00  0.00     0.177 HD
ENDBRANCH 126 127
ENDBRANCH 125 126
ENDBRANCH 124 125
ENDBRANCH 123 124
BRANCH 123 136
HETATM  136  C   UNK N   1      24.395  11.373   4.364  0.00  0.00     0.241 C 
HETATM  137  O   UNK N   1      25.322  12.160   4.465  0.00  0.00    -0.271 OA
HETATM  138  N   UNK N   1      24.456  10.293   3.536  0.00  0.00    -0.345 N 
HETATM  139  H   UNK N   1      23.716   9.648   3.607  0.00  0.00     0.163 HD
BRANCH 138 140
HETATM  140  C   UNK N   1      25.478   9.988   2.570  0.00  0.00     0.182 C 
BRANCH 140 141
HETATM  141  C   UNK N   1      26.559   9.121   3.212  0.00  0.00     0.038 C 
BRANCH 141 142
HETATM  142  C   UNK N   1      27.862   9.877   3.479  0.00  0.00     0.023 C 
BRANCH 142 143
HETATM  143  C   UNK N   1      28.394  10.550   2.223  0.00  0.00     0.138 C 
BRANCH 143 144
HETATM  144  N   UNK N   1      28.389  11.984   2.381  0.00  0.00    -0.227 N 
HETATM  145  C   UNK N   1      29.068  12.847   1.482  0.00  0.00     0.665 C 
HETATM  146  N   UNK N   1      29.067  14.107   1.697  0.00  0.00    -0.235 N 
HETATM  147  N   UNK N   1      29.802  12.324   0.391  0.00  0.00    -0.235 N 
HETATM  148  H   UNK N   1      28.943  14.507   2.587  0.00  0.00     0.174 HD
ATOM    149  HN  UNK N   1      29.204  14.732   0.902  1.00  0.00     0.174 HD
HETATM  150  H   UNK N   1      30.034  12.901  -0.372  0.00  0.00     0.174 HD
HETATM  151  H   UNK N   1      30.081  11.381   0.395  0.00  0.00     0.174 HD
HETATM  152  H   UNK N   1      27.897  12.377   3.138  0.00  0.00     0.177 HD
ENDBRANCH 143 144
ENDBRANCH 142 143
ENDBRANCH 141 142
ENDBRANCH 140 141
BRANCH 140 153
HETATM  153  C   UNK N   1      24.952   9.554   1.234  0.00  0.00     0.163 C 
HETATM  154  O   UNK N   1      24.989  10.308   0.276  0.00  0.00    -0.648 OA
BRANCH 153 155
HETATM  155  O   UNK N   1      24.408   8.329   1.098  0.00  0.00    -0.775 OA
HETATM  156  H   UNK N   1      24.588   7.814   0.337  0.00  0.00     0.167 HD
ENDBRANCH 153 155
ENDBRANCH 140 153
ENDBRANCH 138 140
ENDBRANCH 123 136
ENDBRANCH 121 123
ENDBRANCH 106 119
ENDBRANCH 104 106
ENDBRANCH  89 102
ENDBRANCH  87  89
ENDBRANCH   1  85
TORSDOF 55
ENDMDL
MODEL 4
REMARK VINA RESULT:      -7.4      2.717      6.000
REMARK WARNING: 32 MAX_TORS EXCEEDED!!!
REMARK  55 active torsions:
REMARK  status: ('A' for Active; 'I' for Inactive)
REMARK    1  A    between atoms: C_1  and  C_2 
REMARK    2  A    between atoms: C_1  and  C_104 
REMARK    3  A    between atoms: C_2  and  C_3 
REMARK    4  A    between atoms: C_3  and  C_4 
REMARK    5  A    between atoms: C_3  and  N_103 
REMARK       I    between atoms: C_4  and  N_6 
REMARK    6  A    between atoms: C_7  and  N_6 
REMARK    7  A    between atoms: C_7  and  C_8 
REMARK    8  A    between atoms: C_7  and  C_16 
REMARK    9  A    between atoms: C_8  and  C_9 
REMARK   10  A    between atoms: C_9  and  C_10 
REMARK   11  A    between atoms: C_10  and  N_11 
REMARK       I    between atoms: N_11  and  C_12 
REMARK       I    between atoms: C_12  and  N_15 
REMARK       I    between atoms: C_16  and  N_18 
REMARK   12  A    between atoms: C_19  and  N_18 
REMARK   13  A    between atoms: C_19  and  C_20 
REMARK   14  A    between atoms: C_19  and  C_28 
REMARK   15  A    between atoms: C_20  and  C_21 
REMARK   16  A    between atoms: C_21  and  C_22 
REMARK   17  A    between atoms: C_22  and  N_23 
REMARK       I    between atoms: N_23  and  C_24 
REMARK       I    between atoms: C_24  and  N_27 
REMARK       I    between atoms: C_28  and  N_30 
REMARK   18  A    between atoms: C_31  and  N_30 
REMARK   19  A    between atoms: C_31  and  C_32 
REMARK   20  A    between atoms: C_31  and  C_40 
REMARK   21  A    between atoms: C_32  and  C_33 
REMARK   22  A    between atoms: C_33  and  C_34 
REMARK   23  A    between atoms: C_34  and  N_35 
REMARK       I    between atoms: N_35  and  C_36 
REMARK       I    between atoms: C_36  and  N_39 
REMARK       I    between atoms: C_40  and  N_42 
REMARK   24  A    between atoms: C_43  and  N_42 
REMARK   25  A    between atoms: C_43  and  C_44 
REMARK   26  A    between atoms: C_43  and  C_52 
REMARK   27  A    between atoms: C_44  and  C_45 
REMARK   28  A    between atoms: C_45  and  C_46 
REMARK   29  A    between atoms: C_46  and  N_47 
REMARK       I    between atoms: N_47  and  C_48 
REMARK       I    between atoms: C_48  and  N_51 
REMARK       I    between atoms: C_52  and  N_54 
REMARK   30  A    between atoms: C_55  and  N_54 
REMARK   31  A    between atoms: C_55  and  C_56 
REMARK   32  A    between atoms: C_55  and  C_64 
REMARK   33  A    between atoms: C_56  and  C_57 
REMARK   34  A    between atoms: C_57  and  C_58 
REMARK   35  A    between atoms: C_58  and  N_59 
REMARK       I    between atoms: N_59  and  C_60 
REMARK       I    between atoms: C_60  and  N_63 
REMARK       I    between atoms: C_64  and  N_66 
REMARK   36  A    between atoms: C_67  and  N_66 
REMARK   37  A    between atoms: C_67  and  C_68 
REMARK   38  A    between atoms: C_67  and  C_76 
REMARK   39  A    between atoms: C_68  and  C_69 
REMARK   40  A    between atoms: C_69  and  C_70 
REMARK   41  A    between atoms: C_70  and  N_71 
REMARK       I    between atoms: N_71  and  C_72 
REMARK       I    between atoms: C_72  and  N_75 
REMARK       I    between atoms: C_76  and  N_78 
REMARK   42  A    between atoms: C_79  and  N_78 
REMARK   43  A    between atoms: C_79  and  C_80 
REMARK   44  A    between atoms: C_79  and  C_88 
REMARK   45  A    between atoms: C_80  and  C_81 
REMARK   46  A    between atoms: C_81  and  C_82 
REMARK   47  A    between atoms: C_82  and  N_83 
REMARK       I    between atoms: N_83  and  C_84 
REMARK       I    between atoms: C_84  and  N_87 
REMARK       I    between atoms: C_88  and  N_90 
REMARK   48  A    between atoms: C_91  and  N_90 
REMARK   49  A    between atoms: C_91  and  C_92 
REMARK   50  A    between atoms: C_91  and  C_100 
REMARK   51  A    between atoms: C_92  and  C_93 
REMARK   52  A    between atoms: C_93  and  C_94 
REMARK   53  A    between atoms: C_94  and  N_95 
REMARK       I    between atoms: N_95  and  C_96 
REMARK       I    between atoms: C_96  and  N_99 
REMARK   54  A    between atoms: C_100  and  O_102 
REMARK   55  A    between atoms: C_104  and  N_105 
REMARK       I    between atoms: N_105  and  C_106 
REMARK       I    between atoms: C_106  and  N_109 
ROOT
HETATM    1  C   UNK N   1      30.916  14.878   4.596  0.00  0.00     0.176 C 
ENDROOT
BRANCH   1   2
HETATM    2  N   UNK N   1      31.555  15.202   5.843  0.00  0.00    -0.346 N 
HETATM    3  C   UNK N   1      32.808  15.696   5.842  0.00  0.00     0.241 C 
HETATM    4  O   UNK N   1      33.422  15.808   4.794  0.00  0.00    -0.271 OA
HETATM    5  H   UNK N   1      31.078  15.062   6.693  0.00  0.00     0.163 HD
BRANCH   3   6
HETATM    6  C   UNK N   1      33.456  16.054   7.140  0.00  0.00     0.176 C 
BRANCH   6   7
HETATM    7  N   UNK N   1      34.706  15.347   7.172  0.00  0.00    -0.346 N 
HETATM    8  C   UNK N   1      34.896  14.221   7.894  0.00  0.00     0.241 C 
HETATM    9  O   UNK N   1      35.865  13.524   7.617  0.00  0.00    -0.271 OA
HETATM   10  H   UNK N   1      35.459  15.699   6.645  0.00  0.00     0.163 HD
BRANCH   8  11
HETATM   11  C   UNK N   1      34.040  13.795   9.094  0.00  0.00     0.176 C 
BRANCH  11  12
HETATM   12  N   UNK N   1      34.465  12.437   9.337  0.00  0.00    -0.346 N 
HETATM   13  C   UNK N   1      33.570  11.417   9.391  0.00  0.00     0.241 C 
HETATM   14  O   UNK N   1      32.529  11.468   8.750  0.00  0.00    -0.271 OA
HETATM   15  H   UNK N   1      35.422  12.247   9.465  0.00  0.00     0.163 HD
BRANCH  13  16
HETATM   16  C   UNK N   1      33.633  10.532  10.594  0.00  0.00     0.176 C 
BRANCH  16  17
HETATM   17  N   UNK N   1      34.971  10.322  11.076  0.00  0.00    -0.346 N 
HETATM   18  C   UNK N   1      35.398  10.680  12.309  0.00  0.00     0.240 C 
HETATM   19  O   UNK N   1      36.529  10.373  12.646  0.00  0.00    -0.271 OA
HETATM   20  H   UNK N   1      35.617   9.890  10.472  0.00  0.00     0.163 HD
BRANCH  18  21
HETATM   21  C   UNK N   1      34.537  11.437  13.296  0.00  0.00     0.167 C 
BRANCH  21  22
HETATM   22  C   UNK N   1      35.157  12.637  14.033  0.00  0.00     0.036 C 
BRANCH  22  23
HETATM   23  C   UNK N   1      35.615  12.410  15.473  0.00  0.00     0.023 C 
BRANCH  23  24
HETATM   24  C   UNK N   1      34.737  13.121  16.477  0.00  0.00     0.138 C 
BRANCH  24  25
HETATM   25  N   UNK N   1      34.978  12.555  17.778  0.00  0.00    -0.227 N 
HETATM   26  C   UNK N   1      35.212  13.366  18.915  0.00  0.00     0.665 C 
HETATM   27  N   UNK N   1      35.223  14.644  18.814  0.00  0.00    -0.235 N 
HETATM   28  N   UNK N   1      35.507  12.758  20.154  0.00  0.00    -0.235 N 
HETATM   29  H   UNK N   1      34.701  15.201  19.436  0.00  0.00     0.174 HD
ATOM     30  HN  UNK N   1      35.779  15.088  18.083  1.00  0.00     0.174 HD
HETATM   31  H   UNK N   1      36.025  11.995  20.498  0.00  0.00     0.174 HD
HETATM   32  H   UNK N   1      35.065  13.238  20.890  0.00  0.00     0.174 HD
HETATM   33  H   UNK N   1      34.981  11.577  17.881  0.00  0.00     0.177 HD
ENDBRANCH  24  25
ENDBRANCH  23  24
ENDBRANCH  22  23
ENDBRANCH  21  22
BRANCH  21  34
HETATM   34  N   UNK N   1      33.972  10.514  14.262  0.00  0.00    -0.418 N 
HETATM   35  H   UNK N   1      33.861  10.715  15.255  0.00  0.00     0.150 HD
HETATM   36  H   UNK N   1      33.664   9.602  13.925  0.00  0.00     0.150 HD
ENDBRANCH  21  34
ENDBRANCH  18  21
ENDBRANCH  16  17
BRANCH  16  37
HETATM   37  C   UNK N   1      32.990   9.175  10.290  0.00  0.00     0.036 C 
BRANCH  37  38
HETATM   38  C   UNK N   1      33.961   8.189   9.643  0.00  0.00     0.023 C 
BRANCH  38  39
HETATM   39  C   UNK N   1      33.465   7.815   8.269  0.00  0.00     0.138 C 
BRANCH  39  40
HETATM   40  N   UNK N   1      32.711   6.590   8.321  0.00  0.00    -0.227 N 
HETATM   41  C   UNK N   1      31.782   6.257   7.301  0.00  0.00     0.665 C 
HETATM   42  N   UNK N   1      31.616   7.031   6.293  0.00  0.00    -0.235 N 
HETATM   43  N   UNK N   1      30.961   5.121   7.450  0.00  0.00    -0.235 N 
HETATM   44  H   UNK N   1      31.079   7.127   5.473  0.00  0.00     0.174 HD
ATOM     45  HN  UNK N   1      32.260   7.818   6.365  1.00  0.00     0.174 HD
HETATM   46  H   UNK N   1      31.345   4.244   7.678  0.00  0.00     0.174 HD
HETATM   47  H   UNK N   1      29.988   5.206   7.323  0.00  0.00     0.174 HD
HETATM   48  H   UNK N   1      32.843   5.972   9.077  0.00  0.00     0.177 HD
ENDBRANCH  39  40
ENDBRANCH  38  39
ENDBRANCH  37  38
ENDBRANCH  16  37
ENDBRANCH  13  16
ENDBRANCH  11  12
BRANCH  11  49
HETATM   49  C   UNK N   1      34.132  14.621  10.392  0.00  0.00     0.036 C 
BRANCH  49  50
HETATM   50  C   UNK N   1      35.173  15.736  10.371  0.00  0.00     0.023 C 
BRANCH  50  51
HETATM   51  C   UNK N   1      36.494  15.380  11.047  0.00  0.00     0.138 C 
BRANCH  51  52
HETATM   52  N   UNK N   1      37.402  14.678  10.167  0.00  0.00    -0.227 N 
HETATM   53  C   UNK N   1      38.070  13.477  10.524  0.00  0.00     0.665 C 
HETATM   54  N   UNK N   1      37.949  12.981  11.701  0.00  0.00    -0.235 N 
HETATM   55  N   UNK N   1      38.832  12.792   9.554  0.00  0.00    -0.235 N 
HETATM   56  H   UNK N   1      37.981  12.047  12.009  0.00  0.00     0.174 HD
ATOM     57  HN  UNK N   1      37.793  13.668  12.438  1.00  0.00     0.174 HD
HETATM   58  H   UNK N   1      39.628  13.196   9.136  0.00  0.00     0.174 HD
HETATM   59  H   UNK N   1      38.561  11.886   9.287  0.00  0.00     0.174 HD
HETATM   60  H   UNK N   1      37.565  15.052   9.272  0.00  0.00     0.177 HD
ENDBRANCH  51  52
ENDBRANCH  50  51
ENDBRANCH  49  50
ENDBRANCH  11  49
ENDBRANCH   8  11
ENDBRANCH   6   7
BRANCH   6  61
HETATM   61  C   UNK N   1      33.658  17.566   7.246  0.00  0.00     0.036 C 
BRANCH  61  62
HETATM   62  C   UNK N   1      32.509  18.279   7.953  0.00  0.00     0.023 C 
BRANCH  62  63
HETATM   63  C   UNK N   1      31.534  17.322   8.609  0.00  0.00     0.138 C 
BRANCH  63  64
HETATM   64  N   UNK N   1      30.260  17.973   8.646  0.00  0.00    -0.227 N 
HETATM   65  C   UNK N   1      29.286  17.672   9.629  0.00  0.00     0.665 C 
HETATM   66  N   UNK N   1      29.569  16.909  10.618  0.00  0.00    -0.235 N 
HETATM   67  N   UNK N   1      27.954  18.084   9.427  0.00  0.00    -0.235 N 
HETATM   68  H   UNK N   1      29.223  16.916  11.540  0.00  0.00     0.174 HD
ATOM     69  HN  UNK N   1      30.257  16.182  10.421  1.00  0.00     0.174 HD
HETATM   70  H   UNK N   1      27.571  18.697   8.759  0.00  0.00     0.174 HD
HETATM   71  H   UNK N   1      27.302  17.694  10.053  0.00  0.00     0.174 HD
HETATM   72  H   UNK N   1      30.055  18.655   7.966  0.00  0.00     0.177 HD
ENDBRANCH  63  64
ENDBRANCH  62  63
ENDBRANCH  61  62
ENDBRANCH   6  61
ENDBRANCH   3   6
ENDBRANCH   1   2
BRANCH   1  73
HETATM   73  C   UNK N   1      29.931  13.745   4.826  0.00  0.00     0.036 C 
BRANCH  73  74
HETATM   74  C   UNK N   1      30.497  12.450   4.322  0.00  0.00     0.023 C 
BRANCH  74  75
HETATM   75  C   UNK N   1      30.586  12.490   2.810  0.00  0.00     0.138 C 
BRANCH  75  76
HETATM   76  N   UNK N   1      29.531  11.689   2.241  0.00  0.00    -0.227 N 
HETATM   77  C   UNK N   1      28.329  12.253   1.738  0.00  0.00     0.665 C 
HETATM   78  N   UNK N   1      28.123  13.519   1.792  0.00  0.00    -0.235 N 
HETATM   79  N   UNK N   1      27.333  11.408   1.207  0.00  0.00    -0.235 N 
HETATM   80  H   UNK N   1      27.531  14.273   1.567  0.00  0.00     0.174 HD
ATOM     81  HN  UNK N   1      28.922  13.919   2.285  1.00  0.00     0.174 HD
HETATM   82  H   UNK N   1      26.981  10.652   1.731  0.00  0.00     0.174 HD
HETATM   83  H   UNK N   1      26.987  11.575   0.301  0.00  0.00     0.174 HD
HETATM   84  H   UNK N   1      29.650  10.713   2.198  0.00  0.00     0.177 HD
ENDBRANCH  75  76
ENDBRANCH  74  75
ENDBRANCH  73  74
ENDBRANCH   1  73
BRANCH   1  85
HETATM   85  C   UNK N   1      30.111  16.039   4.176  0.00  0.00     0.241 C 
HETATM   86  O   UNK N   1      30.018  16.334   2.991  0.00  0.00    -0.271 OA
HETATM   87  N   UNK N   1      29.319  16.612   5.101  0.00  0.00    -0.346 N 
HETATM   88  H   UNK N   1      29.627  16.688   6.034  0.00  0.00     0.163 HD
BRANCH  87  89
HETATM   89  C   UNK N   1      28.044  17.106   4.733  0.00  0.00     0.176 C 
BRANCH  89  90
HETATM   90  C   UNK N   1      28.089  18.617   4.586  0.00  0.00     0.036 C 
BRANCH  90  91
HETATM   91  C   UNK N   1      26.890  19.083   3.809  0.00  0.00     0.023 C 
BRANCH  91  92
HETATM   92  C   UNK N   1      26.576  20.537   4.128  0.00  0.00     0.138 C 
BRANCH  92  93
HETATM   93  N   UNK N   1      25.904  20.574   5.395  0.00  0.00    -0.227 N 
HETATM   94  C   UNK N   1      26.518  21.171   6.520  0.00  0.00     0.665 C 
HETATM   95  N   UNK N   1      27.515  21.964   6.377  0.00  0.00    -0.235 N 
HETATM   96  N   UNK N   1      26.160  20.737   7.808  0.00  0.00    -0.235 N 
HETATM   97  H   UNK N   1      27.666  22.689   7.025  0.00  0.00     0.174 HD
ATOM     98  HN  UNK N   1      28.152  21.844   5.588  1.00  0.00     0.174 HD
HETATM   99  H   UNK N   1      25.839  19.862   8.124  0.00  0.00     0.174 HD
HETATM  100  H   UNK N   1      26.245  21.422   8.510  0.00  0.00     0.174 HD
HETATM  101  H   UNK N   1      25.007  20.180   5.482  0.00  0.00     0.177 HD
ENDBRANCH  92  93
ENDBRANCH  91  92
ENDBRANCH  90  91
ENDBRANCH  89  90
BRANCH  89 102
HETATM  102  C   UNK N   1      27.185  16.744   5.884  0.00  0.00     0.241 C 
HETATM  103  O   UNK N   1      27.674  16.670   7.003  0.00  0.00    -0.271 OA
HETATM  104  N   UNK N   1      25.843  16.765   5.725  0.00  0.00    -0.346 N 
HETATM  105  H   UNK N   1      25.392  17.630   5.601  0.00  0.00     0.163 HD
BRANCH 104 106
HETATM  106  C   UNK N   1      25.053  15.561   5.731  0.00  0.00     0.176 C 
BRANCH 106 107
HETATM  107  C   UNK N   1      25.402  14.654   4.544  0.00  0.00     0.036 C 
BRANCH 107 108
HETATM  108  C   UNK N   1      25.175  15.242   3.151  0.00  0.00     0.023 C 
BRANCH 108 109
HETATM  109  C   UNK N   1      23.770  15.025   2.621  0.00  0.00     0.138 C 
BRANCH 109 110
HETATM  110  N   UNK N   1      23.422  13.628   2.631  0.00  0.00    -0.227 N 
HETATM  111  C   UNK N   1      22.189  13.185   3.173  0.00  0.00     0.665 C 
HETATM  112  N   UNK N   1      21.344  14.025   3.648  0.00  0.00    -0.235 N 
HETATM  113  N   UNK N   1      21.879  11.809   3.170  0.00  0.00    -0.235 N 
HETATM  114  H   UNK N   1      20.494  14.382   3.995  0.00  0.00     0.174 HD
ATOM    115  HN  UNK N   1      21.927  14.860   3.700  1.00  0.00     0.174 HD
HETATM  116  H   UNK N   1      21.877  11.235   2.370  0.00  0.00     0.174 HD
HETATM  117  H   UNK N   1      21.648  11.391   4.032  0.00  0.00     0.174 HD
HETATM  118  H   UNK N   1      24.051  12.969   2.255  0.00  0.00     0.177 HD
ENDBRANCH 109 110
ENDBRANCH 108 109
ENDBRANCH 107 108
ENDBRANCH 106 107
BRANCH 106 119
HETATM  119  C   UNK N   1      23.581  15.815   5.917  0.00  0.00     0.241 C 
HETATM  120  O   UNK N   1      22.838  14.882   6.179  0.00  0.00    -0.271 OA
HETATM  121  N   UNK N   1      23.096  17.075   5.721  0.00  0.00    -0.346 N 
HETATM  122  H   UNK N   1      23.734  17.819   5.812  0.00  0.00     0.163 HD
BRANCH 121 123
HETATM  123  C   UNK N   1      21.733  17.416   5.391  0.00  0.00     0.176 C 
BRANCH 123 124
HETATM  124  C   UNK N   1      21.524  18.822   4.840  0.00  0.00     0.036 C 
BRANCH 124 125
HETATM  125  C   UNK N   1      21.127  18.973   3.382  0.00  0.00     0.023 C 
BRANCH 125 126
HETATM  126  C   UNK N   1      22.051  20.017   2.748  0.00  0.00     0.138 C 
BRANCH 126 127
HETATM  127  N   UNK N   1      21.303  21.212   2.419  0.00  0.00    -0.227 N 
HETATM  128  C   UNK N   1      20.648  21.408   1.178  0.00  0.00     0.665 C 
HETATM  129  N   UNK N   1      20.536  20.446   0.339  0.00  0.00    -0.235 N 
HETATM  130  N   UNK N   1      20.043  22.652   0.902  0.00  0.00    -0.235 N 
HETATM  131  H   UNK N   1      19.653  20.081   0.104  0.00  0.00     0.174 HD
ATOM    132  HN  UNK N   1      21.374  20.055  -0.089  1.00  0.00     0.174 HD
HETATM  133  H   UNK N   1      20.194  23.624   0.867  0.00  0.00     0.174 HD
HETATM  134  H   UNK N   1      19.108  22.482   0.644  0.00  0.00     0.174 HD
HETATM  135  H   UNK N   1      21.247  21.928   3.092  0.00  0.00     0.177 HD
ENDBRANCH 126 127
ENDBRANCH 125 126
ENDBRANCH 124 125
ENDBRANCH 123 124
BRANCH 123 136
HETATM  136  C   UNK N   1      21.001  17.363   6.683  0.00  0.00     0.241 C 
HETATM  137  O   UNK N   1      21.059  18.297   7.466  0.00  0.00    -0.271 OA
HETATM  138  N   UNK N   1      20.264  16.249   6.948  0.00  0.00    -0.345 N 
HETATM  139  H   UNK N   1      20.176  15.599   6.213  0.00  0.00     0.163 HD
BRANCH 138 140
HETATM  140  C   UNK N   1      19.598  15.912   8.179  0.00  0.00     0.182 C 
BRANCH 140 141
HETATM  141  C   UNK N   1      20.613  15.402   9.198  0.00  0.00     0.038 C 
BRANCH 141 142
HETATM  142  C   UNK N   1      21.019  13.944   8.970  0.00  0.00     0.023 C 
BRANCH 142 143
HETATM  143  C   UNK N   1      21.422  13.259  10.266  0.00  0.00     0.138 C 
BRANCH 143 144
HETATM  144  N   UNK N   1      22.857  13.119  10.335  0.00  0.00    -0.227 N 
HETATM  145  C   UNK N   1      23.492  12.299  11.303  0.00  0.00     0.665 C 
HETATM  146  N   UNK N   1      24.769  12.248  11.347  0.00  0.00    -0.235 N 
HETATM  147  N   UNK N   1      22.731  11.589  12.263  0.00  0.00    -0.235 N 
HETATM  148  H   UNK N   1      25.353  12.968  11.016  0.00  0.00     0.174 HD
ATOM    149  HN  UNK N   1      25.206  11.417  11.746  1.00  0.00     0.174 HD
HETATM  150  H   UNK N   1      23.126  10.824  12.741  0.00  0.00     0.174 HD
HETATM  151  H   UNK N   1      21.805  11.860  12.452  0.00  0.00     0.174 HD
HETATM  152  H   UNK N   1      23.414  13.611   9.689  0.00  0.00     0.177 HD
ENDBRANCH 143 144
ENDBRANCH 142 143
ENDBRANCH 141 142
ENDBRANCH 140 141
BRANCH 140 153
HETATM  153  C   UNK N   1      18.614  16.944   8.647  0.00  0.00     0.163 C 
HETATM  154  O   UNK N   1      17.440  16.875   8.321  0.00  0.00    -0.648 OA
BRANCH 153 155
HETATM  155  O   UNK N   1      19.036  17.969   9.410  0.00  0.00    -0.775 OA
HETATM  156  H   UNK N   1      18.721  18.837   9.252  0.00  0.00     0.167 HD
ENDBRANCH 153 155
ENDBRANCH 140 153
ENDBRANCH 138 140
ENDBRANCH 123 136
ENDBRANCH 121 123
ENDBRANCH 106 119
ENDBRANCH 104 106
ENDBRANCH  89 102
ENDBRANCH  87  89
ENDBRANCH   1  85
TORSDOF 55
ENDMDL
MODEL 5
REMARK VINA RESULT:      -7.4      3.994      8.738
REMARK WARNING: 32 MAX_TORS EXCEEDED!!!
REMARK  55 active torsions:
REMARK  status: ('A' for Active; 'I' for Inactive)
REMARK    1  A    between atoms: C_1  and  C_2 
REMARK    2  A    between atoms: C_1  and  C_104 
REMARK    3  A    between atoms: C_2  and  C_3 
REMARK    4  A    between atoms: C_3  and  C_4 
REMARK    5  A    between atoms: C_3  and  N_103 
REMARK       I    between atoms: C_4  and  N_6 
REMARK    6  A    between atoms: C_7  and  N_6 
REMARK    7  A    between atoms: C_7  and  C_8 
REMARK    8  A    between atoms: C_7  and  C_16 
REMARK    9  A    between atoms: C_8  and  C_9 
REMARK   10  A    between atoms: C_9  and  C_10 
REMARK   11  A    between atoms: C_10  and  N_11 
REMARK       I    between atoms: N_11  and  C_12 
REMARK       I    between atoms: C_12  and  N_15 
REMARK       I    between atoms: C_16  and  N_18 
REMARK   12  A    between atoms: C_19  and  N_18 
REMARK   13  A    between atoms: C_19  and  C_20 
REMARK   14  A    between atoms: C_19  and  C_28 
REMARK   15  A    between atoms: C_20  and  C_21 
REMARK   16  A    between atoms: C_21  and  C_22 
REMARK   17  A    between atoms: C_22  and  N_23 
REMARK       I    between atoms: N_23  and  C_24 
REMARK       I    between atoms: C_24  and  N_27 
REMARK       I    between atoms: C_28  and  N_30 
REMARK   18  A    between atoms: C_31  and  N_30 
REMARK   19  A    between atoms: C_31  and  C_32 
REMARK   20  A    between atoms: C_31  and  C_40 
REMARK   21  A    between atoms: C_32  and  C_33 
REMARK   22  A    between atoms: C_33  and  C_34 
REMARK   23  A    between atoms: C_34  and  N_35 
REMARK       I    between atoms: N_35  and  C_36 
REMARK       I    between atoms: C_36  and  N_39 
REMARK       I    between atoms: C_40  and  N_42 
REMARK   24  A    between atoms: C_43  and  N_42 
REMARK   25  A    between atoms: C_43  and  C_44 
REMARK   26  A    between atoms: C_43  and  C_52 
REMARK   27  A    between atoms: C_44  and  C_45 
REMARK   28  A    between atoms: C_45  and  C_46 
REMARK   29  A    between atoms: C_46  and  N_47 
REMARK       I    between atoms: N_47  and  C_48 
REMARK       I    between atoms: C_48  and  N_51 
REMARK       I    between atoms: C_52  and  N_54 
REMARK   30  A    between atoms: C_55  and  N_54 
REMARK   31  A    between atoms: C_55  and  C_56 
REMARK   32  A    between atoms: C_55  and  C_64 
REMARK   33  A    between atoms: C_56  and  C_57 
REMARK   34  A    between atoms: C_57  and  C_58 
REMARK   35  A    between atoms: C_58  and  N_59 
REMARK       I    between atoms: N_59  and  C_60 
REMARK       I    between atoms: C_60  and  N_63 
REMARK       I    between atoms: C_64  and  N_66 
REMARK   36  A    between atoms: C_67  and  N_66 
REMARK   37  A    between atoms: C_67  and  C_68 
REMARK   38  A    between atoms: C_67  and  C_76 
REMARK   39  A    between atoms: C_68  and  C_69 
REMARK   40  A    between atoms: C_69  and  C_70 
REMARK   41  A    between atoms: C_70  and  N_71 
REMARK       I    between atoms: N_71  and  C_72 
REMARK       I    between atoms: C_72  and  N_75 
REMARK       I    between atoms: C_76  and  N_78 
REMARK   42  A    between atoms: C_79  and  N_78 
REMARK   43  A    between atoms: C_79  and  C_80 
REMARK   44  A    between atoms: C_79  and  C_88 
REMARK   45  A    between atoms: C_80  and  C_81 
REMARK   46  A    between atoms: C_81  and  C_82 
REMARK   47  A    between atoms: C_82  and  N_83 
REMARK       I    between atoms: N_83  and  C_84 
REMARK       I    between atoms: C_84  and  N_87 
REMARK       I    between atoms: C_88  and  N_90 
REMARK   48  A    between atoms: C_91  and  N_90 
REMARK   49  A    between atoms: C_91  and  C_92 
REMARK   50  A    between atoms: C_91  and  C_100 
REMARK   51  A    between atoms: C_92  and  C_93 
REMARK   52  A    between atoms: C_93  and  C_94 
REMARK   53  A    between atoms: C_94  and  N_95 
REMARK       I    between atoms: N_95  and  C_96 
REMARK       I    between atoms: C_96  and  N_99 
REMARK   54  A    between atoms: C_100  and  O_102 
REMARK   55  A    between atoms: C_104  and  N_105 
REMARK       I    between atoms: N_105  and  C_106 
REMARK       I    between atoms: C_106  and  N_109 
ROOT
HETATM    1  C   UNK N   1      21.873  18.089   5.214  0.00  0.00     0.176 C 
ENDROOT
BRANCH   1   2
HETATM    2  N   UNK N   1      23.259  17.707   5.168  0.00  0.00    -0.346 N 
HETATM    3  C   UNK N   1      24.116  18.398   4.391  0.00  0.00     0.241 C 
HETATM    4  O   UNK N   1      23.708  19.301   3.680  0.00  0.00    -0.271 OA
HETATM    5  H   UNK N   1      23.579  16.944   5.702  0.00  0.00     0.163 HD
BRANCH   3   6
HETATM    6  C   UNK N   1      25.559  18.011   4.368  0.00  0.00     0.176 C 
BRANCH   6   7
HETATM    7  N   UNK N   1      25.698  17.042   3.317  0.00  0.00    -0.346 N 
HETATM    8  C   UNK N   1      26.096  15.770   3.537  0.00  0.00     0.241 C 
HETATM    9  O   UNK N   1      25.882  14.946   2.655  0.00  0.00    -0.271 OA
HETATM   10  H   UNK N   1      25.494  17.318   2.394  0.00  0.00     0.163 HD
BRANCH   8  11
HETATM   11  C   UNK N   1      26.877  15.297   4.770  0.00  0.00     0.176 C 
BRANCH  11  12
HETATM   12  N   UNK N   1      28.103  16.056   4.695  0.00  0.00    -0.346 N 
HETATM   13  C   UNK N   1      29.267  15.478   4.305  0.00  0.00     0.241 C 
HETATM   14  O   UNK N   1      29.262  14.530   3.531  0.00  0.00    -0.271 OA
HETATM   15  H   UNK N   1      28.093  17.012   4.931  0.00  0.00     0.163 HD
BRANCH  13  16
HETATM   16  C   UNK N   1      30.445  15.668   5.204  0.00  0.00     0.176 C 
BRANCH  16  17
HETATM   17  N   UNK N   1      30.801  14.482   5.935  0.00  0.00    -0.346 N 
HETATM   18  C   UNK N   1      31.969  13.817   5.780  0.00  0.00     0.240 C 
HETATM   19  O   UNK N   1      32.205  12.874   6.516  0.00  0.00    -0.271 OA
HETATM   20  H   UNK N   1      30.155  14.132   6.590  0.00  0.00     0.163 HD
BRANCH  18  21
HETATM   21  C   UNK N   1      33.004  14.192   4.742  0.00  0.00     0.167 C 
BRANCH  21  22
HETATM   22  C   UNK N   1      33.959  15.358   5.054  0.00  0.00     0.036 C 
BRANCH  22  23
HETATM   23  C   UNK N   1      35.339  14.999   5.606  0.00  0.00     0.023 C 
BRANCH  23  24
HETATM   24  C   UNK N   1      35.317  14.750   7.096  0.00  0.00     0.138 C 
BRANCH  24  25
HETATM   25  N   UNK N   1      34.807  15.927   7.750  0.00  0.00    -0.227 N 
HETATM   26  C   UNK N   1      34.938  16.124   9.146  0.00  0.00     0.665 C 
HETATM   27  N   UNK N   1      35.514  15.242   9.878  0.00  0.00    -0.235 N 
HETATM   28  N   UNK N   1      34.363  17.265   9.743  0.00  0.00    -0.235 N 
HETATM   29  H   UNK N   1      36.215  15.503  10.518  0.00  0.00     0.174 HD
ATOM     30  HN  UNK N   1      35.242  14.262   9.796  1.00  0.00     0.174 HD
HETATM   31  H   UNK N   1      33.545  17.807   9.668  0.00  0.00     0.174 HD
HETATM   32  H   UNK N   1      34.956  17.626  10.442  0.00  0.00     0.174 HD
HETATM   33  H   UNK N   1      34.356  16.614   7.211  0.00  0.00     0.177 HD
ENDBRANCH  24  25
ENDBRANCH  23  24
ENDBRANCH  22  23
ENDBRANCH  21  22
BRANCH  21  34
HETATM   34  N   UNK N   1      32.356  14.425   3.465  0.00  0.00    -0.418 N 
HETATM   35  H   UNK N   1      31.505  13.955   3.156  0.00  0.00     0.150 HD
HETATM   36  H   UNK N   1      32.779  15.105   2.834  0.00  0.00     0.150 HD
ENDBRANCH  21  34
ENDBRANCH  18  21
ENDBRANCH  16  17
BRANCH  16  37
HETATM   37  C   UNK N   1      30.181  16.807   6.194  0.00  0.00     0.036 C 
BRANCH  37  38
HETATM   38  C   UNK N   1      31.375  17.093   7.103  0.00  0.00     0.023 C 
BRANCH  38  39
HETATM   39  C   UNK N   1      30.916  17.856   8.320  0.00  0.00     0.138 C 
BRANCH  39  40
HETATM   40  N   UNK N   1      30.856  16.987   9.466  0.00  0.00    -0.227 N 
HETATM   41  C   UNK N   1      29.638  16.774  10.162  0.00  0.00     0.665 C 
HETATM   42  N   UNK N   1      28.554  17.331   9.764  0.00  0.00    -0.235 N 
HETATM   43  N   UNK N   1      29.639  16.030  11.359  0.00  0.00    -0.235 N 
HETATM   44  H   UNK N   1      27.602  17.426   9.999  0.00  0.00     0.174 HD
ATOM     45  HN  UNK N   1      28.742  17.859   8.912  1.00  0.00     0.174 HD
HETATM   46  H   UNK N   1      30.064  15.143  11.403  0.00  0.00     0.174 HD
HETATM   47  H   UNK N   1      29.208  16.402  12.162  0.00  0.00     0.174 HD
HETATM   48  H   UNK N   1      31.675  16.533   9.772  0.00  0.00     0.177 HD
ENDBRANCH  39  40
ENDBRANCH  38  39
ENDBRANCH  37  38
ENDBRANCH  16  37
ENDBRANCH  13  16
ENDBRANCH  11  12
BRANCH  11  49
HETATM   49  C   UNK N   1      26.230  15.468   6.159  0.00  0.00     0.036 C 
BRANCH  49  50
HETATM   50  C   UNK N   1      25.473  14.246   6.670  0.00  0.00     0.023 C 
BRANCH  50  51
HETATM   51  C   UNK N   1      25.467  14.096   8.188  0.00  0.00     0.138 C 
BRANCH  51  52
HETATM   52  N   UNK N   1      24.365  13.290   8.666  0.00  0.00    -0.227 N 
HETATM   53  C   UNK N   1      24.282  12.779   9.988  0.00  0.00     0.665 C 
HETATM   54  N   UNK N   1      25.239  12.955  10.824  0.00  0.00    -0.235 N 
HETATM   55  N   UNK N   1      23.107  12.115  10.402  0.00  0.00    -0.235 N 
HETATM   56  H   UNK N   1      25.225  13.040  11.804  0.00  0.00     0.174 HD
ATOM     57  HN  UNK N   1      26.165  13.018  10.403  1.00  0.00     0.174 HD
HETATM   58  H   UNK N   1      22.806  11.277   9.982  0.00  0.00     0.174 HD
HETATM   59  H   UNK N   1      22.574  12.502  11.133  0.00  0.00     0.174 HD
HETATM   60  H   UNK N   1      23.633  13.086   8.042  0.00  0.00     0.177 HD
ENDBRANCH  51  52
ENDBRANCH  50  51
ENDBRANCH  49  50
ENDBRANCH  11  49
ENDBRANCH   8  11
ENDBRANCH   6   7
BRANCH   6  61
HETATM   61  C   UNK N   1      26.444  19.235   4.131  0.00  0.00     0.036 C 
BRANCH  61  62
HETATM   62  C   UNK N   1      27.254  19.639   5.359  0.00  0.00     0.023 C 
BRANCH  62  63
HETATM   63  C   UNK N   1      27.502  21.132   5.439  0.00  0.00     0.138 C 
BRANCH  63  64
HETATM   64  N   UNK N   1      26.641  21.652   6.456  0.00  0.00    -0.227 N 
HETATM   65  C   UNK N   1      26.476  21.010   7.708  0.00  0.00     0.665 C 
HETATM   66  N   UNK N   1      27.213  20.015   8.034  0.00  0.00    -0.235 N 
HETATM   67  N   UNK N   1      25.385  21.366   8.526  0.00  0.00    -0.235 N 
HETATM   68  H   UNK N   1      27.531  19.729   8.921  0.00  0.00     0.174 HD
ATOM     69  HN  UNK N   1      27.516  19.427   7.257  1.00  0.00     0.174 HD
HETATM   70  H   UNK N   1      24.754  22.117   8.454  0.00  0.00     0.174 HD
HETATM   71  H   UNK N   1      25.229  20.766   9.290  0.00  0.00     0.174 HD
HETATM   72  H   UNK N   1      26.146  22.485   6.280  0.00  0.00     0.177 HD
ENDBRANCH  63  64
ENDBRANCH  62  63
ENDBRANCH  61  62
ENDBRANCH   6  61
ENDBRANCH   3   6
ENDBRANCH   1   2
BRANCH   1  73
HETATM   73  C   UNK N   1      21.095  17.241   4.222  0.00  0.00     0.036 C 
BRANCH  73  74
HETATM   74  C   UNK N   1      20.229  18.110   3.358  0.00  0.00     0.023 C 
BRANCH  74  75
HETATM   75  C   UNK N   1      20.635  17.948   1.907  0.00  0.00     0.138 C 
BRANCH  75  76
HETATM   76  N   UNK N   1      20.190  19.089   1.148  0.00  0.00    -0.227 N 
HETATM   77  C   UNK N   1      20.826  20.356   1.228  0.00  0.00     0.665 C 
HETATM   78  N   UNK N   1      21.826  20.543   2.011  0.00  0.00    -0.235 N 
HETATM   79  N   UNK N   1      20.328  21.434   0.467  0.00  0.00    -0.235 N 
HETATM   80  H   UNK N   1      22.522  21.159   2.334  0.00  0.00     0.174 HD
ATOM     81  HN  UNK N   1      21.958  19.669   2.521  1.00  0.00     0.174 HD
HETATM   82  H   UNK N   1      19.381  21.696   0.522  0.00  0.00     0.174 HD
HETATM   83  H   UNK N   1      20.936  21.929  -0.129  0.00  0.00     0.174 HD
HETATM   84  H   UNK N   1      19.415  18.986   0.550  0.00  0.00     0.177 HD
ENDBRANCH  75  76
ENDBRANCH  74  75
ENDBRANCH  73  74
ENDBRANCH   1  73
BRANCH   1  85
HETATM   85  C   UNK N   1      21.344  17.746   6.546  0.00  0.00     0.241 C 
HETATM   86  O   UNK N   1      20.669  18.553   7.172  0.00  0.00    -0.271 OA
HETATM   87  N   UNK N   1      21.440  16.463   6.939  0.00  0.00    -0.346 N 
HETATM   88  H   UNK N   1      22.239  15.935   6.707  0.00  0.00     0.163 HD
BRANCH  87  89
HETATM   89  C   UNK N   1      20.394  15.872   7.689  0.00  0.00     0.176 C 
BRANCH  89  90
HETATM   90  C   UNK N   1      20.191  16.627   8.992  0.00  0.00     0.036 C 
BRANCH  90  91
HETATM   91  C   UNK N   1      18.772  16.456   9.458  0.00  0.00     0.023 C 
BRANCH  91  92
HETATM   92  C   UNK N   1      17.917  17.631   9.012  0.00  0.00     0.138 C 
BRANCH  92  93
HETATM   93  N   UNK N   1      17.165  18.083  10.147  0.00  0.00    -0.227 N 
HETATM   94  C   UNK N   1      17.711  19.033  11.042  0.00  0.00     0.665 C 
HETATM   95  N   UNK N   1      18.721  19.745  10.703  0.00  0.00    -0.235 N 
HETATM   96  N   UNK N   1      17.267  19.053  12.375  0.00  0.00    -0.235 N 
HETATM   97  H   UNK N   1      18.836  20.647  11.078  0.00  0.00     0.174 HD
ATOM     98  HN  UNK N   1      19.406  19.375  10.043  1.00  0.00     0.174 HD
HETATM   99  H   UNK N   1      16.919  18.331  12.946  0.00  0.00     0.174 HD
HETATM  100  H   UNK N   1      17.312  19.935  12.810  0.00  0.00     0.174 HD
HETATM  101  H   UNK N   1      16.261  17.729  10.305  0.00  0.00     0.177 HD
ENDBRANCH  92  93
ENDBRANCH  91  92
ENDBRANCH  90  91
ENDBRANCH  89  90
BRANCH  89 102
HETATM  102  C   UNK N   1      20.898  14.510   7.978  0.00  0.00     0.241 C 
HETATM  103  O   UNK N   1      21.281  14.235   9.106  0.00  0.00    -0.271 OA
HETATM  104  N   UNK N   1      20.680  13.531   7.072  0.00  0.00    -0.346 N 
HETATM  105  H   UNK N   1      19.761  13.210   6.930  0.00  0.00     0.163 HD
BRANCH 104 106
HETATM  106  C   UNK N   1      21.750  12.942   6.308  0.00  0.00     0.176 C 
BRANCH 106 107
HETATM  107  C   UNK N   1      21.606  13.251   4.812  0.00  0.00     0.036 C 
BRANCH 107 108
HETATM  108  C   UNK N   1      22.869  13.723   4.093  0.00  0.00     0.023 C 
BRANCH 108 109
HETATM  109  C   UNK N   1      22.603  14.307   2.717  0.00  0.00     0.138 C 
BRANCH 109 110
HETATM  110  N   UNK N   1      22.644  13.285   1.704  0.00  0.00    -0.227 N 
HETATM  111  C   UNK N   1      23.473  13.421   0.561  0.00  0.00     0.665 C 
HETATM  112  N   UNK N   1      24.225  14.451   0.417  0.00  0.00    -0.235 N 
HETATM  113  N   UNK N   1      23.489  12.404  -0.416  0.00  0.00    -0.235 N 
HETATM  114  H   UNK N   1      24.935  15.032   0.058  0.00  0.00     0.174 HD
ATOM    115  HN  UNK N   1      23.839  15.061   1.138  1.00  0.00     0.174 HD
HETATM  116  H   UNK N   1      23.680  11.455  -0.235  0.00  0.00     0.174 HD
HETATM  117  H   UNK N   1      23.294  12.662  -1.346  0.00  0.00     0.174 HD
HETATM  118  H   UNK N   1      22.087  12.479   1.805  0.00  0.00     0.177 HD
ENDBRANCH 109 110
ENDBRANCH 108 109
ENDBRANCH 107 108
ENDBRANCH 106 107
BRANCH 106 119
HETATM  119  C   UNK N   1      21.985  11.491   6.631  0.00  0.00     0.241 C 
HETATM  120  O   UNK N   1      22.245  11.165   7.779  0.00  0.00    -0.271 OA
HETATM  121  N   UNK N   1      21.969  10.576   5.619  0.00  0.00    -0.346 N 
HETATM  122  H   UNK N   1      21.475  10.820   4.804  0.00  0.00     0.163 HD
BRANCH 121 123
HETATM  123  C   UNK N   1      22.611   9.284   5.636  0.00  0.00     0.176 C 
BRANCH 123 124
HETATM  124  C   UNK N   1      24.127   9.307   5.801  0.00  0.00     0.036 C 
BRANCH 124 125
HETATM  125  C   UNK N   1      24.900  10.460   5.185  0.00  0.00     0.023 C 
BRANCH 125 126
HETATM  126  C   UNK N   1      26.097   9.874   4.429  0.00  0.00     0.138 C 
BRANCH 126 127
HETATM  127  N   UNK N   1      26.381  10.667   3.251  0.00  0.00    -0.227 N 
HETATM  128  C   UNK N   1      27.327  11.721   3.228  0.00  0.00     0.665 C 
HETATM  129  N   UNK N   1      28.116  11.913   4.219  0.00  0.00    -0.235 N 
HETATM  130  N   UNK N   1      27.452  12.515   2.069  0.00  0.00    -0.235 N 
HETATM  131  H   UNK N   1      29.089  11.797   4.119  0.00  0.00     0.174 HD
ATOM    132  HN  UNK N   1      27.732  12.189   5.121  1.00  0.00     0.174 HD
HETATM  133  H   UNK N   1      26.959  13.071   1.424  0.00  0.00     0.174 HD
HETATM  134  H   UNK N   1      28.400  12.512   1.803  0.00  0.00     0.174 HD
HETATM  135  H   UNK N   1      25.891  10.463   2.423  0.00  0.00     0.177 HD
ENDBRANCH 126 127
ENDBRANCH 125 126
ENDBRANCH 124 125
ENDBRANCH 123 124
BRANCH 123 136
HETATM  136  C   UNK N   1      22.348   8.708   4.292  0.00  0.00     0.241 C 
HETATM  137  O   UNK N   1      22.324   7.498   4.131  0.00  0.00    -0.271 OA
HETATM  138  N   UNK N   1      22.126   9.574   3.265  0.00  0.00    -0.345 N 
HETATM  139  H   UNK N   1      22.045  10.525   3.506  0.00  0.00     0.163 HD
BRANCH 138 140
HETATM  140  C   UNK N   1      21.997   9.257   1.866  0.00  0.00     0.182 C 
BRANCH 140 141
HETATM  141  C   UNK N   1      20.988  10.198   1.211  0.00  0.00     0.038 C 
BRANCH 141 142
HETATM  142  C   UNK N   1      19.671  10.305   1.983  0.00  0.00     0.023 C 
BRANCH 142 143
HETATM  143  C   UNK N   1      19.371  11.737   2.397  0.00  0.00     0.138 C 
BRANCH 143 144
HETATM  144  N   UNK N   1      18.953  12.513   1.255  0.00  0.00    -0.227 N 
HETATM  145  C   UNK N   1      18.869  13.929   1.291  0.00  0.00     0.665 C 
HETATM  146  N   UNK N   1      18.449  14.563   0.263  0.00  0.00    -0.235 N 
HETATM  147  N   UNK N   1      19.180  14.644   2.472  0.00  0.00    -0.235 N 
HETATM  148  H   UNK N   1      17.861  14.164  -0.418  0.00  0.00     0.174 HD
ATOM    149  HN  UNK N   1      18.739  15.534   0.142  1.00  0.00     0.174 HD
HETATM  150  H   UNK N   1      19.391  15.604   2.431  0.00  0.00     0.174 HD
HETATM  151  H   UNK N   1      19.186  14.178   3.339  0.00  0.00     0.174 HD
HETATM  152  H   UNK N   1      18.718  12.044   0.421  0.00  0.00     0.177 HD
ENDBRANCH 143 144
ENDBRANCH 142 143
ENDBRANCH 141 142
ENDBRANCH 140 141
BRANCH 140 153
HETATM  153  C   UNK N   1      23.303   9.051   1.159  0.00  0.00     0.163 C 
HETATM  154  O   UNK N   1      23.510   9.566   0.072  0.00  0.00    -0.648 OA
BRANCH 153 155
HETATM  155  O   UNK N   1      24.246   8.268   1.716  0.00  0.00    -0.775 OA
HETATM  156  H   UNK N   1      24.397   7.403   1.389  0.00  0.00     0.167 HD
ENDBRANCH 153 155
ENDBRANCH 140 153
ENDBRANCH 138 140
ENDBRANCH 123 136
ENDBRANCH 121 123
ENDBRANCH 106 119
ENDBRANCH 104 106
ENDBRANCH  89 102
ENDBRANCH  87  89
ENDBRANCH   1  85
TORSDOF 55
ENDMDL
MODEL 6
REMARK VINA RESULT:      -7.4      4.811     10.671
REMARK WARNING: 32 MAX_TORS EXCEEDED!!!
REMARK  55 active torsions:
REMARK  status: ('A' for Active; 'I' for Inactive)
REMARK    1  A    between atoms: C_1  and  C_2 
REMARK    2  A    between atoms: C_1  and  C_104 
REMARK    3  A    between atoms: C_2  and  C_3 
REMARK    4  A    between atoms: C_3  and  C_4 
REMARK    5  A    between atoms: C_3  and  N_103 
REMARK       I    between atoms: C_4  and  N_6 
REMARK    6  A    between atoms: C_7  and  N_6 
REMARK    7  A    between atoms: C_7  and  C_8 
REMARK    8  A    between atoms: C_7  and  C_16 
REMARK    9  A    between atoms: C_8  and  C_9 
REMARK   10  A    between atoms: C_9  and  C_10 
REMARK   11  A    between atoms: C_10  and  N_11 
REMARK       I    between atoms: N_11  and  C_12 
REMARK       I    between atoms: C_12  and  N_15 
REMARK       I    between atoms: C_16  and  N_18 
REMARK   12  A    between atoms: C_19  and  N_18 
REMARK   13  A    between atoms: C_19  and  C_20 
REMARK   14  A    between atoms: C_19  and  C_28 
REMARK   15  A    between atoms: C_20  and  C_21 
REMARK   16  A    between atoms: C_21  and  C_22 
REMARK   17  A    between atoms: C_22  and  N_23 
REMARK       I    between atoms: N_23  and  C_24 
REMARK       I    between atoms: C_24  and  N_27 
REMARK       I    between atoms: C_28  and  N_30 
REMARK   18  A    between atoms: C_31  and  N_30 
REMARK   19  A    between atoms: C_31  and  C_32 
REMARK   20  A    between atoms: C_31  and  C_40 
REMARK   21  A    between atoms: C_32  and  C_33 
REMARK   22  A    between atoms: C_33  and  C_34 
REMARK   23  A    between atoms: C_34  and  N_35 
REMARK       I    between atoms: N_35  and  C_36 
REMARK       I    between atoms: C_36  and  N_39 
REMARK       I    between atoms: C_40  and  N_42 
REMARK   24  A    between atoms: C_43  and  N_42 
REMARK   25  A    between atoms: C_43  and  C_44 
REMARK   26  A    between atoms: C_43  and  C_52 
REMARK   27  A    between atoms: C_44  and  C_45 
REMARK   28  A    between atoms: C_45  and  C_46 
REMARK   29  A    between atoms: C_46  and  N_47 
REMARK       I    between atoms: N_47  and  C_48 
REMARK       I    between atoms: C_48  and  N_51 
REMARK       I    between atoms: C_52  and  N_54 
REMARK   30  A    between atoms: C_55  and  N_54 
REMARK   31  A    between atoms: C_55  and  C_56 
REMARK   32  A    between atoms: C_55  and  C_64 
REMARK   33  A    between atoms: C_56  and  C_57 
REMARK   34  A    between atoms: C_57  and  C_58 
REMARK   35  A    between atoms: C_58  and  N_59 
REMARK       I    between atoms: N_59  and  C_60 
REMARK       I    between atoms: C_60  and  N_63 
REMARK       I    between atoms: C_64  and  N_66 
REMARK   36  A    between atoms: C_67  and  N_66 
REMARK   37  A    between atoms: C_67  and  C_68 
REMARK   38  A    between atoms: C_67  and  C_76 
REMARK   39  A    between atoms: C_68  and  C_69 
REMARK   40  A    between atoms: C_69  and  C_70 
REMARK   41  A    between atoms: C_70  and  N_71 
REMARK       I    between atoms: N_71  and  C_72 
REMARK       I    between atoms: C_72  and  N_75 
REMARK       I    between atoms: C_76  and  N_78 
REMARK   42  A    between atoms: C_79  and  N_78 
REMARK   43  A    between atoms: C_79  and  C_80 
REMARK   44  A    between atoms: C_79  and  C_88 
REMARK   45  A    between atoms: C_80  and  C_81 
REMARK   46  A    between atoms: C_81  and  C_82 
REMARK   47  A    between atoms: C_82  and  N_83 
REMARK       I    between atoms: N_83  and  C_84 
REMARK       I    between atoms: C_84  and  N_87 
REMARK       I    between atoms: C_88  and  N_90 
REMARK   48  A    between atoms: C_91  and  N_90 
REMARK   49  A    between atoms: C_91  and  C_92 
REMARK   50  A    between atoms: C_91  and  C_100 
REMARK   51  A    between atoms: C_92  and  C_93 
REMARK   52  A    between atoms: C_93  and  C_94 
REMARK   53  A    between atoms: C_94  and  N_95 
REMARK       I    between atoms: N_95  and  C_96 
REMARK       I    between atoms: C_96  and  N_99 
REMARK   54  A    between atoms: C_100  and  O_102 
REMARK   55  A    between atoms: C_104  and  N_105 
REMARK       I    between atoms: N_105  and  C_106 
REMARK       I    between atoms: C_106  and  N_109 
ROOT
HETATM    1  C   UNK N   1      30.139  15.823   4.348  0.00  0.00     0.176 C 
ENDROOT
BRANCH   1   2
HETATM    2  N   UNK N   1      29.108  15.042   3.719  0.00  0.00    -0.346 N 
HETATM    3  C   UNK N   1      28.907  13.768   4.106  0.00  0.00     0.241 C 
HETATM    4  O   UNK N   1      29.636  13.257   4.939  0.00  0.00    -0.271 OA
HETATM    5  H   UNK N   1      28.553  15.438   3.008  0.00  0.00     0.163 HD
BRANCH   3   6
HETATM    6  C   UNK N   1      27.817  12.970   3.465  0.00  0.00     0.176 C 
BRANCH   6   7
HETATM    7  N   UNK N   1      26.607  13.317   4.156  0.00  0.00    -0.346 N 
HETATM    8  C   UNK N   1      25.861  12.415   4.832  0.00  0.00     0.241 C 
HETATM    9  O   UNK N   1      25.044  12.841   5.638  0.00  0.00    -0.271 OA
HETATM   10  H   UNK N   1      26.306  14.254   4.137  0.00  0.00     0.163 HD
BRANCH   8  11
HETATM   11  C   UNK N   1      25.898  10.898   4.599  0.00  0.00     0.176 C 
BRANCH  11  12
HETATM   12  N   UNK N   1      24.909  10.699   3.567  0.00  0.00    -0.346 N 
HETATM   13  C   UNK N   1      23.691  10.171   3.851  0.00  0.00     0.241 C 
HETATM   14  O   UNK N   1      23.184  10.334   4.953  0.00  0.00    -0.271 OA
HETATM   15  H   UNK N   1      25.123  10.950   2.640  0.00  0.00     0.163 HD
BRANCH  13  16
HETATM   16  C   UNK N   1      23.254   9.007   3.022  0.00  0.00     0.176 C 
BRANCH  16  17
HETATM   17  N   UNK N   1      22.059   9.264   2.265  0.00  0.00    -0.346 N 
HETATM   18  C   UNK N   1      22.052   9.679   0.978  0.00  0.00     0.240 C 
HETATM   19  O   UNK N   1      20.980   9.781   0.405  0.00  0.00    -0.271 OA
HETATM   20  H   UNK N   1      21.193   9.128   2.711  0.00  0.00     0.163 HD
BRANCH  18  21
HETATM   21  C   UNK N   1      23.310  10.017   0.209  0.00  0.00     0.167 C 
BRANCH  21  22
HETATM   22  C   UNK N   1      23.526  11.477  -0.229  0.00  0.00     0.036 C 
BRANCH  22  23
HETATM   23  C   UNK N   1      24.529  12.304   0.575  0.00  0.00     0.023 C 
BRANCH  23  24
HETATM   24  C   UNK N   1      23.863  13.401   1.373  0.00  0.00     0.138 C 
BRANCH  24  25
HETATM   25  N   UNK N   1      22.464  13.089   1.503  0.00  0.00    -0.227 N 
HETATM   26  C   UNK N   1      21.818  13.053   2.762  0.00  0.00     0.665 C 
HETATM   27  N   UNK N   1      22.474  13.293   3.838  0.00  0.00    -0.235 N 
HETATM   28  N   UNK N   1      20.461  12.677   2.837  0.00  0.00    -0.235 N 
HETATM   29  H   UNK N   1      22.130  13.932   4.504  0.00  0.00     0.174 HD
ATOM     30  HN  UNK N   1      23.359  12.815   4.007  1.00  0.00     0.174 HD
HETATM   31  H   UNK N   1      19.849  12.028   2.421  0.00  0.00     0.174 HD
HETATM   32  H   UNK N   1      19.985  13.227   3.501  0.00  0.00     0.174 HD
HETATM   33  H   UNK N   1      21.941  12.895   0.693  0.00  0.00     0.177 HD
ENDBRANCH  24  25
ENDBRANCH  23  24
ENDBRANCH  22  23
ENDBRANCH  21  22
BRANCH  21  34
HETATM   34  N   UNK N   1      23.431   9.143  -0.942  0.00  0.00    -0.418 N 
HETATM   35  H   UNK N   1      23.232   8.143  -0.930  0.00  0.00     0.150 HD
HETATM   36  H   UNK N   1      23.735   9.557  -1.823  0.00  0.00     0.150 HD
ENDBRANCH  21  34
ENDBRANCH  18  21
ENDBRANCH  16  17
BRANCH  16  37
HETATM   37  C   UNK N   1      23.033   7.776   3.907  0.00  0.00     0.036 C 
BRANCH  37  38
HETATM   38  C   UNK N   1      24.320   7.277   4.562  0.00  0.00     0.023 C 
BRANCH  38  39
HETATM   39  C   UNK N   1      23.984   6.464   5.788  0.00  0.00     0.138 C 
BRANCH  39  40
HETATM   40  N   UNK N   1      25.175   6.178   6.544  0.00  0.00    -0.227 N 
HETATM   41  C   UNK N   1      25.113   5.916   7.938  0.00  0.00     0.665 C 
HETATM   42  N   UNK N   1      23.986   5.902   8.549  0.00  0.00    -0.235 N 
HETATM   43  N   UNK N   1      26.306   5.777   8.675  0.00  0.00    -0.235 N 
HETATM   44  H   UNK N   1      23.594   5.793   9.446  0.00  0.00     0.174 HD
ATOM     45  HN  UNK N   1      23.237   6.056   7.874  1.00  0.00     0.174 HD
HETATM   46  H   UNK N   1      27.016   5.164   8.378  0.00  0.00     0.174 HD
HETATM   47  H   UNK N   1      26.430   6.300   9.500  0.00  0.00     0.174 HD
HETATM   48  H   UNK N   1      26.047   6.162   6.087  0.00  0.00     0.177 HD
ENDBRANCH  39  40
ENDBRANCH  38  39
ENDBRANCH  37  38
ENDBRANCH  16  37
ENDBRANCH  13  16
ENDBRANCH  11  12
BRANCH  11  49
HETATM   49  C   UNK N   1      27.236  10.252   4.187  0.00  0.00     0.036 C 
BRANCH  49  50
HETATM   50  C   UNK N   1      27.378   8.779   4.557  0.00  0.00     0.023 C 
BRANCH  50  51
HETATM   51  C   UNK N   1      28.791   8.223   4.408  0.00  0.00     0.138 C 
BRANCH  51  52
HETATM   52  N   UNK N   1      29.505   8.167   5.664  0.00  0.00    -0.227 N 
HETATM   53  C   UNK N   1      30.369   9.196   6.123  0.00  0.00     0.665 C 
HETATM   54  N   UNK N   1      30.616  10.222   5.393  0.00  0.00    -0.235 N 
HETATM   55  N   UNK N   1      30.918   9.114   7.420  0.00  0.00    -0.235 N 
HETATM   56  H   UNK N   1      30.830  11.149   5.644  0.00  0.00     0.174 HD
ATOM     57  HN  UNK N   1      30.587  10.047   4.389  1.00  0.00     0.174 HD
HETATM   58  H   UNK N   1      31.527   8.386   7.683  0.00  0.00     0.174 HD
HETATM   59  H   UNK N   1      30.686   9.805   8.081  0.00  0.00     0.174 HD
HETATM   60  H   UNK N   1      29.385   7.373   6.233  0.00  0.00     0.177 HD
ENDBRANCH  51  52
ENDBRANCH  50  51
ENDBRANCH  49  50
ENDBRANCH  11  49
ENDBRANCH   8  11
ENDBRANCH   6   7
BRANCH   6  61
HETATM   61  C   UNK N   1      27.726  13.283   1.970  0.00  0.00     0.036 C 
BRANCH  61  62
HETATM   62  C   UNK N   1      28.943  12.810   1.181  0.00  0.00     0.023 C 
BRANCH  62  63
HETATM   63  C   UNK N   1      28.787  11.403   0.641  0.00  0.00     0.138 C 
BRANCH  63  64
HETATM   64  N   UNK N   1      30.097  10.922   0.326  0.00  0.00    -0.227 N 
HETATM   65  C   UNK N   1      30.643  11.012  -0.977  0.00  0.00     0.665 C 
HETATM   66  N   UNK N   1      30.038  11.668  -1.896  0.00  0.00    -0.235 N 
HETATM   67  N   UNK N   1      31.773  10.237  -1.306  0.00  0.00    -0.235 N 
HETATM   68  H   UNK N   1      30.405  12.170  -2.659  0.00  0.00     0.174 HD
ATOM     69  HN  UNK N   1      29.020  11.671  -1.826  1.00  0.00     0.174 HD
HETATM   70  H   UNK N   1      32.378   9.717  -0.730  0.00  0.00     0.174 HD
HETATM   71  H   UNK N   1      31.992  10.212  -2.265  0.00  0.00     0.174 HD
HETATM   72  H   UNK N   1      30.639  10.515   1.041  0.00  0.00     0.177 HD
ENDBRANCH  63  64
ENDBRANCH  62  63
ENDBRANCH  61  62
ENDBRANCH   6  61
ENDBRANCH   3   6
ENDBRANCH   1   2
BRANCH   1  73
HETATM   73  C   UNK N   1      30.996  16.468   3.273  0.00  0.00     0.036 C 
BRANCH  73  74
HETATM   74  C   UNK N   1      32.285  16.964   3.859  0.00  0.00     0.023 C 
BRANCH  74  75
HETATM   75  C   UNK N   1      33.298  15.838   3.884  0.00  0.00     0.138 C 
BRANCH  75  76
HETATM   76  N   UNK N   1      33.576  15.405   2.538  0.00  0.00    -0.227 N 
HETATM   77  C   UNK N   1      34.395  14.281   2.250  0.00  0.00     0.665 C 
HETATM   78  N   UNK N   1      34.948  13.611   3.193  0.00  0.00    -0.235 N 
HETATM   79  N   UNK N   1      34.636  13.923   0.907  0.00  0.00    -0.235 N 
HETATM   80  H   UNK N   1      35.500  12.835   3.446  0.00  0.00     0.174 HD
ATOM     81  HN  UNK N   1      34.714  14.091   4.062  1.00  0.00     0.174 HD
HETATM   82  H   UNK N   1      34.986  14.581   0.264  0.00  0.00     0.174 HD
HETATM   83  H   UNK N   1      34.450  13.003   0.610  0.00  0.00     0.174 HD
HETATM   84  H   UNK N   1      33.180  15.907   1.789  0.00  0.00     0.177 HD
ENDBRANCH  75  76
ENDBRANCH  74  75
ENDBRANCH  73  74
ENDBRANCH   1  73
BRANCH   1  85
HETATM   85  C   UNK N   1      29.497  16.932   5.076  0.00  0.00     0.241 C 
HETATM   86  O   UNK N   1      29.227  17.979   4.499  0.00  0.00    -0.271 OA
HETATM   87  N   UNK N   1      29.025  16.674   6.309  0.00  0.00    -0.346 N 
HETATM   88  H   UNK N   1      29.521  16.071   6.910  0.00  0.00     0.163 HD
BRANCH  87  89
HETATM   89  C   UNK N   1      27.817  17.271   6.744  0.00  0.00     0.176 C 
BRANCH  89  90
HETATM   90  C   UNK N   1      27.820  17.421   8.256  0.00  0.00     0.036 C 
BRANCH  90  91
HETATM   91  C   UNK N   1      28.686  18.587   8.645  0.00  0.00     0.023 C 
BRANCH  91  92
HETATM   92  C   UNK N   1      29.584  18.219   9.815  0.00  0.00     0.138 C 
BRANCH  92  93
HETATM   93  N   UNK N   1      30.198  16.957   9.519  0.00  0.00    -0.227 N 
HETATM   94  C   UNK N   1      31.440  16.899   8.845  0.00  0.00     0.665 C 
HETATM   95  N   UNK N   1      32.194  17.933   8.773  0.00  0.00    -0.235 N 
HETATM   96  N   UNK N   1      31.755  15.760   8.083  0.00  0.00    -0.235 N 
HETATM   97  H   UNK N   1      33.171  17.829   8.720  0.00  0.00     0.174 HD
ATOM     98  HN  UNK N   1      31.780  18.866   8.772  1.00  0.00     0.174 HD
HETATM   99  H   UNK N   1      31.173  15.127   7.605  0.00  0.00     0.174 HD
HETATM  100  H   UNK N   1      32.718  15.564   8.018  0.00  0.00     0.174 HD
HETATM  101  H   UNK N   1      29.750  16.123   9.787  0.00  0.00     0.177 HD
ENDBRANCH  92  93
ENDBRANCH  91  92
ENDBRANCH  90  91
ENDBRANCH  89  90
BRANCH  89 102
HETATM  102  C   UNK N   1      26.782  16.291   6.345  0.00  0.00     0.241 C 
HETATM  103  O   UNK N   1      26.904  15.118   6.667  0.00  0.00    -0.271 OA
HETATM  104  N   UNK N   1      25.602  16.749   5.870  0.00  0.00    -0.346 N 
HETATM  105  H   UNK N   1      24.990  17.215   6.483  0.00  0.00     0.163 HD
BRANCH 104 106
HETATM  106  C   UNK N   1      25.212  16.578   4.494  0.00  0.00     0.176 C 
BRANCH 106 107
HETATM  107  C   UNK N   1      25.988  17.524   3.569  0.00  0.00     0.036 C 
BRANCH 107 108
HETATM  108  C   UNK N   1      25.481  18.965   3.491  0.00  0.00     0.023 C 
BRANCH 108 109
HETATM  109  C   UNK N   1      26.311  19.945   4.299  0.00  0.00     0.138 C 
BRANCH 109 110
HETATM  110  N   UNK N   1      25.824  20.049   5.649  0.00  0.00    -0.227 N 
HETATM  111  C   UNK N   1      26.485  20.861   6.606  0.00  0.00     0.665 C 
HETATM  112  N   UNK N   1      27.522  21.542   6.280  0.00  0.00    -0.235 N 
HETATM  113  N   UNK N   1      25.984  20.939   7.922  0.00  0.00    -0.235 N 
HETATM  114  H   UNK N   1      28.243  22.210   6.341  0.00  0.00     0.174 HD
ATOM    115  HN  UNK N   1      27.741  21.120   5.377  1.00  0.00     0.174 HD
HETATM  116  H   UNK N   1      25.062  21.193   8.158  0.00  0.00     0.174 HD
HETATM  117  H   UNK N   1      26.601  20.723   8.658  0.00  0.00     0.174 HD
HETATM  118  H   UNK N   1      25.019  19.547   5.914  0.00  0.00     0.177 HD
ENDBRANCH 109 110
ENDBRANCH 108 109
ENDBRANCH 107 108
ENDBRANCH 106 107
BRANCH 106 119
HETATM  119  C   UNK N   1      23.721  16.584   4.292  0.00  0.00     0.241 C 
HETATM  120  O   UNK N   1      23.256  16.206   3.227  0.00  0.00    -0.271 OA
HETATM  121  N   UNK N   1      22.920  17.076   5.280  0.00  0.00    -0.346 N 
HETATM  122  H   UNK N   1      23.287  17.081   6.193  0.00  0.00     0.163 HD
BRANCH 121 123
HETATM  123  C   UNK N   1      21.583  17.592   5.109  0.00  0.00     0.176 C 
BRANCH 123 124
HETATM  124  C   UNK N   1      21.494  19.053   4.682  0.00  0.00     0.036 C 
BRANCH 124 125
HETATM  125  C   UNK N   1      20.455  19.438   3.644  0.00  0.00     0.023 C 
BRANCH 125 126
HETATM  126  C   UNK N   1      21.038  19.138   2.260  0.00  0.00     0.138 C 
BRANCH 126 127
HETATM  127  N   UNK N   1      20.024  18.554   1.406  0.00  0.00    -0.227 N 
HETATM  128  C   UNK N   1      19.955  17.171   1.108  0.00  0.00     0.665 C 
HETATM  129  N   UNK N   1      20.694  16.331   1.731  0.00  0.00    -0.235 N 
HETATM  130  N   UNK N   1      19.004  16.710   0.173  0.00  0.00    -0.235 N 
HETATM  131  H   UNK N   1      20.297  15.646   2.317  0.00  0.00     0.174 HD
ATOM    132  HN  UNK N   1      21.706  16.372   1.618  1.00  0.00     0.174 HD
HETATM  133  H   UNK N   1      18.661  16.827  -0.742  0.00  0.00     0.174 HD
HETATM  134  H   UNK N   1      18.482  15.993   0.602  0.00  0.00     0.174 HD
HETATM  135  H   UNK N   1      19.348  19.149   1.011  0.00  0.00     0.177 HD
ENDBRANCH 126 127
ENDBRANCH 125 126
ENDBRANCH 124 125
ENDBRANCH 123 124
BRANCH 123 136
HETATM  136  C   UNK N   1      20.967  17.516   6.459  0.00  0.00     0.241 C 
HETATM  137  O   UNK N   1      21.053  18.455   7.233  0.00  0.00    -0.271 OA
HETATM  138  N   UNK N   1      20.301  16.374   6.787  0.00  0.00    -0.345 N 
HETATM  139  H   UNK N   1      20.178  15.718   6.063  0.00  0.00     0.163 HD
BRANCH 138 140
HETATM  140  C   UNK N   1      19.756  16.017   8.071  0.00  0.00     0.182 C 
BRANCH 140 141
HETATM  141  C   UNK N   1      20.888  15.774   9.067  0.00  0.00     0.038 C 
BRANCH 141 142
HETATM  142  C   UNK N   1      20.971  14.323   9.546  0.00  0.00     0.023 C 
BRANCH 142 143
HETATM  143  C   UNK N   1      22.194  13.611   8.989  0.00  0.00     0.138 C 
BRANCH 143 144
HETATM  144  N   UNK N   1      23.121  13.300  10.050  0.00  0.00    -0.227 N 
HETATM  145  C   UNK N   1      24.517  13.186   9.826  0.00  0.00     0.665 C 
HETATM  146  N   UNK N   1      25.287  12.863  10.795  0.00  0.00    -0.235 N 
HETATM  147  N   UNK N   1      25.060  13.360   8.531  0.00  0.00    -0.235 N 
HETATM  148  H   UNK N   1      24.985  12.356  11.583  0.00  0.00     0.174 HD
ATOM    149  HN  UNK N   1      26.266  13.146  10.749  1.00  0.00     0.174 HD
HETATM  150  H   UNK N   1      26.018  13.556   8.417  0.00  0.00     0.174 HD
HETATM  151  H   UNK N   1      24.478  13.285   7.742  0.00  0.00     0.174 HD
HETATM  152  H   UNK N   1      22.772  13.161  10.961  0.00  0.00     0.177 HD
ENDBRANCH 143 144
ENDBRANCH 142 143
ENDBRANCH 141 142
ENDBRANCH 140 141
BRANCH 140 153
HETATM  153  C   UNK N   1      18.620  16.887   8.520  0.00  0.00     0.163 C 
HETATM  154  O   UNK N   1      18.798  17.759   9.354  0.00  0.00    -0.648 OA
BRANCH 153 155
HETATM  155  O   UNK N   1      17.387  16.685   8.018  0.00  0.00    -0.775 OA
HETATM  156  H   UNK N   1      16.861  17.412   7.750  0.00  0.00     0.167 HD
ENDBRANCH 153 155
ENDBRANCH 140 153
ENDBRANCH 138 140
ENDBRANCH 123 136
ENDBRANCH 121 123
ENDBRANCH 106 119
ENDBRANCH 104 106
ENDBRANCH  89 102
ENDBRANCH  87  89
ENDBRANCH   1  85
TORSDOF 55
ENDMDL
MODEL 7
REMARK VINA RESULT:      -7.4      2.918      6.801
REMARK WARNING: 32 MAX_TORS EXCEEDED!!!
REMARK  55 active torsions:
REMARK  status: ('A' for Active; 'I' for Inactive)
REMARK    1  A    between atoms: C_1  and  C_2 
REMARK    2  A    between atoms: C_1  and  C_104 
REMARK    3  A    between atoms: C_2  and  C_3 
REMARK    4  A    between atoms: C_3  and  C_4 
REMARK    5  A    between atoms: C_3  and  N_103 
REMARK       I    between atoms: C_4  and  N_6 
REMARK    6  A    between atoms: C_7  and  N_6 
REMARK    7  A    between atoms: C_7  and  C_8 
REMARK    8  A    between atoms: C_7  and  C_16 
REMARK    9  A    between atoms: C_8  and  C_9 
REMARK   10  A    between atoms: C_9  and  C_10 
REMARK   11  A    between atoms: C_10  and  N_11 
REMARK       I    between atoms: N_11  and  C_12 
REMARK       I    between atoms: C_12  and  N_15 
REMARK       I    between atoms: C_16  and  N_18 
REMARK   12  A    between atoms: C_19  and  N_18 
REMARK   13  A    between atoms: C_19  and  C_20 
REMARK   14  A    between atoms: C_19  and  C_28 
REMARK   15  A    between atoms: C_20  and  C_21 
REMARK   16  A    between atoms: C_21  and  C_22 
REMARK   17  A    between atoms: C_22  and  N_23 
REMARK       I    between atoms: N_23  and  C_24 
REMARK       I    between atoms: C_24  and  N_27 
REMARK       I    between atoms: C_28  and  N_30 
REMARK   18  A    between atoms: C_31  and  N_30 
REMARK   19  A    between atoms: C_31  and  C_32 
REMARK   20  A    between atoms: C_31  and  C_40 
REMARK   21  A    between atoms: C_32  and  C_33 
REMARK   22  A    between atoms: C_33  and  C_34 
REMARK   23  A    between atoms: C_34  and  N_35 
REMARK       I    between atoms: N_35  and  C_36 
REMARK       I    between atoms: C_36  and  N_39 
REMARK       I    between atoms: C_40  and  N_42 
REMARK   24  A    between atoms: C_43  and  N_42 
REMARK   25  A    between atoms: C_43  and  C_44 
REMARK   26  A    between atoms: C_43  and  C_52 
REMARK   27  A    between atoms: C_44  and  C_45 
REMARK   28  A    between atoms: C_45  and  C_46 
REMARK   29  A    between atoms: C_46  and  N_47 
REMARK       I    between atoms: N_47  and  C_48 
REMARK       I    between atoms: C_48  and  N_51 
REMARK       I    between atoms: C_52  and  N_54 
REMARK   30  A    between atoms: C_55  and  N_54 
REMARK   31  A    between atoms: C_55  and  C_56 
REMARK   32  A    between atoms: C_55  and  C_64 
REMARK   33  A    between atoms: C_56  and  C_57 
REMARK   34  A    between atoms: C_57  and  C_58 
REMARK   35  A    between atoms: C_58  and  N_59 
REMARK       I    between atoms: N_59  and  C_60 
REMARK       I    between atoms: C_60  and  N_63 
REMARK       I    between atoms: C_64  and  N_66 
REMARK   36  A    between atoms: C_67  and  N_66 
REMARK   37  A    between atoms: C_67  and  C_68 
REMARK   38  A    between atoms: C_67  and  C_76 
REMARK   39  A    between atoms: C_68  and  C_69 
REMARK   40  A    between atoms: C_69  and  C_70 
REMARK   41  A    between atoms: C_70  and  N_71 
REMARK       I    between atoms: N_71  and  C_72 
REMARK       I    between atoms: C_72  and  N_75 
REMARK       I    between atoms: C_76  and  N_78 
REMARK   42  A    between atoms: C_79  and  N_78 
REMARK   43  A    between atoms: C_79  and  C_80 
REMARK   44  A    between atoms: C_79  and  C_88 
REMARK   45  A    between atoms: C_80  and  C_81 
REMARK   46  A    between atoms: C_81  and  C_82 
REMARK   47  A    between atoms: C_82  and  N_83 
REMARK       I    between atoms: N_83  and  C_84 
REMARK       I    between atoms: C_84  and  N_87 
REMARK       I    between atoms: C_88  and  N_90 
REMARK   48  A    between atoms: C_91  and  N_90 
REMARK   49  A    between atoms: C_91  and  C_92 
REMARK   50  A    between atoms: C_91  and  C_100 
REMARK   51  A    between atoms: C_92  and  C_93 
REMARK   52  A    between atoms: C_93  and  C_94 
REMARK   53  A    between atoms: C_94  and  N_95 
REMARK       I    between atoms: N_95  and  C_96 
REMARK       I    between atoms: C_96  and  N_99 
REMARK   54  A    between atoms: C_100  and  O_102 
REMARK   55  A    between atoms: C_104  and  N_105 
REMARK       I    between atoms: N_105  and  C_106 
REMARK       I    between atoms: C_106  and  N_109 
ROOT
HETATM    1  C   UNK N   1      28.570  12.833   2.724  0.00  0.00     0.176 C 
ENDROOT
BRANCH   1   2
HETATM    2  N   UNK N   1      28.939  13.629   3.863  0.00  0.00    -0.346 N 
HETATM    3  C   UNK N   1      30.054  14.384   3.817  0.00  0.00     0.241 C 
HETATM    4  O   UNK N   1      30.783  14.342   2.840  0.00  0.00    -0.271 OA
HETATM    5  H   UNK N   1      28.379  13.623   4.674  0.00  0.00     0.163 HD
BRANCH   3   6
HETATM    6  C   UNK N   1      30.418  15.228   4.995  0.00  0.00     0.176 C 
BRANCH   6   7
HETATM    7  N   UNK N   1      31.030  16.414   4.465  0.00  0.00    -0.346 N 
HETATM    8  C   UNK N   1      32.289  16.795   4.776  0.00  0.00     0.241 C 
HETATM    9  O   UNK N   1      32.831  17.619   4.050  0.00  0.00    -0.271 OA
HETATM   10  H   UNK N   1      30.510  16.976   3.846  0.00  0.00     0.163 HD
BRANCH   8  11
HETATM   11  C   UNK N   1      33.058  16.339   6.024  0.00  0.00     0.176 C 
BRANCH  11  12
HETATM   12  N   UNK N   1      33.634  15.081   5.614  0.00  0.00    -0.346 N 
HETATM   13  C   UNK N   1      33.842  14.078   6.505  0.00  0.00     0.241 C 
HETATM   14  O   UNK N   1      33.121  13.959   7.487  0.00  0.00    -0.271 OA
HETATM   15  H   UNK N   1      33.881  14.948   4.671  0.00  0.00     0.163 HD
BRANCH  13  16
HETATM   16  C   UNK N   1      35.214  13.486   6.542  0.00  0.00     0.176 C 
BRANCH  16  17
HETATM   17  N   UNK N   1      36.058  14.067   7.550  0.00  0.00    -0.346 N 
HETATM   18  C   UNK N   1      36.738  13.350   8.475  0.00  0.00     0.240 C 
HETATM   19  O   UNK N   1      37.495  13.940   9.227  0.00  0.00    -0.271 OA
HETATM   20  H   UNK N   1      36.148  15.046   7.568  0.00  0.00     0.163 HD
BRANCH  18  21
HETATM   21  C   UNK N   1      36.611  11.850   8.617  0.00  0.00     0.167 C 
BRANCH  21  22
HETATM   22  C   UNK N   1      36.483  11.261  10.033  0.00  0.00     0.036 C 
BRANCH  22  23
HETATM   23  C   UNK N   1      35.078  11.177  10.629  0.00  0.00     0.023 C 
BRANCH  23  24
HETATM   24  C   UNK N   1      35.011  11.742  12.029  0.00  0.00     0.138 C 
BRANCH  24  25
HETATM   25  N   UNK N   1      36.238  11.424  12.710  0.00  0.00    -0.227 N 
HETATM   26  C   UNK N   1      36.861  12.335  13.598  0.00  0.00     0.665 C 
HETATM   27  N   UNK N   1      36.345  13.489  13.815  0.00  0.00    -0.235 N 
HETATM   28  N   UNK N   1      38.096  11.996  14.189  0.00  0.00    -0.235 N 
HETATM   29  H   UNK N   1      36.219  13.817  14.735  0.00  0.00     0.174 HD
ATOM     30  HN  UNK N   1      36.064  14.073  13.027  1.00  0.00     0.174 HD
HETATM   31  H   UNK N   1      38.936  11.548  13.940  0.00  0.00     0.174 HD
HETATM   32  H   UNK N   1      38.126  12.296  15.126  0.00  0.00     0.174 HD
HETATM   33  H   UNK N   1      36.657  10.547  12.555  0.00  0.00     0.177 HD
ENDBRANCH  24  25
ENDBRANCH  23  24
ENDBRANCH  22  23
ENDBRANCH  21  22
BRANCH  21  34
HETATM   34  N   UNK N   1      37.701  11.197   7.917  0.00  0.00    -0.418 N 
HETATM   35  H   UNK N   1      37.957  11.383   6.948  0.00  0.00     0.150 HD
HETATM   36  H   UNK N   1      38.248  10.506   8.429  0.00  0.00     0.150 HD
ENDBRANCH  21  34
ENDBRANCH  18  21
ENDBRANCH  16  17
BRANCH  16  37
HETATM   37  C   UNK N   1      35.892  13.629   5.175  0.00  0.00     0.036 C 
BRANCH  37  38
HETATM   38  C   UNK N   1      36.035  12.298   4.441  0.00  0.00     0.023 C 
BRANCH  38  39
HETATM   39  C   UNK N   1      35.066  12.246   3.287  0.00  0.00     0.138 C 
BRANCH  39  40
HETATM   40  N   UNK N   1      35.588  12.971   2.158  0.00  0.00    -0.227 N 
HETATM   41  C   UNK N   1      34.907  14.100   1.633  0.00  0.00     0.665 C 
HETATM   42  N   UNK N   1      33.822  14.517   2.175  0.00  0.00    -0.235 N 
HETATM   43  N   UNK N   1      35.368  14.703   0.446  0.00  0.00    -0.235 N 
HETATM   44  H   UNK N   1      33.119  15.198   2.071  0.00  0.00     0.174 HD
ATOM     45  HN  UNK N   1      33.616  13.946   2.994  1.00  0.00     0.174 HD
HETATM   46  H   UNK N   1      36.313  14.961   0.343  0.00  0.00     0.174 HD
HETATM   47  H   UNK N   1      34.737  14.870  -0.291  0.00  0.00     0.174 HD
HETATM   48  H   UNK N   1      36.432  12.679   1.743  0.00  0.00     0.177 HD
ENDBRANCH  39  40
ENDBRANCH  38  39
ENDBRANCH  37  38
ENDBRANCH  16  37
ENDBRANCH  13  16
ENDBRANCH  11  12
BRANCH  11  49
HETATM   49  C   UNK N   1      34.152  17.266   6.591  0.00  0.00     0.036 C 
BRANCH  49  50
HETATM   50  C   UNK N   1      33.737  18.075   7.816  0.00  0.00     0.023 C 
BRANCH  50  51
HETATM   51  C   UNK N   1      32.825  17.329   8.786  0.00  0.00     0.138 C 
BRANCH  51  52
HETATM   52  N   UNK N   1      33.461  16.172   9.375  0.00  0.00    -0.227 N 
HETATM   53  C   UNK N   1      34.590  16.248  10.233  0.00  0.00     0.665 C 
HETATM   54  N   UNK N   1      35.156  17.372  10.478  0.00  0.00    -0.235 N 
HETATM   55  N   UNK N   1      35.060  15.077  10.865  0.00  0.00    -0.235 N 
HETATM   56  H   UNK N   1      35.639  17.685  11.276  0.00  0.00     0.174 HD
ATOM     57  HN  UNK N   1      35.095  18.053   9.722  1.00  0.00     0.174 HD
HETATM   58  H   UNK N   1      35.409  14.312  10.353  0.00  0.00     0.174 HD
HETATM   59  H   UNK N   1      35.037  15.024  11.847  0.00  0.00     0.174 HD
HETATM   60  H   UNK N   1      33.090  15.283   9.171  0.00  0.00     0.177 HD
ENDBRANCH  51  52
ENDBRANCH  50  51
ENDBRANCH  49  50
ENDBRANCH  11  49
ENDBRANCH   8  11
ENDBRANCH   6   7
BRANCH   6  61
HETATM   61  C   UNK N   1      29.179  15.555   5.829  0.00  0.00     0.036 C 
BRANCH  61  62
HETATM   62  C   UNK N   1      28.568  16.912   5.493  0.00  0.00     0.023 C 
BRANCH  62  63
HETATM   63  C   UNK N   1      28.840  17.962   6.551  0.00  0.00     0.138 C 
BRANCH  63  64
HETATM   64  N   UNK N   1      29.293  17.277   7.722  0.00  0.00    -0.227 N 
HETATM   65  C   UNK N   1      28.780  17.563   9.011  0.00  0.00     0.665 C 
HETATM   66  N   UNK N   1      27.777  18.346   9.156  0.00  0.00    -0.235 N 
HETATM   67  N   UNK N   1      29.481  17.113  10.147  0.00  0.00    -0.235 N 
HETATM   68  H   UNK N   1      27.066  18.341   9.837  0.00  0.00     0.174 HD
ATOM     69  HN  UNK N   1      27.703  19.089   8.461  1.00  0.00     0.174 HD
HETATM   70  H   UNK N   1      30.232  16.481  10.223  0.00  0.00     0.174 HD
HETATM   71  H   UNK N   1      29.172  17.492  11.001  0.00  0.00     0.174 HD
HETATM   72  H   UNK N   1      29.984  16.582   7.629  0.00  0.00     0.177 HD
ENDBRANCH  63  64
ENDBRANCH  62  63
ENDBRANCH  61  62
ENDBRANCH   6  61
ENDBRANCH   3   6
ENDBRANCH   1   2
BRANCH   1  73
HETATM   73  C   UNK N   1      28.961  11.388   2.985  0.00  0.00     0.036 C 
BRANCH  73  74
HETATM   74  C   UNK N   1      28.824  11.066   4.444  0.00  0.00     0.023 C 
BRANCH  74  75
HETATM   75  C   UNK N   1      28.127   9.730   4.605  0.00  0.00     0.138 C 
BRANCH  75  76
HETATM   76  N   UNK N   1      26.726   9.874   4.303  0.00  0.00    -0.227 N 
HETATM   77  C   UNK N   1      25.729   9.044   4.881  0.00  0.00     0.665 C 
HETATM   78  N   UNK N   1      26.046   8.102   5.692  0.00  0.00    -0.235 N 
HETATM   79  N   UNK N   1      24.377   9.233   4.529  0.00  0.00    -0.235 N 
HETATM   80  H   UNK N   1      25.737   7.385   6.291  0.00  0.00     0.174 HD
ATOM     81  HN  UNK N   1      27.066   8.090   5.734  1.00  0.00     0.174 HD
HETATM   82  H   UNK N   1      24.096   9.234   3.585  0.00  0.00     0.174 HD
HETATM   83  H   UNK N   1      23.706   9.368   5.236  0.00  0.00     0.174 HD
HETATM   84  H   UNK N   1      26.449  10.577   3.672  0.00  0.00     0.177 HD
ENDBRANCH  75  76
ENDBRANCH  74  75
ENDBRANCH  73  74
ENDBRANCH   1  73
BRANCH   1  85
HETATM   85  C   UNK N   1      27.101  12.843   2.611  0.00  0.00     0.241 C 
HETATM   86  O   UNK N   1      26.518  11.948   2.011  0.00  0.00    -0.271 OA
HETATM   87  N   UNK N   1      26.427  13.730   3.367  0.00  0.00    -0.346 N 
HETATM   88  H   UNK N   1      26.797  14.631   3.516  0.00  0.00     0.163 HD
BRANCH  87  89
HETATM   89  C   UNK N   1      25.186  13.368   3.945  0.00  0.00     0.176 C 
BRANCH  89  90
HETATM   90  C   UNK N   1      24.071  14.229   3.376  0.00  0.00     0.036 C 
BRANCH  90  91
HETATM   91  C   UNK N   1      24.562  14.942   2.148  0.00  0.00     0.023 C 
BRANCH  91  92
HETATM   92  C   UNK N   1      23.921  14.360   0.898  0.00  0.00     0.138 C 
BRANCH  92  93
HETATM   93  N   UNK N   1      23.016  13.326   1.310  0.00  0.00    -0.227 N 
HETATM   94  C   UNK N   1      23.079  12.038   0.729  0.00  0.00     0.665 C 
HETATM   95  N   UNK N   1      24.121  11.664   0.082  0.00  0.00    -0.235 N 
HETATM   96  N   UNK N   1      21.921  11.243   0.693  0.00  0.00    -0.235 N 
HETATM   97  H   UNK N   1      24.371  10.712   0.058  0.00  0.00     0.174 HD
ATOM     98  HN  UNK N   1      24.691  12.354  -0.408  1.00  0.00     0.174 HD
HETATM   99  H   UNK N   1      20.970  11.496   0.655  0.00  0.00     0.174 HD
HETATM  100  H   UNK N   1      22.088  10.273   0.709  0.00  0.00     0.174 HD
HETATM  101  H   UNK N   1      22.343  13.515   2.002  0.00  0.00     0.177 HD
ENDBRANCH  92  93
ENDBRANCH  91  92
ENDBRANCH  90  91
ENDBRANCH  89  90
BRANCH  89 102
HETATM  102  C   UNK N   1      25.369  13.678   5.381  0.00  0.00     0.241 C 
HETATM  103  O   UNK N   1      26.467  13.524   5.898  0.00  0.00    -0.271 OA
HETATM  104  N   UNK N   1      24.403  14.371   6.025  0.00  0.00    -0.346 N 
HETATM  105  H   UNK N   1      24.259  15.315   5.792  0.00  0.00     0.163 HD
BRANCH 104 106
HETATM  106  C   UNK N   1      23.576  13.770   7.040  0.00  0.00     0.176 C 
BRANCH 106 107
HETATM  107  C   UNK N   1      23.123  12.361   6.633  0.00  0.00     0.036 C 
BRANCH 107 108
HETATM  108  C   UNK N   1      23.601  11.212   7.521  0.00  0.00     0.023 C 
BRANCH 108 109
HETATM  109  C   UNK N   1      23.955  11.641   8.933  0.00  0.00     0.138 C 
BRANCH 109 110
HETATM  110  N   UNK N   1      22.813  11.548   9.805  0.00  0.00    -0.227 N 
HETATM  111  C   UNK N   1      22.917  11.872  11.183  0.00  0.00     0.665 C 
HETATM  112  N   UNK N   1      24.028  12.278  11.677  0.00  0.00    -0.235 N 
HETATM  113  N   UNK N   1      21.780  11.768  12.011  0.00  0.00    -0.235 N 
HETATM  114  H   UNK N   1      24.663  12.671  12.320  0.00  0.00     0.174 HD
ATOM    115  HN  UNK N   1      24.664  12.046  10.914  1.00  0.00     0.174 HD
HETATM  116  H   UNK N   1      20.919  12.214  11.842  0.00  0.00     0.174 HD
HETATM  117  H   UNK N   1      21.854  11.208  12.818  0.00  0.00     0.174 HD
HETATM  118  H   UNK N   1      21.947  11.255   9.441  0.00  0.00     0.177 HD
ENDBRANCH 109 110
ENDBRANCH 108 109
ENDBRANCH 107 108
ENDBRANCH 106 107
BRANCH 106 119
HETATM  119  C   UNK N   1      22.471  14.671   7.520  0.00  0.00     0.241 C 
HETATM  120  O   UNK N   1      21.893  14.411   8.564  0.00  0.00    -0.271 OA
HETATM  121  N   UNK N   1      22.091  15.726   6.742  0.00  0.00    -0.346 N 
HETATM  122  H   UNK N   1      22.752  16.067   6.096  0.00  0.00     0.163 HD
BRANCH 121 123
HETATM  123  C   UNK N   1      20.809  16.387   6.779  0.00  0.00     0.176 C 
BRANCH 123 124
HETATM  124  C   UNK N   1      19.727  15.770   5.900  0.00  0.00     0.036 C 
BRANCH 124 125
HETATM  125  C   UNK N   1      20.031  14.458   5.199  0.00  0.00     0.023 C 
BRANCH 125 126
HETATM  126  C   UNK N   1      19.204  14.411   3.910  0.00  0.00     0.138 C 
BRANCH 126 127
HETATM  127  N   UNK N   1      19.620  15.468   3.011  0.00  0.00    -0.227 N 
HETATM  128  C   UNK N   1      19.889  15.263   1.635  0.00  0.00     0.665 C 
HETATM  129  N   UNK N   1      19.604  14.149   1.072  0.00  0.00    -0.235 N 
HETATM  130  N   UNK N   1      20.402  16.327   0.864  0.00  0.00    -0.235 N 
HETATM  131  H   UNK N   1      18.921  14.101   0.364  0.00  0.00     0.174 HD
ATOM    132  HN  UNK N   1      20.091  13.301   1.361  1.00  0.00     0.174 HD
HETATM  133  H   UNK N   1      21.117  17.001   0.806  0.00  0.00     0.174 HD
HETATM  134  H   UNK N   1      19.817  16.439   0.079  0.00  0.00     0.174 HD
HETATM  135  H   UNK N   1      19.721  16.376   3.374  0.00  0.00     0.177 HD
ENDBRANCH 126 127
ENDBRANCH 125 126
ENDBRANCH 124 125
ENDBRANCH 123 124
BRANCH 123 136
HETATM  136  C   UNK N   1      21.063  17.746   6.233  0.00  0.00     0.241 C 
HETATM  137  O   UNK N   1      21.035  18.722   6.965  0.00  0.00    -0.271 OA
HETATM  138  N   UNK N   1      21.335  17.853   4.903  0.00  0.00    -0.345 N 
HETATM  139  H   UNK N   1      21.455  17.007   4.413  0.00  0.00     0.163 HD
BRANCH 138 140
HETATM  140  C   UNK N   1      21.467  19.061   4.131  0.00  0.00     0.182 C 
BRANCH 140 141
HETATM  141  C   UNK N   1      22.924  19.256   3.717  0.00  0.00     0.038 C 
BRANCH 141 142
HETATM  142  C   UNK N   1      23.804  18.040   4.009  0.00  0.00     0.023 C 
BRANCH 142 143
HETATM  143  C   UNK N   1      25.245  18.438   4.292  0.00  0.00     0.138 C 
BRANCH 143 144
HETATM  144  N   UNK N   1      25.337  19.129   5.555  0.00  0.00    -0.227 N 
HETATM  145  C   UNK N   1      26.207  20.233   5.752  0.00  0.00     0.665 C 
HETATM  146  N   UNK N   1      26.280  20.779   6.906  0.00  0.00    -0.235 N 
HETATM  147  N   UNK N   1      27.042  20.693   4.707  0.00  0.00    -0.235 N 
HETATM  148  H   UNK N   1      26.064  20.310   7.744  0.00  0.00     0.174 HD
ATOM    149  HN  UNK N   1      26.580  21.752   6.961  1.00  0.00     0.174 HD
HETATM  150  H   UNK N   1      27.428  21.598   4.742  0.00  0.00     0.174 HD
HETATM  151  H   UNK N   1      27.239  20.106   3.942  0.00  0.00     0.174 HD
HETATM  152  H   UNK N   1      24.777  18.824   6.305  0.00  0.00     0.177 HD
ENDBRANCH 143 144
ENDBRANCH 142 143
ENDBRANCH 141 142
ENDBRANCH 140 141
BRANCH 140 153
HETATM  153  C   UNK N   1      20.422  19.229   3.068  0.00  0.00     0.163 C 
HETATM  154  O   UNK N   1      20.508  20.128   2.248  0.00  0.00    -0.648 OA
BRANCH 153 155
HETATM  155  O   UNK N   1      19.364  18.396   3.036  0.00  0.00    -0.775 OA
HETATM  156  H   UNK N   1      19.271  17.725   3.683  0.00  0.00     0.167 HD
ENDBRANCH 153 155
ENDBRANCH 140 153
ENDBRANCH 138 140
ENDBRANCH 123 136
ENDBRANCH 121 123
ENDBRANCH 106 119
ENDBRANCH 104 106
ENDBRANCH  89 102
ENDBRANCH  87  89
ENDBRANCH   1  85
TORSDOF 55
ENDMDL
MODEL 8
REMARK VINA RESULT:      -7.4      2.810     14.559
REMARK WARNING: 32 MAX_TORS EXCEEDED!!!
REMARK  55 active torsions:
REMARK  status: ('A' for Active; 'I' for Inactive)
REMARK    1  A    between atoms: C_1  and  C_2 
REMARK    2  A    between atoms: C_1  and  C_104 
REMARK    3  A    between atoms: C_2  and  C_3 
REMARK    4  A    between atoms: C_3  and  C_4 
REMARK    5  A    between atoms: C_3  and  N_103 
REMARK       I    between atoms: C_4  and  N_6 
REMARK    6  A    between atoms: C_7  and  N_6 
REMARK    7  A    between atoms: C_7  and  C_8 
REMARK    8  A    between atoms: C_7  and  C_16 
REMARK    9  A    between atoms: C_8  and  C_9 
REMARK   10  A    between atoms: C_9  and  C_10 
REMARK   11  A    between atoms: C_10  and  N_11 
REMARK       I    between atoms: N_11  and  C_12 
REMARK       I    between atoms: C_12  and  N_15 
REMARK       I    between atoms: C_16  and  N_18 
REMARK   12  A    between atoms: C_19  and  N_18 
REMARK   13  A    between atoms: C_19  and  C_20 
REMARK   14  A    between atoms: C_19  and  C_28 
REMARK   15  A    between atoms: C_20  and  C_21 
REMARK   16  A    between atoms: C_21  and  C_22 
REMARK   17  A    between atoms: C_22  and  N_23 
REMARK       I    between atoms: N_23  and  C_24 
REMARK       I    between atoms: C_24  and  N_27 
REMARK       I    between atoms: C_28  and  N_30 
REMARK   18  A    between atoms: C_31  and  N_30 
REMARK   19  A    between atoms: C_31  and  C_32 
REMARK   20  A    between atoms: C_31  and  C_40 
REMARK   21  A    between atoms: C_32  and  C_33 
REMARK   22  A    between atoms: C_33  and  C_34 
REMARK   23  A    between atoms: C_34  and  N_35 
REMARK       I    between atoms: N_35  and  C_36 
REMARK       I    between atoms: C_36  and  N_39 
REMARK       I    between atoms: C_40  and  N_42 
REMARK   24  A    between atoms: C_43  and  N_42 
REMARK   25  A    between atoms: C_43  and  C_44 
REMARK   26  A    between atoms: C_43  and  C_52 
REMARK   27  A    between atoms: C_44  and  C_45 
REMARK   28  A    between atoms: C_45  and  C_46 
REMARK   29  A    between atoms: C_46  and  N_47 
REMARK       I    between atoms: N_47  and  C_48 
REMARK       I    between atoms: C_48  and  N_51 
REMARK       I    between atoms: C_52  and  N_54 
REMARK   30  A    between atoms: C_55  and  N_54 
REMARK   31  A    between atoms: C_55  and  C_56 
REMARK   32  A    between atoms: C_55  and  C_64 
REMARK   33  A    between atoms: C_56  and  C_57 
REMARK   34  A    between atoms: C_57  and  C_58 
REMARK   35  A    between atoms: C_58  and  N_59 
REMARK       I    between atoms: N_59  and  C_60 
REMARK       I    between atoms: C_60  and  N_63 
REMARK       I    between atoms: C_64  and  N_66 
REMARK   36  A    between atoms: C_67  and  N_66 
REMARK   37  A    between atoms: C_67  and  C_68 
REMARK   38  A    between atoms: C_67  and  C_76 
REMARK   39  A    between atoms: C_68  and  C_69 
REMARK   40  A    between atoms: C_69  and  C_70 
REMARK   41  A    between atoms: C_70  and  N_71 
REMARK       I    between atoms: N_71  and  C_72 
REMARK       I    between atoms: C_72  and  N_75 
REMARK       I    between atoms: C_76  and  N_78 
REMARK   42  A    between atoms: C_79  and  N_78 
REMARK   43  A    between atoms: C_79  and  C_80 
REMARK   44  A    between atoms: C_79  and  C_88 
REMARK   45  A    between atoms: C_80  and  C_81 
REMARK   46  A    between atoms: C_81  and  C_82 
REMARK   47  A    between atoms: C_82  and  N_83 
REMARK       I    between atoms: N_83  and  C_84 
REMARK       I    between atoms: C_84  and  N_87 
REMARK       I    between atoms: C_88  and  N_90 
REMARK   48  A    between atoms: C_91  and  N_90 
REMARK   49  A    between atoms: C_91  and  C_92 
REMARK   50  A    between atoms: C_91  and  C_100 
REMARK   51  A    between atoms: C_92  and  C_93 
REMARK   52  A    between atoms: C_93  and  C_94 
REMARK   53  A    between atoms: C_94  and  N_95 
REMARK       I    between atoms: N_95  and  C_96 
REMARK       I    between atoms: C_96  and  N_99 
REMARK   54  A    between atoms: C_100  and  O_102 
REMARK   55  A    between atoms: C_104  and  N_105 
REMARK       I    between atoms: N_105  and  C_106 
REMARK       I    between atoms: C_106  and  N_109 
ROOT
HETATM    1  C   UNK N   1      27.356  17.521   4.553  0.00  0.00     0.176 C 
ENDROOT
BRANCH   1   2
HETATM    2  N   UNK N   1      26.133  17.137   5.207  0.00  0.00    -0.346 N 
HETATM    3  C   UNK N   1      24.960  17.274   4.560  0.00  0.00     0.241 C 
HETATM    4  O   UNK N   1      24.925  17.780   3.452  0.00  0.00    -0.271 OA
HETATM    5  H   UNK N   1      26.155  16.778   6.124  0.00  0.00     0.163 HD
BRANCH   3   6
HETATM    6  C   UNK N   1      23.696  16.850   5.237  0.00  0.00     0.176 C 
BRANCH   6   7
HETATM    7  N   UNK N   1      24.092  16.029   6.347  0.00  0.00    -0.346 N 
HETATM    8  C   UNK N   1      23.639  14.769   6.529  0.00  0.00     0.241 C 
HETATM    9  O   UNK N   1      24.258  14.047   7.300  0.00  0.00    -0.271 OA
HETATM   10  H   UNK N   1      24.722  16.400   7.006  0.00  0.00     0.163 HD
BRANCH   8  11
HETATM   11  C   UNK N   1      22.353  14.203   5.910  0.00  0.00     0.176 C 
BRANCH  11  12
HETATM   12  N   UNK N   1      22.625  12.788   5.824  0.00  0.00    -0.346 N 
HETATM   13  C   UNK N   1      22.446  12.105   4.664  0.00  0.00     0.241 C 
HETATM   14  O   UNK N   1      22.576  12.667   3.585  0.00  0.00    -0.271 OA
HETATM   15  H   UNK N   1      22.945  12.309   6.622  0.00  0.00     0.163 HD
BRANCH  13  16
HETATM   16  C   UNK N   1      21.613  10.867   4.735  0.00  0.00     0.176 C 
BRANCH  16  17
HETATM   17  N   UNK N   1      20.222  11.129   4.990  0.00  0.00    -0.346 N 
HETATM   18  C   UNK N   1      19.240  10.971   4.074  0.00  0.00     0.240 C 
HETATM   19  O   UNK N   1      18.084  11.137   4.425  0.00  0.00    -0.271 OA
HETATM   20  H   UNK N   1      19.970  11.443   5.888  0.00  0.00     0.163 HD
BRANCH  18  21
HETATM   21  C   UNK N   1      19.504  10.588   2.635  0.00  0.00     0.167 C 
BRANCH  21  22
HETATM   22  C   UNK N   1      18.539  11.107   1.554  0.00  0.00     0.036 C 
BRANCH  22  23
HETATM   23  C   UNK N   1      19.129  12.000   0.463  0.00  0.00     0.023 C 
BRANCH  23  24
HETATM   24  C   UNK N   1      20.085  13.031   1.016  0.00  0.00     0.138 C 
BRANCH  24  25
HETATM   25  N   UNK N   1      19.356  13.905   1.897  0.00  0.00    -0.227 N 
HETATM   26  C   UNK N   1      20.004  14.895   2.674  0.00  0.00     0.665 C 
HETATM   27  N   UNK N   1      21.278  15.037   2.620  0.00  0.00    -0.235 N 
HETATM   28  N   UNK N   1      19.248  15.681   3.570  0.00  0.00    -0.235 N 
HETATM   29  H   UNK N   1      21.678  15.927   2.487  0.00  0.00     0.174 HD
ATOM     30  HN  UNK N   1      21.881  14.221   2.718  1.00  0.00     0.174 HD
HETATM   31  H   UNK N   1      18.499  15.572   4.198  0.00  0.00     0.174 HD
HETATM   32  H   UNK N   1      19.564  16.614   3.564  0.00  0.00     0.174 HD
HETATM   33  H   UNK N   1      18.379  13.811   1.961  0.00  0.00     0.177 HD
ENDBRANCH  24  25
ENDBRANCH  23  24
ENDBRANCH  22  23
ENDBRANCH  21  22
BRANCH  21  34
HETATM   34  N   UNK N   1      19.625   9.147   2.525  0.00  0.00    -0.418 N 
HETATM   35  H   UNK N   1      20.453   8.615   2.791  0.00  0.00     0.150 HD
HETATM   36  H   UNK N   1      18.827   8.630   2.156  0.00  0.00     0.150 HD
ENDBRANCH  21  34
ENDBRANCH  18  21
ENDBRANCH  16  17
BRANCH  16  37
HETATM   37  C   UNK N   1      22.153   9.924   5.816  0.00  0.00     0.036 C 
BRANCH  37  38
HETATM   38  C   UNK N   1      22.438   8.519   5.290  0.00  0.00     0.023 C 
BRANCH  38  39
HETATM   39  C   UNK N   1      22.743   7.596   6.443  0.00  0.00     0.138 C 
BRANCH  39  40
HETATM   40  N   UNK N   1      24.165   7.456   6.613  0.00  0.00    -0.227 N 
HETATM   41  C   UNK N   1      24.703   6.585   7.596  0.00  0.00     0.665 C 
HETATM   42  N   UNK N   1      23.930   5.881   8.338  0.00  0.00    -0.235 N 
HETATM   43  N   UNK N   1      26.092   6.573   7.832  0.00  0.00    -0.235 N 
HETATM   44  H   UNK N   1      23.948   5.240   9.085  0.00  0.00     0.174 HD
ATOM     45  HN  UNK N   1      22.962   6.040   8.058  1.00  0.00     0.174 HD
HETATM   46  H   UNK N   1      26.731   6.471   7.090  0.00  0.00     0.174 HD
HETATM   47  H   UNK N   1      26.429   6.667   8.753  0.00  0.00     0.174 HD
HETATM   48  H   UNK N   1      24.775   7.971   6.037  0.00  0.00     0.177 HD
ENDBRANCH  39  40
ENDBRANCH  38  39
ENDBRANCH  37  38
ENDBRANCH  16  37
ENDBRANCH  13  16
ENDBRANCH  11  12
BRANCH  11  49
HETATM   49  C   UNK N   1      21.018  14.445   6.641  0.00  0.00     0.036 C 
BRANCH  49  50
HETATM   50  C   UNK N   1      21.153  14.927   8.082  0.00  0.00     0.023 C 
BRANCH  50  51
HETATM   51  C   UNK N   1      20.690  16.362   8.314  0.00  0.00     0.138 C 
BRANCH  51  52
HETATM   52  N   UNK N   1      19.263  16.463   8.524  0.00  0.00    -0.227 N 
HETATM   53  C   UNK N   1      18.630  17.608   9.077  0.00  0.00     0.665 C 
HETATM   54  N   UNK N   1      19.319  18.607   9.490  0.00  0.00    -0.235 N 
HETATM   55  N   UNK N   1      17.220  17.667   9.121  0.00  0.00    -0.235 N 
HETATM   56  H   UNK N   1      19.101  19.566   9.523  0.00  0.00     0.174 HD
ATOM     57  HN  UNK N   1      20.246  18.368   9.842  1.00  0.00     0.174 HD
HETATM   58  H   UNK N   1      16.688  17.028   9.648  0.00  0.00     0.174 HD
HETATM   59  H   UNK N   1      16.756  18.367   8.609  0.00  0.00     0.174 HD
HETATM   60  H   UNK N   1      18.700  15.698   8.269  0.00  0.00     0.177 HD
ENDBRANCH  51  52
ENDBRANCH  50  51
ENDBRANCH  49  50
ENDBRANCH  11  49
ENDBRANCH   8  11
ENDBRANCH   6   7
BRANCH   6  61
HETATM   61  C   UNK N   1      22.891  18.068   5.692  0.00  0.00     0.036 C 
BRANCH  61  62
HETATM   62  C   UNK N   1      21.497  18.132   5.076  0.00  0.00     0.023 C 
BRANCH  62  63
HETATM   63  C   UNK N   1      21.402  19.118   3.929  0.00  0.00     0.138 C 
BRANCH  63  64
HETATM   64  N   UNK N   1      21.176  18.361   2.736  0.00  0.00    -0.227 N 
HETATM   65  C   UNK N   1      20.517  18.907   1.608  0.00  0.00     0.665 C 
HETATM   66  N   UNK N   1      20.232  20.154   1.557  0.00  0.00    -0.235 N 
HETATM   67  N   UNK N   1      20.029  18.041   0.609  0.00  0.00    -0.235 N 
HETATM   68  H   UNK N   1      20.178  20.759   0.782  0.00  0.00     0.174 HD
ATOM     69  HN  UNK N   1      20.028  20.589   2.458  1.00  0.00     0.174 HD
HETATM   70  H   UNK N   1      20.186  17.080   0.466  0.00  0.00     0.174 HD
HETATM   71  H   UNK N   1      19.434  18.465  -0.051  0.00  0.00     0.174 HD
HETATM   72  H   UNK N   1      21.490  17.428   2.698  0.00  0.00     0.177 HD
ENDBRANCH  63  64
ENDBRANCH  62  63
ENDBRANCH  61  62
ENDBRANCH   6  61
ENDBRANCH   3   6
ENDBRANCH   1   2
BRANCH   1  73
HETATM   73  C   UNK N   1      28.330  18.043   5.595  0.00  0.00     0.036 C 
BRANCH  73  74
HETATM   74  C   UNK N   1      27.674  19.091   6.444  0.00  0.00     0.023 C 
BRANCH  74  75
HETATM   75  C   UNK N   1      28.228  19.022   7.853  0.00  0.00     0.138 C 
BRANCH  75  76
HETATM   76  N   UNK N   1      29.439  18.239   7.860  0.00  0.00    -0.227 N 
HETATM   77  C   UNK N   1      30.207  18.030   9.036  0.00  0.00     0.665 C 
HETATM   78  N   UNK N   1      29.859  18.559  10.152  0.00  0.00    -0.235 N 
HETATM   79  N   UNK N   1      31.389  17.265   8.967  0.00  0.00    -0.235 N 
HETATM   80  H   UNK N   1      30.037  18.653  11.116  0.00  0.00     0.174 HD
ATOM     81  HN  UNK N   1      29.039  19.132   9.955  1.00  0.00     0.174 HD
HETATM   82  H   UNK N   1      32.096  17.485   8.318  0.00  0.00     0.174 HD
HETATM   83  H   UNK N   1      31.509  16.501   9.575  0.00  0.00     0.174 HD
HETATM   84  H   UNK N   1      29.744  17.833   7.017  0.00  0.00     0.177 HD
ENDBRANCH  75  76
ENDBRANCH  74  75
ENDBRANCH  73  74
ENDBRANCH   1  73
BRANCH   1  85
HETATM   85  C   UNK N   1      27.975  16.309   3.987  0.00  0.00     0.241 C 
HETATM   86  O   UNK N   1      28.218  16.238   2.789  0.00  0.00    -0.271 OA
HETATM   87  N   UNK N   1      28.457  15.397   4.852  0.00  0.00    -0.346 N 
HETATM   88  H   UNK N   1      27.977  15.214   5.693  0.00  0.00     0.163 HD
BRANCH  87  89
HETATM   89  C   UNK N   1      29.653  14.701   4.551  0.00  0.00     0.176 C 
BRANCH  89  90
HETATM   90  C   UNK N   1      29.363  13.223   4.348  0.00  0.00     0.036 C 
BRANCH  90  91
HETATM   91  C   UNK N   1      29.048  12.967   2.901  0.00  0.00     0.023 C 
BRANCH  91  92
HETATM   92  C   UNK N   1      27.718  12.244   2.762  0.00  0.00     0.138 C 
BRANCH  92  93
HETATM   93  N   UNK N   1      26.871  13.039   1.920  0.00  0.00    -0.227 N 
HETATM   94  C   UNK N   1      25.690  13.625   2.433  0.00  0.00     0.665 C 
HETATM   95  N   UNK N   1      25.515  13.742   3.697  0.00  0.00    -0.235 N 
HETATM   96  N   UNK N   1      24.624  13.898   1.558  0.00  0.00    -0.235 N 
HETATM   97  H   UNK N   1      24.974  14.484   4.053  0.00  0.00     0.174 HD
ATOM     98  HN  UNK N   1      25.936  13.066   4.334  1.00  0.00     0.174 HD
HETATM   99  H   UNK N   1      24.350  13.456   0.723  0.00  0.00     0.174 HD
HETATM  100  H   UNK N   1      24.058  14.658   1.826  0.00  0.00     0.174 HD
HETATM  101  H   UNK N   1      27.113  13.177   0.977  0.00  0.00     0.177 HD
ENDBRANCH  92  93
ENDBRANCH  91  92
ENDBRANCH  90  91
ENDBRANCH  89  90
BRANCH  89 102
HETATM  102  C   UNK N   1      30.475  14.881   5.769  0.00  0.00     0.241 C 
HETATM  103  O   UNK N   1      30.220  15.795   6.541  0.00  0.00    -0.271 OA
HETATM  104  N   UNK N   1      31.313  13.888   6.141  0.00  0.00    -0.346 N 
HETATM  105  H   UNK N   1      30.932  13.041   6.468  0.00  0.00     0.163 HD
BRANCH 104 106
HETATM  106  C   UNK N   1      32.745  14.027   6.073  0.00  0.00     0.176 C 
BRANCH 106 107
HETATM  107  C   UNK N   1      33.339  13.173   4.947  0.00  0.00     0.036 C 
BRANCH 107 108
HETATM  108  C   UNK N   1      33.251  13.754   3.535  0.00  0.00     0.023 C 
BRANCH 108 109
HETATM  109  C   UNK N   1      33.794  15.167   3.425  0.00  0.00     0.138 C 
BRANCH 109 110
HETATM  110  N   UNK N   1      32.734  16.114   3.198  0.00  0.00    -0.227 N 
HETATM  111  C   UNK N   1      32.532  17.209   4.077  0.00  0.00     0.665 C 
HETATM  112  N   UNK N   1      33.307  17.393   5.082  0.00  0.00    -0.235 N 
HETATM  113  N   UNK N   1      31.482  18.118   3.828  0.00  0.00    -0.235 N 
HETATM  114  H   UNK N   1      33.735  17.844   5.846  0.00  0.00     0.174 HD
ATOM    115  HN  UNK N   1      33.793  16.497   5.104  1.00  0.00     0.174 HD
HETATM  116  H   UNK N   1      31.351  18.608   2.985  0.00  0.00     0.174 HD
HETATM  117  H   UNK N   1      30.833  18.274   4.553  0.00  0.00     0.174 HD
HETATM  118  H   UNK N   1      32.139  15.999   2.423  0.00  0.00     0.177 HD
ENDBRANCH 109 110
ENDBRANCH 108 109
ENDBRANCH 107 108
ENDBRANCH 106 107
BRANCH 106 119
HETATM  119  C   UNK N   1      33.423  13.868   7.407  0.00  0.00     0.241 C 
HETATM  120  O   UNK N   1      33.424  14.800   8.197  0.00  0.00    -0.271 OA
HETATM  121  N   UNK N   1      34.082  12.705   7.681  0.00  0.00    -0.346 N 
HETATM  122  H   UNK N   1      33.809  11.906   7.175  0.00  0.00     0.163 HD
BRANCH 121 123
HETATM  123  C   UNK N   1      35.144  12.541   8.644  0.00  0.00     0.176 C 
BRANCH 123 124
HETATM  124  C   UNK N   1      36.556  12.749   8.106  0.00  0.00     0.036 C 
BRANCH 124 125
HETATM  125  C   UNK N   1      37.440  13.781   8.783  0.00  0.00     0.023 C 
BRANCH 125 126
HETATM  126  C   UNK N   1      36.923  13.980  10.211  0.00  0.00     0.138 C 
BRANCH 126 127
HETATM  127  N   UNK N   1      36.652  15.382  10.454  0.00  0.00    -0.227 N 
HETATM  128  C   UNK N   1      35.373  15.883  10.798  0.00  0.00     0.665 C 
HETATM  129  N   UNK N   1      34.414  15.084  11.087  0.00  0.00    -0.235 N 
HETATM  130  N   UNK N   1      35.179  17.277  10.900  0.00  0.00    -0.235 N 
HETATM  131  H   UNK N   1      34.026  15.068  11.992  0.00  0.00     0.174 HD
ATOM    132  HN  UNK N   1      34.049  14.458  10.371  1.00  0.00     0.174 HD
HETATM  133  H   UNK N   1      35.284  18.135  10.430  0.00  0.00     0.174 HD
HETATM  134  H   UNK N   1      34.786  17.462  11.784  0.00  0.00     0.174 HD
HETATM  135  H   UNK N   1      37.396  16.021  10.376  0.00  0.00     0.177 HD
ENDBRANCH 126 127
ENDBRANCH 125 126
ENDBRANCH 124 125
ENDBRANCH 123 124
BRANCH 123 136
HETATM  136  C   UNK N   1      35.065  11.117   9.062  0.00  0.00     0.241 C 
HETATM  137  O   UNK N   1      35.907  10.315   8.691  0.00  0.00    -0.271 OA
HETATM  138  N   UNK N   1      34.036  10.752   9.876  0.00  0.00    -0.345 N 
HETATM  139  H   UNK N   1      33.475  11.483  10.223  0.00  0.00     0.163 HD
BRANCH 138 140
HETATM  140  C   UNK N   1      33.674   9.421  10.287  0.00  0.00     0.182 C 
BRANCH 140 141
HETATM  141  C   UNK N   1      34.070   9.201  11.746  0.00  0.00     0.038 C 
BRANCH 141 142
HETATM  142  C   UNK N   1      33.954  10.465  12.601  0.00  0.00     0.023 C 
BRANCH 142 143
HETATM  143  C   UNK N   1      35.248  10.769  13.340  0.00  0.00     0.138 C 
BRANCH 143 144
HETATM  144  N   UNK N   1      35.404  12.193  13.514  0.00  0.00    -0.227 N 
HETATM  145  C   UNK N   1      36.678  12.811  13.595  0.00  0.00     0.665 C 
HETATM  146  N   UNK N   1      36.757  14.071  13.795  0.00  0.00    -0.235 N 
HETATM  147  N   UNK N   1      37.863  12.040  13.522  0.00  0.00    -0.235 N 
HETATM  148  H   UNK N   1      36.051  14.596  14.237  0.00  0.00     0.174 HD
ATOM    149  HN  UNK N   1      37.596  14.559  13.481  1.00  0.00     0.174 HD
HETATM  150  H   UNK N   1      38.721  12.469  13.300  0.00  0.00     0.174 HD
HETATM  151  H   UNK N   1      37.829  11.072  13.693  0.00  0.00     0.174 HD
HETATM  152  H   UNK N   1      34.598  12.755  13.581  0.00  0.00     0.177 HD
ENDBRANCH 143 144
ENDBRANCH 142 143
ENDBRANCH 141 142
ENDBRANCH 140 141
BRANCH 140 153
HETATM  153  C   UNK N   1      32.291   9.006   9.880  0.00  0.00     0.163 C 
HETATM  154  O   UNK N   1      31.570   9.771   9.260  0.00  0.00    -0.648 OA
BRANCH 153 155
HETATM  155  O   UNK N   1      31.832   7.789  10.227  0.00  0.00    -0.775 OA
HETATM  156  H   UNK N   1      31.263   7.317   9.651  0.00  0.00     0.167 HD
ENDBRANCH 153 155
ENDBRANCH 140 153
ENDBRANCH 138 140
ENDBRANCH 123 136
ENDBRANCH 121 123
ENDBRANCH 106 119
ENDBRANCH 104 106
ENDBRANCH  89 102
ENDBRANCH  87  89
ENDBRANCH   1  85
TORSDOF 55
ENDMDL
MODEL 9
REMARK VINA RESULT:      -7.3      2.977      7.778
REMARK WARNING: 32 MAX_TORS EXCEEDED!!!
REMARK  55 active torsions:
REMARK  status: ('A' for Active; 'I' for Inactive)
REMARK    1  A    between atoms: C_1  and  C_2 
REMARK    2  A    between atoms: C_1  and  C_104 
REMARK    3  A    between atoms: C_2  and  C_3 
REMARK    4  A    between atoms: C_3  and  C_4 
REMARK    5  A    between atoms: C_3  and  N_103 
REMARK       I    between atoms: C_4  and  N_6 
REMARK    6  A    between atoms: C_7  and  N_6 
REMARK    7  A    between atoms: C_7  and  C_8 
REMARK    8  A    between atoms: C_7  and  C_16 
REMARK    9  A    between atoms: C_8  and  C_9 
REMARK   10  A    between atoms: C_9  and  C_10 
REMARK   11  A    between atoms: C_10  and  N_11 
REMARK       I    between atoms: N_11  and  C_12 
REMARK       I    between atoms: C_12  and  N_15 
REMARK       I    between atoms: C_16  and  N_18 
REMARK   12  A    between atoms: C_19  and  N_18 
REMARK   13  A    between atoms: C_19  and  C_20 
REMARK   14  A    between atoms: C_19  and  C_28 
REMARK   15  A    between atoms: C_20  and  C_21 
REMARK   16  A    between atoms: C_21  and  C_22 
REMARK   17  A    between atoms: C_22  and  N_23 
REMARK       I    between atoms: N_23  and  C_24 
REMARK       I    between atoms: C_24  and  N_27 
REMARK       I    between atoms: C_28  and  N_30 
REMARK   18  A    between atoms: C_31  and  N_30 
REMARK   19  A    between atoms: C_31  and  C_32 
REMARK   20  A    between atoms: C_31  and  C_40 
REMARK   21  A    between atoms: C_32  and  C_33 
REMARK   22  A    between atoms: C_33  and  C_34 
REMARK   23  A    between atoms: C_34  and  N_35 
REMARK       I    between atoms: N_35  and  C_36 
REMARK       I    between atoms: C_36  and  N_39 
REMARK       I    between atoms: C_40  and  N_42 
REMARK   24  A    between atoms: C_43  and  N_42 
REMARK   25  A    between atoms: C_43  and  C_44 
REMARK   26  A    between atoms: C_43  and  C_52 
REMARK   27  A    between atoms: C_44  and  C_45 
REMARK   28  A    between atoms: C_45  and  C_46 
REMARK   29  A    between atoms: C_46  and  N_47 
REMARK       I    between atoms: N_47  and  C_48 
REMARK       I    between atoms: C_48  and  N_51 
REMARK       I    between atoms: C_52  and  N_54 
REMARK   30  A    between atoms: C_55  and  N_54 
REMARK   31  A    between atoms: C_55  and  C_56 
REMARK   32  A    between atoms: C_55  and  C_64 
REMARK   33  A    between atoms: C_56  and  C_57 
REMARK   34  A    between atoms: C_57  and  C_58 
REMARK   35  A    between atoms: C_58  and  N_59 
REMARK       I    between atoms: N_59  and  C_60 
REMARK       I    between atoms: C_60  and  N_63 
REMARK       I    between atoms: C_64  and  N_66 
REMARK   36  A    between atoms: C_67  and  N_66 
REMARK   37  A    between atoms: C_67  and  C_68 
REMARK   38  A    between atoms: C_67  and  C_76 
REMARK   39  A    between atoms: C_68  and  C_69 
REMARK   40  A    between atoms: C_69  and  C_70 
REMARK   41  A    between atoms: C_70  and  N_71 
REMARK       I    between atoms: N_71  and  C_72 
REMARK       I    between atoms: C_72  and  N_75 
REMARK       I    between atoms: C_76  and  N_78 
REMARK   42  A    between atoms: C_79  and  N_78 
REMARK   43  A    between atoms: C_79  and  C_80 
REMARK   44  A    between atoms: C_79  and  C_88 
REMARK   45  A    between atoms: C_80  and  C_81 
REMARK   46  A    between atoms: C_81  and  C_82 
REMARK   47  A    between atoms: C_82  and  N_83 
REMARK       I    between atoms: N_83  and  C_84 
REMARK       I    between atoms: C_84  and  N_87 
REMARK       I    between atoms: C_88  and  N_90 
REMARK   48  A    between atoms: C_91  and  N_90 
REMARK   49  A    between atoms: C_91  and  C_92 
REMARK   50  A    between atoms: C_91  and  C_100 
REMARK   51  A    between atoms: C_92  and  C_93 
REMARK   52  A    between atoms: C_93  and  C_94 
REMARK   53  A    between atoms: C_94  and  N_95 
REMARK       I    between atoms: N_95  and  C_96 
REMARK       I    between atoms: C_96  and  N_99 
REMARK   54  A    between atoms: C_100  and  O_102 
REMARK   55  A    between atoms: C_104  and  N_105 
REMARK       I    between atoms: N_105  and  C_106 
REMARK       I    between atoms: C_106  and  N_109 
ROOT
HETATM    1  C   UNK N   1      28.636  13.076   2.493  0.00  0.00     0.176 C 
ENDROOT
BRANCH   1   2
HETATM    2  N   UNK N   1      28.694  14.048   3.552  0.00  0.00    -0.346 N 
HETATM    3  C   UNK N   1      29.696  14.949   3.576  0.00  0.00     0.241 C 
HETATM    4  O   UNK N   1      30.585  14.900   2.743  0.00  0.00    -0.271 OA
HETATM    5  H   UNK N   1      28.006  14.054   4.256  0.00  0.00     0.163 HD
BRANCH   3   6
HETATM    6  C   UNK N   1      29.737  15.971   4.666  0.00  0.00     0.176 C 
BRANCH   6   7
HETATM    7  N   UNK N   1      30.625  17.005   4.213  0.00  0.00    -0.346 N 
HETATM    8  C   UNK N   1      31.868  17.178   4.715  0.00  0.00     0.241 C 
HETATM    9  O   UNK N   1      32.654  17.858   4.067  0.00  0.00    -0.271 OA
HETATM   10  H   UNK N   1      30.316  17.614   3.505  0.00  0.00     0.163 HD
BRANCH   8  11
HETATM   11  C   UNK N   1      32.341  16.663   6.081  0.00  0.00     0.176 C 
BRANCH  11  12
HETATM   12  N   UNK N   1      33.146  15.515   5.740  0.00  0.00    -0.346 N 
HETATM   13  C   UNK N   1      32.925  14.303   6.310  0.00  0.00     0.241 C 
HETATM   14  O   UNK N   1      31.802  13.986   6.680  0.00  0.00    -0.271 OA
HETATM   15  H   UNK N   1      33.871  15.614   5.081  0.00  0.00     0.163 HD
BRANCH  13  16
HETATM   16  C   UNK N   1      34.105  13.624   6.925  0.00  0.00     0.176 C 
BRANCH  16  17
HETATM   17  N   UNK N   1      35.043  14.539   7.517  0.00  0.00    -0.346 N 
HETATM   18  C   UNK N   1      35.237  14.669   8.850  0.00  0.00     0.240 C 
HETATM   19  O   UNK N   1      36.122  15.412   9.239  0.00  0.00    -0.271 OA
HETATM   20  H   UNK N   1      35.578  15.105   6.916  0.00  0.00     0.163 HD
BRANCH  18  21
HETATM   21  C   UNK N   1      34.414  13.931   9.882  0.00  0.00     0.167 C 
BRANCH  21  22
HETATM   22  C   UNK N   1      34.564  14.338  11.359  0.00  0.00     0.036 C 
BRANCH  22  23
HETATM   23  C   UNK N   1      34.956  13.241  12.348  0.00  0.00     0.023 C 
BRANCH  23  24
HETATM   24  C   UNK N   1      36.349  13.435  12.901  0.00  0.00     0.138 C 
BRANCH  24  25
HETATM   25  N   UNK N   1      37.183  13.979  11.861  0.00  0.00    -0.227 N 
HETATM   26  C   UNK N   1      37.957  13.152  11.013  0.00  0.00     0.665 C 
HETATM   27  N   UNK N   1      37.944  11.877  11.155  0.00  0.00    -0.235 N 
HETATM   28  N   UNK N   1      38.806  13.741  10.053  0.00  0.00    -0.235 N 
HETATM   29  H   UNK N   1      37.802  11.287  10.378  0.00  0.00     0.174 HD
ATOM     30  HN  UNK N   1      38.082  11.471  12.080  1.00  0.00     0.174 HD
HETATM   31  H   UNK N   1      39.410  14.514   9.975  0.00  0.00     0.174 HD
HETATM   32  H   UNK N   1      38.789  13.228   9.212  0.00  0.00     0.174 HD
HETATM   33  H   UNK N   1      37.215  14.954  11.737  0.00  0.00     0.177 HD
ENDBRANCH  24  25
ENDBRANCH  23  24
ENDBRANCH  22  23
ENDBRANCH  21  22
BRANCH  21  34
HETATM   34  N   UNK N   1      34.628  12.502   9.749  0.00  0.00    -0.418 N 
HETATM   35  H   UNK N   1      33.963  11.790  10.048  0.00  0.00     0.150 HD
HETATM   36  H   UNK N   1      35.502  12.189   9.329  0.00  0.00     0.150 HD
ENDBRANCH  21  34
ENDBRANCH  18  21
ENDBRANCH  16  17
BRANCH  16  37
HETATM   37  C   UNK N   1      34.829  12.767   5.881  0.00  0.00     0.036 C 
BRANCH  37  38
HETATM   38  C   UNK N   1      36.020  13.485   5.247  0.00  0.00     0.023 C 
BRANCH  38  39
HETATM   39  C   UNK N   1      35.837  13.548   3.751  0.00  0.00     0.138 C 
BRANCH  39  40
HETATM   40  N   UNK N   1      34.673  12.800   3.353  0.00  0.00    -0.227 N 
HETATM   41  C   UNK N   1      33.614  13.417   2.638  0.00  0.00     0.665 C 
HETATM   42  N   UNK N   1      33.686  14.653   2.304  0.00  0.00    -0.235 N 
HETATM   43  N   UNK N   1      32.430  12.696   2.384  0.00  0.00    -0.235 N 
HETATM   44  H   UNK N   1      33.169  15.366   1.863  0.00  0.00     0.174 HD
ATOM     45  HN  UNK N   1      34.588  15.027   2.597  1.00  0.00     0.174 HD
HETATM   46  H   UNK N   1      32.461  11.798   1.981  0.00  0.00     0.174 HD
HETATM   47  H   UNK N   1      31.560  13.096   2.613  0.00  0.00     0.174 HD
HETATM   48  H   UNK N   1      34.611  11.844   3.581  0.00  0.00     0.177 HD
ENDBRANCH  39  40
ENDBRANCH  38  39
ENDBRANCH  37  38
ENDBRANCH  16  37
ENDBRANCH  13  16
ENDBRANCH  11  12
BRANCH  11  49
HETATM   49  C   UNK N   1      33.136  17.620   6.992  0.00  0.00     0.036 C 
BRANCH  49  50
HETATM   50  C   UNK N   1      32.520  17.858   8.367  0.00  0.00     0.023 C 
BRANCH  50  51
HETATM   51  C   UNK N   1      31.417  16.874   8.745  0.00  0.00     0.138 C 
BRANCH  51  52
HETATM   52  N   UNK N   1      30.091  17.423   8.564  0.00  0.00    -0.227 N 
HETATM   53  C   UNK N   1      29.101  17.435   9.582  0.00  0.00     0.665 C 
HETATM   54  N   UNK N   1      29.319  16.883  10.719  0.00  0.00    -0.235 N 
HETATM   55  N   UNK N   1      27.883  18.111   9.357  0.00  0.00    -0.235 N 
HETATM   56  H   UNK N   1      28.976  17.104  11.615  0.00  0.00     0.174 HD
ATOM     57  HN  UNK N   1      29.952  16.085  10.690  1.00  0.00     0.174 HD
HETATM   58  H   UNK N   1      27.256  17.833   8.650  0.00  0.00     0.174 HD
HETATM   59  H   UNK N   1      27.653  18.882   9.923  0.00  0.00     0.174 HD
HETATM   60  H   UNK N   1      29.863  17.811   7.689  0.00  0.00     0.177 HD
ENDBRANCH  51  52
ENDBRANCH  50  51
ENDBRANCH  49  50
ENDBRANCH  11  49
ENDBRANCH   8  11
ENDBRANCH   6   7
BRANCH   6  61
HETATM   61  C   UNK N   1      28.336  16.513   4.951  0.00  0.00     0.036 C 
BRANCH  61  62
HETATM   62  C   UNK N   1      28.038  17.822   4.226  0.00  0.00     0.023 C 
BRANCH  62  63
HETATM   63  C   UNK N   1      28.452  19.045   5.019  0.00  0.00     0.138 C 
BRANCH  63  64
HETATM   64  N   UNK N   1      27.506  19.204   6.080  0.00  0.00    -0.227 N 
HETATM   65  C   UNK N   1      26.946  20.462   6.412  0.00  0.00     0.665 C 
HETATM   66  N   UNK N   1      27.154  21.486   5.671  0.00  0.00    -0.235 N 
HETATM   67  N   UNK N   1      26.294  20.620   7.651  0.00  0.00    -0.235 N 
HETATM   68  H   UNK N   1      26.576  22.262   5.492  0.00  0.00     0.174 HD
ATOM     69  HN  UNK N   1      28.056  21.500   5.195  1.00  0.00     0.174 HD
HETATM   70  H   UNK N   1      26.014  19.949   8.314  0.00  0.00     0.174 HD
HETATM   71  H   UNK N   1      26.086  21.552   7.892  0.00  0.00     0.174 HD
HETATM   72  H   UNK N   1      27.233  18.411   6.597  0.00  0.00     0.177 HD
ENDBRANCH  63  64
ENDBRANCH  62  63
ENDBRANCH  61  62
ENDBRANCH   6  61
ENDBRANCH   3   6
ENDBRANCH   1   2
BRANCH   1  73
HETATM   73  C   UNK N   1      28.944  11.704   3.065  0.00  0.00     0.036 C 
BRANCH  73  74
HETATM   74  C   UNK N   1      28.364  11.570   4.443  0.00  0.00     0.023 C 
BRANCH  74  75
HETATM   75  C   UNK N   1      27.776  10.183   4.612  0.00  0.00     0.138 C 
BRANCH  75  76
HETATM   76  N   UNK N   1      26.655  10.019   3.723  0.00  0.00    -0.227 N 
HETATM   77  C   UNK N   1      26.394   8.803   3.037  0.00  0.00     0.665 C 
HETATM   78  N   UNK N   1      27.175   7.793   3.168  0.00  0.00    -0.235 N 
HETATM   79  N   UNK N   1      25.285   8.717   2.170  0.00  0.00    -0.235 N 
HETATM   80  H   UNK N   1      27.356   6.851   2.947  0.00  0.00     0.174 HD
ATOM     81  HN  UNK N   1      27.945   8.101   3.761  1.00  0.00     0.174 HD
HETATM   82  H   UNK N   1      25.159   9.372   1.446  0.00  0.00     0.174 HD
HETATM   83  H   UNK N   1      24.629   7.995   2.292  0.00  0.00     0.174 HD
HETATM   84  H   UNK N   1      26.045  10.779   3.586  0.00  0.00     0.177 HD
ENDBRANCH  75  76
ENDBRANCH  74  75
ENDBRANCH  73  74
ENDBRANCH   1  73
BRANCH   1  85
HETATM   85  C   UNK N   1      27.247  13.011   2.004  0.00  0.00     0.241 C 
HETATM   86  O   UNK N   1      26.831  12.001   1.451  0.00  0.00    -0.271 OA
HETATM   87  N   UNK N   1      26.410  13.995   2.382  0.00  0.00    -0.346 N 
HETATM   88  H   UNK N   1      26.738  14.921   2.452  0.00  0.00     0.163 HD
BRANCH  87  89
HETATM   89  C   UNK N   1      25.057  13.698   2.676  0.00  0.00     0.176 C 
BRANCH  89  90
HETATM   90  C   UNK N   1      24.151  14.238   1.583  0.00  0.00     0.036 C 
BRANCH  90  91
HETATM   91  C   UNK N   1      22.741  13.779   1.825  0.00  0.00     0.023 C 
BRANCH  91  92
HETATM   92  C   UNK N   1      22.078  13.374   0.518  0.00  0.00     0.138 C 
BRANCH  92  93
HETATM   93  N   UNK N   1      20.659  13.497   0.687  0.00  0.00    -0.227 N 
HETATM   94  C   UNK N   1      19.812  12.375   0.529  0.00  0.00     0.665 C 
HETATM   95  N   UNK N   1      20.291  11.187   0.557  0.00  0.00    -0.235 N 
HETATM   96  N   UNK N   1      18.476  12.573   0.143  0.00  0.00    -0.235 N 
HETATM   97  H   UNK N   1      19.738  10.440   0.880  0.00  0.00     0.174 HD
ATOM     98  HN  UNK N   1      21.248  11.016   0.244  1.00  0.00     0.174 HD
HETATM   99  H   UNK N   1      18.062  13.285  -0.396  0.00  0.00     0.174 HD
HETATM  100  H   UNK N   1      17.849  11.885   0.465  0.00  0.00     0.174 HD
HETATM  101  H   UNK N   1      20.270  14.372   0.915  0.00  0.00     0.177 HD
ENDBRANCH  92  93
ENDBRANCH  91  92
ENDBRANCH  90  91
ENDBRANCH  89  90
BRANCH  89 102
HETATM  102  C   UNK N   1      24.806  14.434   3.936  0.00  0.00     0.241 C 
HETATM  103  O   UNK N   1      25.134  15.609   4.025  0.00  0.00    -0.271 OA
HETATM  104  N   UNK N   1      23.988  13.882   4.860  0.00  0.00    -0.346 N 
HETATM  105  H   UNK N   1      23.028  13.804   4.660  0.00  0.00     0.163 HD
BRANCH 104 106
HETATM  106  C   UNK N   1      24.477  13.402   6.127  0.00  0.00     0.176 C 
BRANCH 106 107
HETATM  107  C   UNK N   1      24.639  11.877   6.125  0.00  0.00     0.036 C 
BRANCH 107 108
HETATM  108  C   UNK N   1      23.390  11.061   6.461  0.00  0.00     0.023 C 
BRANCH 108 109
HETATM  109  C   UNK N   1      23.693   9.738   7.139  0.00  0.00     0.138 C 
BRANCH 109 110
HETATM  110  N   UNK N   1      23.413   8.630   6.263  0.00  0.00    -0.227 N 
HETATM  111  C   UNK N   1      24.415   7.678   5.944  0.00  0.00     0.665 C 
HETATM  112  N   UNK N   1      25.590   7.772   6.450  0.00  0.00    -0.235 N 
HETATM  113  N   UNK N   1      24.109   6.606   5.081  0.00  0.00    -0.235 N 
HETATM  114  H   UNK N   1      26.506   7.517   6.707  0.00  0.00     0.174 HD
ATOM    115  HN  UNK N   1      25.551   8.717   6.830  1.00  0.00     0.174 HD
HETATM  116  H   UNK N   1      23.370   5.969   5.215  0.00  0.00     0.174 HD
HETATM  117  H   UNK N   1      24.677   6.485   4.284  0.00  0.00     0.174 HD
HETATM  118  H   UNK N   1      22.512   8.532   5.879  0.00  0.00     0.177 HD
ENDBRANCH 109 110
ENDBRANCH 108 109
ENDBRANCH 107 108
ENDBRANCH 106 107
BRANCH 106 119
HETATM  119  C   UNK N   1      23.720  13.953   7.305  0.00  0.00     0.241 C 
HETATM  120  O   UNK N   1      24.164  13.795   8.432  0.00  0.00    -0.271 OA
HETATM  121  N   UNK N   1      22.516  14.559   7.095  0.00  0.00    -0.346 N 
HETATM  122  H   UNK N   1      22.350  14.923   6.196  0.00  0.00     0.163 HD
BRANCH 121 123
HETATM  123  C   UNK N   1      21.464  14.713   8.070  0.00  0.00     0.176 C 
BRANCH 123 124
HETATM  124  C   UNK N   1      20.978  13.423   8.721  0.00  0.00     0.036 C 
BRANCH 124 125
HETATM  125  C   UNK N   1      20.612  13.452  10.194  0.00  0.00     0.023 C 
BRANCH 125 126
HETATM  126  C   UNK N   1      21.298  12.263  10.874  0.00  0.00     0.138 C 
BRANCH 126 127
HETATM  127  N   UNK N   1      22.704  12.232  10.529  0.00  0.00    -0.227 N 
HETATM  128  C   UNK N   1      23.746  12.249  11.488  0.00  0.00     0.665 C 
HETATM  129  N   UNK N   1      23.488  12.114  12.735  0.00  0.00    -0.235 N 
HETATM  130  N   UNK N   1      25.086  12.336  11.055  0.00  0.00    -0.235 N 
HETATM  131  H   UNK N   1      23.808  11.328  13.235  0.00  0.00     0.174 HD
ATOM    132  HN  UNK N   1      22.944  12.829  13.216  1.00  0.00     0.174 HD
HETATM  133  H   UNK N   1      25.715  12.852  10.502  0.00  0.00     0.174 HD
HETATM  134  H   UNK N   1      25.584  11.592  11.466  0.00  0.00     0.174 HD
HETATM  135  H   UNK N   1      22.949  12.198   9.576  0.00  0.00     0.177 HD
ENDBRANCH 126 127
ENDBRANCH 125 126
ENDBRANCH 124 125
ENDBRANCH 123 124
BRANCH 123 136
HETATM  136  C   UNK N   1      20.309  15.253   7.306  0.00  0.00     0.241 C 
HETATM  137  O   UNK N   1      19.331  15.690   7.890  0.00  0.00    -0.271 OA
HETATM  138  N   UNK N   1      20.393  15.251   5.947  0.00  0.00    -0.345 N 
HETATM  139  H   UNK N   1      21.263  14.993   5.564  0.00  0.00     0.163 HD
BRANCH 138 140
HETATM  140  C   UNK N   1      19.356  15.583   5.006  0.00  0.00     0.182 C 
BRANCH 140 141
HETATM  141  C   UNK N   1      19.774  16.795   4.176  0.00  0.00     0.038 C 
BRANCH 141 142
HETATM  142  C   UNK N   1      21.277  17.079   4.236  0.00  0.00     0.023 C 
BRANCH 142 143
HETATM  143  C   UNK N   1      21.567  18.508   4.669  0.00  0.00     0.138 C 
BRANCH 143 144
HETATM  144  N   UNK N   1      22.626  19.071   3.867  0.00  0.00    -0.227 N 
HETATM  145  C   UNK N   1      23.996  18.905   4.196  0.00  0.00     0.665 C 
HETATM  146  N   UNK N   1      24.890  19.465   3.474  0.00  0.00    -0.235 N 
HETATM  147  N   UNK N   1      24.381  18.184   5.352  0.00  0.00    -0.235 N 
HETATM  148  H   UNK N   1      24.725  20.267   2.929  0.00  0.00     0.174 HD
ATOM    149  HN  UNK N   1      25.826  19.058   3.464  1.00  0.00     0.174 HD
HETATM  150  H   UNK N   1      25.297  17.834   5.436  0.00  0.00     0.174 HD
HETATM  151  H   UNK N   1      23.730  18.033   6.074  0.00  0.00     0.174 HD
HETATM  152  H   UNK N   1      22.389  19.589   3.063  0.00  0.00     0.177 HD
ENDBRANCH 143 144
ENDBRANCH 142 143
ENDBRANCH 141 142
ENDBRANCH 140 141
BRANCH 140 153
HETATM  153  C   UNK N   1      18.797  14.404   4.266  0.00  0.00     0.163 C 
HETATM  154  O   UNK N   1      18.259  13.490   4.869  0.00  0.00    -0.648 OA
BRANCH 153 155
HETATM  155  O   UNK N   1      18.915  14.342   2.926  0.00  0.00    -0.775 OA
HETATM  156  H   UNK N   1      19.565  14.851   2.484  0.00  0.00     0.167 HD
ENDBRANCH 153 155
ENDBRANCH 140 153
ENDBRANCH 138 140
ENDBRANCH 123 136
ENDBRANCH 121 123
ENDBRANCH 106 119
ENDBRANCH 104 106
ENDBRANCH  89 102
ENDBRANCH  87  89
ENDBRANCH   1  85
TORSDOF 55
ENDMDL
