MODEL 1
REMARK VINA RESULT:      -7.0      0.000      0.000
REMARK  7 active torsions:
REMARK  status: ('A' for Active; 'I' for Inactive)
REMARK    1  A    between atoms: C_2  and  C_3 
REMARK    2  A    between atoms: C_3  and  C_5 
REMARK    3  A    between atoms: C_3  and  N_13 
REMARK       I    between atoms: C_5  and  N_7 
REMARK    4  A    between atoms: N_7  and  C_8 
REMARK    5  A    between atoms: C_8  and  C_9 
REMARK    6  A    between atoms: N_13  and  C_14 
REMARK    7  A    between atoms: C_19  and  C_22 
ROOT
HETATM    1  C   UNK N   1      31.651  16.066   5.172  0.00  0.00     0.104 A 
HETATM    2  C   UNK N   1      32.551  16.316   4.131  0.00  0.00     0.065 A 
HETATM    3  C   UNK N   1      32.051  16.821   2.931  0.00  0.00     0.093 A 
HETATM    4  N   UNK N   1      30.719  17.052   2.793  0.00  0.00    -0.351 N 
ATOM      5  HN  UNK N   1      30.359  17.419   1.913  1.00  0.00     0.166 HD
HETATM    6  C   UNK N   1      29.859  16.799   3.820  0.00  0.00     0.119 A 
HETATM    7  N   UNK N   1      30.334  16.320   4.991  0.00  0.00    -0.328 N 
ATOM      8  HN  UNK N   1      29.685  16.145   5.757  1.00  0.00     0.169 HD
ENDROOT
BRANCH   1   9
HETATM    9  N   UNK N   1      32.050  15.501   6.404  0.00  0.00    -0.359 N 
HETATM   10  H   UNK N   1      31.786  14.566   6.560  0.00  0.00     0.162 HD
BRANCH   9  11
HETATM   11  C   UNK N   1      32.802  16.141   7.466  0.00  0.00     0.108 C 
HETATM   12  C   UNK N   1      34.178  15.507   7.385  0.00  0.00     0.049 C 
BRANCH  11  13
HETATM   13  C   UNK N   1      32.988  17.642   7.170  0.00  0.00     0.036 C 
HETATM   14  C   UNK N   1      34.109  18.314   7.954  0.00  0.00     0.008 C 
ENDBRANCH  11  13
BRANCH  11  15
HETATM   15  C   UNK N   1      32.236  15.901   8.864  0.00  0.00     0.245 C 
HETATM   16  O   UNK N   1      32.877  15.250   9.675  0.00  0.00    -0.271 OA
HETATM   17  N   UNK N   1      31.032  16.412   9.243  0.00  0.00    -0.350 N 
HETATM   18  H   UNK N   1      30.696  16.205  10.145  0.00  0.00     0.162 HD
BRANCH  17  19
HETATM   19  C   UNK N   1      30.218  17.246   8.382  0.00  0.00     0.240 C 
BRANCH  19  20
HETATM   20  C   UNK N   1      29.797  18.512   9.116  0.00  0.00     0.403 C 
HETATM   21  F   UNK N   1      28.664  19.034   8.523  0.00  0.00    -0.169 F 
HETATM   22  F   UNK N   1      30.807  19.457   9.065  0.00  0.00    -0.169 F 
HETATM   23  F   UNK N   1      29.522  18.207  10.435  0.00  0.00    -0.169 F 
ENDBRANCH  19  20
ENDBRANCH  17  19
ENDBRANCH  11  15
ENDBRANCH   9  11
ENDBRANCH   1   9
BRANCH   6  24
HETATM   24  C   UNK N   1      28.431  17.098   3.689  0.00  0.00     0.037 A 
HETATM   25  C   UNK N   1      27.449  16.252   3.166  0.00  0.00     0.106 A 
HETATM   26  N   UNK N   1      26.233  16.845   3.281  0.00  0.00    -0.351 N 
HETATM   27  C   UNK N   1      26.461  18.035   3.872  0.00  0.00     0.116 A 
HETATM   28  H   UNK N   1      25.365  16.481   2.994  0.00  0.00     0.166 HD
HETATM   29  C   UNK N   1      27.784  18.220   4.121  0.00  0.00     0.023 A 
HETATM   30  N   UNK N   1      25.524  18.943   4.223  0.00  0.00    -0.352 N 
HETATM   31  C   UNK N   1      28.247  19.373   4.747  0.00  0.00     0.017 A 
HETATM   32  C   UNK N   1      27.291  20.332   5.112  0.00  0.00     0.018 A 
HETATM   33  C   UNK N   1      25.922  20.096   4.846  0.00  0.00     0.090 A 
ATOM     34  HN  UNK N   1      24.537  18.773   4.027  1.00  0.00     0.166 HD
ENDBRANCH   6  24
TORSDOF 7
ENDMDL
MODEL 2
REMARK VINA RESULT:      -7.0      5.119      7.284
REMARK  7 active torsions:
REMARK  status: ('A' for Active; 'I' for Inactive)
REMARK    1  A    between atoms: C_2  and  C_3 
REMARK    2  A    between atoms: C_3  and  C_5 
REMARK    3  A    between atoms: C_3  and  N_13 
REMARK       I    between atoms: C_5  and  N_7 
REMARK    4  A    between atoms: N_7  and  C_8 
REMARK    5  A    between atoms: C_8  and  C_9 
REMARK    6  A    between atoms: N_13  and  C_14 
REMARK    7  A    between atoms: C_19  and  C_22 
ROOT
HETATM    1  C   UNK N   1      34.392  15.124  10.831  0.00  0.00     0.104 A 
HETATM    2  C   UNK N   1      35.364  16.109  11.031  0.00  0.00     0.065 A 
HETATM    3  C   UNK N   1      35.284  17.281  10.280  0.00  0.00     0.093 A 
HETATM    4  N   UNK N   1      34.282  17.441   9.377  0.00  0.00    -0.351 N 
ATOM      5  HN  UNK N   1      34.229  18.299   8.829  1.00  0.00     0.166 HD
HETATM    6  C   UNK N   1      33.345  16.468   9.196  0.00  0.00     0.119 A 
HETATM    7  N   UNK N   1      33.408  15.332   9.926  0.00  0.00    -0.328 N 
ATOM      8  HN  UNK N   1      32.696  14.615   9.791  1.00  0.00     0.169 HD
ENDROOT
BRANCH   1   9
HETATM    9  N   UNK N   1      34.419  13.879  11.499  0.00  0.00    -0.359 N 
HETATM   10  H   UNK N   1      33.708  13.726  12.162  0.00  0.00     0.162 HD
BRANCH   9  11
HETATM   11  C   UNK N   1      35.373  12.801  11.322  0.00  0.00     0.108 C 
HETATM   12  C   UNK N   1      34.862  11.696  12.227  0.00  0.00     0.049 C 
BRANCH  11  13
HETATM   13  C   UNK N   1      35.313  12.257   9.881  0.00  0.00     0.036 C 
HETATM   14  C   UNK N   1      33.972  11.654   9.481  0.00  0.00     0.008 C 
ENDBRANCH  11  13
BRANCH  11  15
HETATM   15  C   UNK N   1      36.798  13.153  11.740  0.00  0.00     0.245 C 
HETATM   16  O   UNK N   1      37.718  13.003  10.951  0.00  0.00    -0.271 OA
HETATM   17  N   UNK N   1      37.075  13.653  12.977  0.00  0.00    -0.350 N 
HETATM   18  H   UNK N   1      38.013  13.837  13.210  0.00  0.00     0.162 HD
BRANCH  17  19
HETATM   19  C   UNK N   1      36.055  13.926  13.968  0.00  0.00     0.240 C 
BRANCH  19  20
HETATM   20  C   UNK N   1      36.580  13.623  15.365  0.00  0.00     0.403 C 
HETATM   21  F   UNK N   1      37.492  14.593  15.736  0.00  0.00    -0.169 F 
HETATM   22  F   UNK N   1      37.205  12.388  15.387  0.00  0.00    -0.169 F 
HETATM   23  F   UNK N   1      35.529  13.620  16.260  0.00  0.00    -0.169 F 
ENDBRANCH  19  20
ENDBRANCH  17  19
ENDBRANCH  11  15
ENDBRANCH   9  11
ENDBRANCH   1   9
BRANCH   6  24
HETATM   24  C   UNK N   1      32.236  16.663   8.260  0.00  0.00     0.037 A 
HETATM   25  C   UNK N   1      30.874  16.683   8.577  0.00  0.00     0.106 A 
HETATM   26  N   UNK N   1      30.154  16.966   7.461  0.00  0.00    -0.351 N 
HETATM   27  C   UNK N   1      31.057  17.125   6.474  0.00  0.00     0.116 A 
HETATM   28  H   UNK N   1      29.175  17.041   7.389  0.00  0.00     0.166 HD
HETATM   29  C   UNK N   1      32.325  16.937   6.926  0.00  0.00     0.023 A 
HETATM   30  N   UNK N   1      30.787  17.463   5.194  0.00  0.00    -0.352 N 
HETATM   31  C   UNK N   1      33.421  17.073   6.079  0.00  0.00     0.017 A 
HETATM   32  C   UNK N   1      33.162  17.415   4.745  0.00  0.00     0.018 A 
HETATM   33  C   UNK N   1      31.828  17.614   4.317  0.00  0.00     0.090 A 
ATOM     34  HN  UNK N   1      29.824  17.602   4.886  1.00  0.00     0.166 HD
ENDBRANCH   6  24
TORSDOF 7
ENDMDL
MODEL 3
REMARK VINA RESULT:      -6.9      5.137      7.130
REMARK  7 active torsions:
REMARK  status: ('A' for Active; 'I' for Inactive)
REMARK    1  A    between atoms: C_2  and  C_3 
REMARK    2  A    between atoms: C_3  and  C_5 
REMARK    3  A    between atoms: C_3  and  N_13 
REMARK       I    between atoms: C_5  and  N_7 
REMARK    4  A    between atoms: N_7  and  C_8 
REMARK    5  A    between atoms: C_8  and  C_9 
REMARK    6  A    between atoms: N_13  and  C_14 
REMARK    7  A    between atoms: C_19  and  C_22 
ROOT
HETATM    1  C   UNK N   1      34.320  15.045  10.855  0.00  0.00     0.104 A 
HETATM    2  C   UNK N   1      35.224  16.102  11.007  0.00  0.00     0.065 A 
HETATM    3  C   UNK N   1      35.082  17.218  10.183  0.00  0.00     0.093 A 
HETATM    4  N   UNK N   1      34.087  17.257   9.258  0.00  0.00    -0.351 N 
ATOM      5  HN  UNK N   1      33.988  18.075   8.657  1.00  0.00     0.166 HD
HETATM    6  C   UNK N   1      33.217  16.216   9.126  0.00  0.00     0.119 A 
HETATM    7  N   UNK N   1      33.340  15.133   9.927  0.00  0.00    -0.328 N 
ATOM      8  HN  UNK N   1      32.678  14.365   9.828  1.00  0.00     0.169 HD
ENDROOT
BRANCH   1   9
HETATM    9  N   UNK N   1      34.415  13.849  11.601  0.00  0.00    -0.359 N 
HETATM   10  H   UNK N   1      33.755  13.731  12.321  0.00  0.00     0.162 HD
BRANCH   9  11
HETATM   11  C   UNK N   1      35.372  12.773  11.427  0.00  0.00     0.108 C 
HETATM   12  C   UNK N   1      34.885  11.683  12.364  0.00  0.00     0.049 C 
BRANCH  11  13
HETATM   13  C   UNK N   1      35.289  12.200   9.999  0.00  0.00     0.036 C 
HETATM   14  C   UNK N   1      34.124  11.246   9.760  0.00  0.00     0.008 C 
ENDBRANCH  11  13
BRANCH  11  15
HETATM   15  C   UNK N   1      36.803  13.142  11.811  0.00  0.00     0.245 C 
HETATM   16  O   UNK N   1      37.713  12.947  11.022  0.00  0.00    -0.271 OA
HETATM   17  N   UNK N   1      37.094  13.706  13.017  0.00  0.00    -0.350 N 
HETATM   18  H   UNK N   1      38.035  13.898  13.230  0.00  0.00     0.162 HD
BRANCH  17  19
HETATM   19  C   UNK N   1      36.085  14.035  14.003  0.00  0.00     0.240 C 
BRANCH  19  20
HETATM   20  C   UNK N   1      36.581  13.693  15.401  0.00  0.00     0.403 C 
HETATM   21  F   UNK N   1      37.191  12.454  15.385  0.00  0.00    -0.169 F 
HETATM   22  F   UNK N   1      35.523  13.661  16.293  0.00  0.00    -0.169 F 
HETATM   23  F   UNK N   1      37.495  14.645  15.809  0.00  0.00    -0.169 F 
ENDBRANCH  19  20
ENDBRANCH  17  19
ENDBRANCH  11  15
ENDBRANCH   9  11
ENDBRANCH   1   9
BRANCH   6  24
HETATM   24  C   UNK N   1      32.114  16.281   8.166  0.00  0.00     0.037 A 
HETATM   25  C   UNK N   1      31.929  15.455   7.053  0.00  0.00     0.106 A 
HETATM   26  N   UNK N   1      30.754  15.767   6.448  0.00  0.00    -0.351 N 
HETATM   27  C   UNK N   1      30.220  16.765   7.180  0.00  0.00     0.116 A 
HETATM   28  H   UNK N   1      30.372  15.349   5.643  0.00  0.00     0.166 HD
HETATM   29  C   UNK N   1      31.026  17.104   8.220  0.00  0.00     0.023 A 
HETATM   30  N   UNK N   1      29.024  17.357   6.965  0.00  0.00    -0.352 N 
HETATM   31  C   UNK N   1      30.661  18.100   9.120  0.00  0.00     0.017 A 
HETATM   32  C   UNK N   1      29.428  18.733   8.912  0.00  0.00     0.018 A 
HETATM   33  C   UNK N   1      28.612  18.341   7.825  0.00  0.00     0.090 A 
ATOM     34  HN  UNK N   1      28.439  17.076   6.179  1.00  0.00     0.166 HD
ENDBRANCH   6  24
TORSDOF 7
ENDMDL
MODEL 4
REMARK VINA RESULT:      -6.8      3.007      7.228
REMARK  7 active torsions:
REMARK  status: ('A' for Active; 'I' for Inactive)
REMARK    1  A    between atoms: C_2  and  C_3 
REMARK    2  A    between atoms: C_3  and  C_5 
REMARK    3  A    between atoms: C_3  and  N_13 
REMARK       I    between atoms: C_5  and  N_7 
REMARK    4  A    between atoms: N_7  and  C_8 
REMARK    5  A    between atoms: C_8  and  C_9 
REMARK    6  A    between atoms: N_13  and  C_14 
REMARK    7  A    between atoms: C_19  and  C_22 
ROOT
HETATM    1  C   UNK N   1      28.939  17.408   7.159  0.00  0.00     0.104 A 
HETATM    2  C   UNK N   1      28.282  18.073   8.199  0.00  0.00     0.065 A 
HETATM    3  C   UNK N   1      29.029  18.474   9.305  0.00  0.00     0.093 A 
HETATM    4  N   UNK N   1      30.362  18.210   9.356  0.00  0.00    -0.351 N 
ATOM      5  HN  UNK N   1      30.903  18.504  10.169  1.00  0.00     0.166 HD
HETATM    6  C   UNK N   1      30.982  17.559   8.332  0.00  0.00     0.119 A 
HETATM    7  N   UNK N   1      30.269  17.176   7.250  0.00  0.00    -0.328 N 
ATOM      8  HN  UNK N   1      30.744  16.700   6.484  1.00  0.00     0.169 HD
ENDROOT
BRANCH   1   9
HETATM    9  N   UNK N   1      28.261  16.912   6.022  0.00  0.00    -0.359 N 
HETATM   10  H   UNK N   1      27.821  16.038   6.125  0.00  0.00     0.162 HD
BRANCH   9  11
HETATM   11  C   UNK N   1      28.137  17.543   4.723  0.00  0.00     0.108 C 
HETATM   12  C   UNK N   1      26.646  17.530   4.440  0.00  0.00     0.049 C 
BRANCH  11  13
HETATM   13  C   UNK N   1      28.561  19.023   4.796  0.00  0.00     0.036 C 
HETATM   14  C   UNK N   1      27.469  20.020   4.426  0.00  0.00     0.008 C 
ENDBRANCH  11  13
BRANCH  11  15
HETATM   15  C   UNK N   1      28.853  16.800   3.597  0.00  0.00     0.245 C 
HETATM   16  O   UNK N   1      28.210  16.121   2.812  0.00  0.00    -0.271 OA
HETATM   17  N   UNK N   1      30.202  16.888   3.431  0.00  0.00    -0.350 N 
HETATM   18  H   UNK N   1      30.621  16.367   2.709  0.00  0.00     0.162 HD
BRANCH  17  19
HETATM   19  C   UNK N   1      31.052  17.711   4.267  0.00  0.00     0.240 C 
BRANCH  19  20
HETATM   20  C   UNK N   1      32.460  17.134   4.319  0.00  0.00     0.403 C 
HETATM   21  F   UNK N   1      32.466  16.001   5.110  0.00  0.00    -0.169 F 
HETATM   22  F   UNK N   1      33.340  18.059   4.854  0.00  0.00    -0.169 F 
HETATM   23  F   UNK N   1      32.867  16.800   3.042  0.00  0.00    -0.169 F 
ENDBRANCH  19  20
ENDBRANCH  17  19
ENDBRANCH  11  15
ENDBRANCH   9  11
ENDBRANCH   1   9
BRANCH   6  24
HETATM   24  C   UNK N   1      32.427  17.322   8.364  0.00  0.00     0.037 A 
HETATM   25  C   UNK N   1      33.431  18.280   8.193  0.00  0.00     0.106 A 
HETATM   26  N   UNK N   1      34.645  17.698   8.366  0.00  0.00    -0.351 N 
HETATM   27  C   UNK N   1      34.394  16.404   8.645  0.00  0.00     0.116 A 
HETATM   28  H   UNK N   1      35.527  18.132   8.301  0.00  0.00     0.166 HD
HETATM   29  C   UNK N   1      33.060  16.145   8.641  0.00  0.00     0.023 A 
HETATM   30  N   UNK N   1      35.315  15.458   8.935  0.00  0.00    -0.352 N 
HETATM   31  C   UNK N   1      32.571  14.874   8.925  0.00  0.00     0.017 A 
HETATM   32  C   UNK N   1      33.510  13.876   9.221  0.00  0.00     0.018 A 
HETATM   33  C   UNK N   1      34.889  14.189   9.227  0.00  0.00     0.090 A 
ATOM     34  HN  UNK N   1      36.310  15.685   8.936  1.00  0.00     0.166 HD
ENDBRANCH   6  24
TORSDOF 7
ENDMDL
MODEL 5
REMARK VINA RESULT:      -6.8      2.531      3.996
REMARK  7 active torsions:
REMARK  status: ('A' for Active; 'I' for Inactive)
REMARK    1  A    between atoms: C_2  and  C_3 
REMARK    2  A    between atoms: C_3  and  C_5 
REMARK    3  A    between atoms: C_3  and  N_13 
REMARK       I    between atoms: C_5  and  N_7 
REMARK    4  A    between atoms: N_7  and  C_8 
REMARK    5  A    between atoms: C_8  and  C_9 
REMARK    6  A    between atoms: N_13  and  C_14 
REMARK    7  A    between atoms: C_19  and  C_22 
ROOT
HETATM    1  C   UNK N   1      30.403  17.625   8.609  0.00  0.00     0.104 A 
HETATM    2  C   UNK N   1      29.684  17.395   9.786  0.00  0.00     0.065 A 
HETATM    3  C   UNK N   1      28.305  17.215   9.695  0.00  0.00     0.093 A 
HETATM    4  N   UNK N   1      27.691  17.269   8.483  0.00  0.00    -0.351 N 
ATOM      5  HN  UNK N   1      26.682  17.138   8.423  1.00  0.00     0.166 HD
HETATM    6  C   UNK N   1      28.411  17.496   7.348  0.00  0.00     0.119 A 
HETATM    7  N   UNK N   1      29.750  17.663   7.425  0.00  0.00    -0.328 N 
ATOM      8  HN  UNK N   1      30.281  17.820   6.569  1.00  0.00     0.169 HD
ENDROOT
BRANCH   1   9
HETATM    9  N   UNK N   1      31.794  17.877   8.602  0.00  0.00    -0.359 N 
HETATM   10  H   UNK N   1      32.083  18.734   8.990  0.00  0.00     0.162 HD
BRANCH   9  11
HETATM   11  C   UNK N   1      32.844  17.019   8.089  0.00  0.00     0.108 C 
HETATM   12  C   UNK N   1      33.815  16.882   9.247  0.00  0.00     0.049 C 
BRANCH  11  13
HETATM   13  C   UNK N   1      32.298  15.608   7.799  0.00  0.00     0.036 C 
HETATM   14  C   UNK N   1      32.547  14.587   8.902  0.00  0.00     0.008 C 
ENDBRANCH  11  13
BRANCH  11  15
HETATM   15  C   UNK N   1      33.594  17.598   6.891  0.00  0.00     0.245 C 
HETATM   16  O   UNK N   1      34.597  18.271   7.069  0.00  0.00    -0.271 OA
HETATM   17  N   UNK N   1      33.180  17.367   5.613  0.00  0.00    -0.350 N 
HETATM   18  H   UNK N   1      33.680  17.786   4.876  0.00  0.00     0.162 HD
BRANCH  17  19
HETATM   19  C   UNK N   1      32.041  16.536   5.286  0.00  0.00     0.240 C 
BRANCH  19  20
HETATM   20  C   UNK N   1      31.280  17.123   4.105  0.00  0.00     0.403 C 
HETATM   21  F   UNK N   1      32.171  17.476   3.111  0.00  0.00    -0.169 F 
HETATM   22  F   UNK N   1      30.576  18.249   4.498  0.00  0.00    -0.169 F 
HETATM   23  F   UNK N   1      30.398  16.181   3.613  0.00  0.00    -0.169 F 
ENDBRANCH  19  20
ENDBRANCH  17  19
ENDBRANCH  11  15
ENDBRANCH   9  11
ENDBRANCH   1   9
BRANCH   6  24
HETATM   24  C   UNK N   1      27.757  17.503   6.038  0.00  0.00     0.037 A 
HETATM   25  C   UNK N   1      27.406  16.384   5.278  0.00  0.00     0.106 A 
HETATM   26  N   UNK N   1      26.749  16.784   4.159  0.00  0.00    -0.351 N 
HETATM   27  C   UNK N   1      26.691  18.129   4.231  0.00  0.00     0.116 A 
HETATM   28  H   UNK N   1      26.390  16.211   3.444  0.00  0.00     0.166 HD
HETATM   29  C   UNK N   1      27.302  18.592   5.353  0.00  0.00     0.023 A 
HETATM   30  N   UNK N   1      26.082  18.948   3.346  0.00  0.00    -0.352 N 
HETATM   31  C   UNK N   1      27.343  19.952   5.643  0.00  0.00     0.017 A 
HETATM   32  C   UNK N   1      26.724  20.821   4.733  0.00  0.00     0.018 A 
HETATM   33  C   UNK N   1      26.087  20.297   3.583  0.00  0.00     0.090 A 
ATOM     34  HN  UNK N   1      25.627  18.569   2.516  1.00  0.00     0.166 HD
ENDBRANCH   6  24
TORSDOF 7
ENDMDL
MODEL 6
REMARK VINA RESULT:      -6.8      3.042      4.091
REMARK  7 active torsions:
REMARK  status: ('A' for Active; 'I' for Inactive)
REMARK    1  A    between atoms: C_2  and  C_3 
REMARK    2  A    between atoms: C_3  and  C_5 
REMARK    3  A    between atoms: C_3  and  N_13 
REMARK       I    between atoms: C_5  and  N_7 
REMARK    4  A    between atoms: N_7  and  C_8 
REMARK    5  A    between atoms: C_8  and  C_9 
REMARK    6  A    between atoms: N_13  and  C_14 
REMARK    7  A    between atoms: C_19  and  C_22 
ROOT
HETATM    1  C   UNK N   1      31.294  17.167   7.977  0.00  0.00     0.104 A 
HETATM    2  C   UNK N   1      31.156  18.093   9.016  0.00  0.00     0.065 A 
HETATM    3  C   UNK N   1      29.952  18.786   9.130  0.00  0.00     0.093 A 
HETATM    4  N   UNK N   1      28.951  18.558   8.240  0.00  0.00    -0.351 N 
ATOM      5  HN  UNK N   1      28.073  19.069   8.326  1.00  0.00     0.166 HD
HETATM    6  C   UNK N   1      29.106  17.653   7.233  0.00  0.00     0.119 A 
HETATM    7  N   UNK N   1      30.266  16.968   7.120  0.00  0.00    -0.328 N 
ATOM      8  HN  UNK N   1      30.368  16.284   6.371  1.00  0.00     0.169 HD
ENDROOT
BRANCH   1   9
HETATM    9  N   UNK N   1      32.493  16.457   7.743  0.00  0.00    -0.359 N 
HETATM   10  H   UNK N   1      32.449  15.480   7.851  0.00  0.00     0.162 HD
BRANCH   9  11
HETATM   11  C   UNK N   1      33.782  17.001   7.360  0.00  0.00     0.108 C 
HETATM   12  C   UNK N   1      34.636  15.779   7.078  0.00  0.00     0.049 C 
BRANCH  11  13
HETATM   13  C   UNK N   1      33.669  17.779   6.035  0.00  0.00     0.036 C 
HETATM   14  C   UNK N   1      33.231  16.944   4.838  0.00  0.00     0.008 C 
ENDBRANCH  11  13
BRANCH  11  15
HETATM   15  C   UNK N   1      34.459  17.828   8.451  0.00  0.00     0.245 C 
HETATM   16  O   UNK N   1      34.789  18.981   8.223  0.00  0.00    -0.271 OA
HETATM   17  N   UNK N   1      34.693  17.315   9.691  0.00  0.00    -0.350 N 
HETATM   18  H   UNK N   1      35.159  17.877  10.351  0.00  0.00     0.162 HD
BRANCH  17  19
HETATM   19  C   UNK N   1      34.290  15.981  10.087  0.00  0.00     0.240 C 
BRANCH  19  20
HETATM   20  C   UNK N   1      35.430  15.276  10.809  0.00  0.00     0.403 C 
HETATM   21  F   UNK N   1      36.481  16.157  10.982  0.00  0.00    -0.169 F 
HETATM   22  F   UNK N   1      35.870  14.192  10.071  0.00  0.00    -0.169 F 
HETATM   23  F   UNK N   1      34.992  14.842  12.045  0.00  0.00    -0.169 F 
ENDBRANCH  19  20
ENDBRANCH  17  19
ENDBRANCH  11  15
ENDBRANCH   9  11
ENDBRANCH   1   9
BRANCH   6  24
HETATM   24  C   UNK N   1      28.008  17.370   6.307  0.00  0.00     0.037 A 
HETATM   25  C   UNK N   1      27.219  16.216   6.279  0.00  0.00     0.106 A 
HETATM   26  N   UNK N   1      26.255  16.349   5.333  0.00  0.00    -0.351 N 
HETATM   27  C   UNK N   1      26.442  17.568   4.790  0.00  0.00     0.116 A 
HETATM   28  H   UNK N   1      25.562  15.692   5.094  0.00  0.00     0.166 HD
HETATM   29  C   UNK N   1      27.503  18.205   5.352  0.00  0.00     0.023 A 
HETATM   30  N   UNK N   1      25.677  18.140   3.834  0.00  0.00    -0.352 N 
HETATM   31  C   UNK N   1      27.867  19.488   4.957  0.00  0.00     0.017 A 
HETATM   32  C   UNK N   1      27.091  20.097   3.961  0.00  0.00     0.018 A 
HETATM   33  C   UNK N   1      25.987  19.406   3.410  0.00  0.00     0.090 A 
ATOM     34  HN  UNK N   1      24.883  17.639   3.435  1.00  0.00     0.166 HD
ENDBRANCH   6  24
TORSDOF 7
ENDMDL
MODEL 7
REMARK VINA RESULT:      -6.7      2.521      4.385
REMARK  7 active torsions:
REMARK  status: ('A' for Active; 'I' for Inactive)
REMARK    1  A    between atoms: C_2  and  C_3 
REMARK    2  A    between atoms: C_3  and  C_5 
REMARK    3  A    between atoms: C_3  and  N_13 
REMARK       I    between atoms: C_5  and  N_7 
REMARK    4  A    between atoms: N_7  and  C_8 
REMARK    5  A    between atoms: C_8  and  C_9 
REMARK    6  A    between atoms: N_13  and  C_14 
REMARK    7  A    between atoms: C_19  and  C_22 
ROOT
HETATM    1  C   UNK N   1      30.412  17.985   8.823  0.00  0.00     0.104 A 
HETATM    2  C   UNK N   1      29.710  17.368   9.863  0.00  0.00     0.065 A 
HETATM    3  C   UNK N   1      28.317  17.434   9.852  0.00  0.00     0.093 A 
HETATM    4  N   UNK N   1      27.676  18.091   8.849  0.00  0.00    -0.351 N 
ATOM      5  HN  UNK N   1      26.658  18.137   8.847  1.00  0.00     0.166 HD
HETATM    6  C   UNK N   1      28.380  18.686   7.846  0.00  0.00     0.119 A 
HETATM    7  N   UNK N   1      29.730  18.620   7.842  0.00  0.00    -0.328 N 
ATOM      8  HN  UNK N   1      30.247  19.058   7.080  1.00  0.00     0.169 HD
ENDROOT
BRANCH   1   9
HETATM    9  N   UNK N   1      31.824  18.023   8.774  0.00  0.00    -0.359 N 
HETATM   10  H   UNK N   1      32.253  18.796   9.206  0.00  0.00     0.162 HD
BRANCH   9  11
HETATM   11  C   UNK N   1      32.713  17.055   8.162  0.00  0.00     0.108 C 
HETATM   12  C   UNK N   1      33.821  16.866   9.182  0.00  0.00     0.049 C 
BRANCH  11  13
HETATM   13  C   UNK N   1      32.010  15.692   8.014  0.00  0.00     0.036 C 
HETATM   14  C   UNK N   1      32.695  14.538   8.737  0.00  0.00     0.008 C 
ENDBRANCH  11  13
BRANCH  11  15
HETATM   15  C   UNK N   1      33.335  17.522   6.848  0.00  0.00     0.245 C 
HETATM   16  O   UNK N   1      34.423  18.076   6.854  0.00  0.00    -0.271 OA
HETATM   17  N   UNK N   1      32.711  17.320   5.654  0.00  0.00    -0.350 N 
HETATM   18  H   UNK N   1      33.138  17.666   4.837  0.00  0.00     0.162 HD
BRANCH  17  19
HETATM   19  C   UNK N   1      31.449  16.623   5.526  0.00  0.00     0.240 C 
BRANCH  19  20
HETATM   20  C   UNK N   1      30.696  17.111   4.296  0.00  0.00     0.403 C 
HETATM   21  F   UNK N   1      30.045  18.293   4.592  0.00  0.00    -0.169 F 
HETATM   22  F   UNK N   1      29.762  16.171   3.898  0.00  0.00    -0.169 F 
HETATM   23  F   UNK N   1      31.592  17.331   3.268  0.00  0.00    -0.169 F 
ENDBRANCH  19  20
ENDBRANCH  17  19
ENDBRANCH  11  15
ENDBRANCH   9  11
ENDBRANCH   1   9
BRANCH   6  24
HETATM   24  C   UNK N   1      27.688  19.348   6.738  0.00  0.00     0.037 A 
HETATM   25  C   UNK N   1      27.610  20.725   6.510  0.00  0.00     0.106 A 
HETATM   26  N   UNK N   1      26.951  20.954   5.345  0.00  0.00    -0.351 N 
HETATM   27  C   UNK N   1      26.634  19.738   4.859  0.00  0.00     0.116 A 
HETATM   28  H   UNK N   1      26.749  21.828   4.938  0.00  0.00     0.166 HD
HETATM   29  C   UNK N   1      27.058  18.747   5.687  0.00  0.00     0.023 A 
HETATM   30  N   UNK N   1      26.009  19.486   3.687  0.00  0.00    -0.352 N 
HETATM   31  C   UNK N   1      26.855  17.407   5.371  0.00  0.00     0.017 A 
HETATM   32  C   UNK N   1      26.201  17.124   4.164  0.00  0.00     0.018 A 
HETATM   33  C   UNK N   1      25.787  18.184   3.324  0.00  0.00     0.090 A 
ATOM     34  HN  UNK N   1      25.708  20.252   3.085  1.00  0.00     0.166 HD
ENDBRANCH   6  24
TORSDOF 7
ENDMDL
MODEL 8
REMARK VINA RESULT:      -6.7      2.694      6.980
REMARK  7 active torsions:
REMARK  status: ('A' for Active; 'I' for Inactive)
REMARK    1  A    between atoms: C_2  and  C_3 
REMARK    2  A    between atoms: C_3  and  C_5 
REMARK    3  A    between atoms: C_3  and  N_13 
REMARK       I    between atoms: C_5  and  N_7 
REMARK    4  A    between atoms: N_7  and  C_8 
REMARK    5  A    between atoms: C_8  and  C_9 
REMARK    6  A    between atoms: N_13  and  C_14 
REMARK    7  A    between atoms: C_19  and  C_22 
ROOT
HETATM    1  C   UNK N   1      28.508  17.592   7.779  0.00  0.00     0.104 A 
HETATM    2  C   UNK N   1      28.335  18.169   9.041  0.00  0.00     0.065 A 
HETATM    3  C   UNK N   1      29.453  18.313   9.862  0.00  0.00     0.093 A 
HETATM    4  N   UNK N   1      30.671  17.892   9.431  0.00  0.00    -0.351 N 
ATOM      5  HN  UNK N   1      31.484  17.998  10.036  1.00  0.00     0.166 HD
HETATM    6  C   UNK N   1      30.817  17.331   8.198  0.00  0.00     0.119 A 
HETATM    7  N   UNK N   1      29.742  17.196   7.390  0.00  0.00    -0.328 N 
ATOM      8  HN  UNK N   1      29.864  16.786   6.464  1.00  0.00     0.169 HD
ENDROOT
BRANCH   1   9
HETATM    9  N   UNK N   1      27.431  17.350   6.897  0.00  0.00    -0.359 N 
HETATM   10  H   UNK N   1      26.587  17.060   7.310  0.00  0.00     0.162 HD
BRANCH   9  11
HETATM   11  C   UNK N   1      27.425  17.481   5.452  0.00  0.00     0.108 C 
HETATM   12  C   UNK N   1      27.831  16.108   4.950  0.00  0.00     0.049 C 
BRANCH  11  13
HETATM   13  C   UNK N   1      25.996  17.736   4.937  0.00  0.00     0.036 C 
HETATM   14  C   UNK N   1      25.738  17.268   3.510  0.00  0.00     0.008 C 
ENDBRANCH  11  13
BRANCH  11  15
HETATM   15  C   UNK N   1      28.417  18.510   4.915  0.00  0.00     0.245 C 
HETATM   16  O   UNK N   1      29.515  18.147   4.522  0.00  0.00    -0.271 OA
HETATM   17  N   UNK N   1      28.103  19.833   4.843  0.00  0.00    -0.350 N 
HETATM   18  H   UNK N   1      28.787  20.461   4.517  0.00  0.00     0.162 HD
BRANCH  17  19
HETATM   19  C   UNK N   1      26.810  20.363   5.225  0.00  0.00     0.240 C 
BRANCH  19  20
HETATM   20  C   UNK N   1      26.949  21.273   6.438  0.00  0.00     0.403 C 
HETATM   21  F   UNK N   1      25.965  22.242   6.402  0.00  0.00    -0.169 F 
HETATM   22  F   UNK N   1      28.187  21.891   6.437  0.00  0.00    -0.169 F 
HETATM   23  F   UNK N   1      26.811  20.525   7.591  0.00  0.00    -0.169 F 
ENDBRANCH  19  20
ENDBRANCH  17  19
ENDBRANCH  11  15
ENDBRANCH   9  11
ENDBRANCH   1   9
BRANCH   6  24
HETATM   24  C   UNK N   1      32.139  16.926   7.713  0.00  0.00     0.037 A 
HETATM   25  C   UNK N   1      32.893  17.563   6.723  0.00  0.00     0.106 A 
HETATM   26  N   UNK N   1      34.095  16.944   6.601  0.00  0.00    -0.351 N 
HETATM   27  C   UNK N   1      34.085  15.946   7.507  0.00  0.00     0.116 A 
HETATM   28  H   UNK N   1      34.823  17.177   5.981  0.00  0.00     0.166 HD
HETATM   29  C   UNK N   1      32.909  15.904   8.187  0.00  0.00     0.023 A 
HETATM   30  N   UNK N   1      35.103  15.095   7.765  0.00  0.00    -0.352 N 
HETATM   31  C   UNK N   1      32.688  14.964   9.187  0.00  0.00     0.017 A 
HETATM   32  C   UNK N   1      33.728  14.066   9.466  0.00  0.00     0.018 A 
HETATM   33  C   UNK N   1      34.941  14.150   8.744  0.00  0.00     0.090 A 
ATOM     34  HN  UNK N   1      35.976  15.155   7.240  1.00  0.00     0.166 HD
ENDBRANCH   6  24
TORSDOF 7
ENDMDL
MODEL 9
REMARK VINA RESULT:      -6.7      3.664      5.931
REMARK  7 active torsions:
REMARK  status: ('A' for Active; 'I' for Inactive)
REMARK    1  A    between atoms: C_2  and  C_3 
REMARK    2  A    between atoms: C_3  and  C_5 
REMARK    3  A    between atoms: C_3  and  N_13 
REMARK       I    between atoms: C_5  and  N_7 
REMARK    4  A    between atoms: N_7  and  C_8 
REMARK    5  A    between atoms: C_8  and  C_9 
REMARK    6  A    between atoms: N_13  and  C_14 
REMARK    7  A    between atoms: C_19  and  C_22 
ROOT
HETATM    1  C   UNK N   1      25.844  19.328   4.876  0.00  0.00     0.104 A 
HETATM    2  C   UNK N   1      26.516  20.117   3.937  0.00  0.00     0.065 A 
HETATM    3  C   UNK N   1      25.798  20.602   2.845  0.00  0.00     0.093 A 
HETATM    4  N   UNK N   1      24.480  20.300   2.710  0.00  0.00    -0.351 N 
ATOM      5  HN  UNK N   1      23.960  20.656   1.909  1.00  0.00     0.166 HD
HETATM    6  C   UNK N   1      23.844  19.528   3.636  0.00  0.00     0.119 A 
HETATM    7  N   UNK N   1      24.529  19.061   4.704  0.00  0.00    -0.328 N 
ATOM      8  HN  UNK N   1      24.042  18.494   5.398  1.00  0.00     0.169 HD
ENDROOT
BRANCH   1   9
HETATM    9  N   UNK N   1      26.495  18.743   5.985  0.00  0.00    -0.359 N 
HETATM   10  H   UNK N   1      26.355  19.182   6.854  0.00  0.00     0.162 HD
BRANCH   9  11
HETATM   11  C   UNK N   1      27.347  17.569   5.991  0.00  0.00     0.108 C 
HETATM   12  C   UNK N   1      26.992  16.842   4.706  0.00  0.00     0.049 C 
BRANCH  11  13
HETATM   13  C   UNK N   1      28.829  17.974   5.875  0.00  0.00     0.036 C 
HETATM   14  C   UNK N   1      29.511  17.543   4.582  0.00  0.00     0.008 C 
ENDBRANCH  11  13
BRANCH  11  15
HETATM   15  C   UNK N   1      27.104  16.626   7.167  0.00  0.00     0.245 C 
HETATM   16  O   UNK N   1      26.585  15.538   6.976  0.00  0.00    -0.271 OA
HETATM   17  N   UNK N   1      27.470  16.961   8.436  0.00  0.00    -0.350 N 
HETATM   18  H   UNK N   1      27.265  16.332   9.165  0.00  0.00     0.162 HD
BRANCH  17  19
HETATM   19  C   UNK N   1      28.146  18.199   8.765  0.00  0.00     0.240 C 
BRANCH  19  20
HETATM   20  C   UNK N   1      29.385  17.918   9.605  0.00  0.00     0.403 C 
HETATM   21  F   UNK N   1      29.103  16.927  10.526  0.00  0.00    -0.169 F 
HETATM   22  F   UNK N   1      29.778  19.060  10.280  0.00  0.00    -0.169 F 
HETATM   23  F   UNK N   1      30.410  17.496   8.782  0.00  0.00    -0.169 F 
ENDBRANCH  19  20
ENDBRANCH  17  19
ENDBRANCH  11  15
ENDBRANCH   9  11
ENDBRANCH   1   9
BRANCH   6  24
HETATM   24  C   UNK N   1      22.412  19.246   3.519  0.00  0.00     0.037 A 
HETATM   25  C   UNK N   1      21.404  20.169   3.223  0.00  0.00     0.106 A 
HETATM   26  N   UNK N   1      20.215  19.523   3.123  0.00  0.00    -0.351 N 
HETATM   27  C   UNK N   1      20.485  18.222   3.347  0.00  0.00     0.116 A 
HETATM   28  H   UNK N   1      19.336  19.922   2.926  0.00  0.00     0.166 HD
HETATM   29  C   UNK N   1      21.806  18.026   3.600  0.00  0.00     0.023 A 
HETATM   30  N   UNK N   1      19.597  17.204   3.300  0.00  0.00    -0.352 N 
HETATM   31  C   UNK N   1      22.314  16.753   3.839  0.00  0.00     0.017 A 
HETATM   32  C   UNK N   1      21.408  15.683   3.803  0.00  0.00     0.018 A 
HETATM   33  C   UNK N   1      20.043  15.928   3.524  0.00  0.00     0.090 A 
ATOM     34  HN  UNK N   1      18.613  17.383   3.102  1.00  0.00     0.166 HD
ENDBRANCH   6  24
TORSDOF 7
ENDMDL
