MODEL 1
REMARK VINA RESULT:      -7.1      0.000      0.000
REMARK  6 active torsions:
REMARK  status: ('A' for Active; 'I' for Inactive)
REMARK    1  A    between atoms: N_20  and  C_7 
REMARK    2  A    between atoms: P_27  and  C_7 
REMARK    3  A    between atoms: C_14  and  C_8 
REMARK    4  A    between atoms: N_19  and  C_10 
REMARK    5  A    between atoms: P_27  and  O_23 
REMARK    6  A    between atoms: P_27  and  O_24 
ROOT
HETATM    1  C   UNK N   1      25.173  17.260   4.906  0.00  0.00     0.050 A 
HETATM    2  C   UNK N   1      22.406  17.127   5.016  0.00  0.00     0.062 A 
HETATM    3  C   UNK N   1      24.587  16.195   5.606  0.00  0.00     0.076 A 
HETATM    4  C   UNK N   1      24.413  18.221   4.256  0.00  0.00     0.063 A 
HETATM    5  C   UNK N   1      23.149  16.092   5.631  0.00  0.00     0.047 A 
HETATM    6  C   UNK N   1      23.009  18.186   4.329  0.00  0.00     0.067 A 
HETATM    7  C   UNK N   1      24.321  20.193   2.952  0.00  0.00     0.314 A 
HETATM    8  C   UNK N   1      22.921  20.192   3.034  0.00  0.00     0.317 A 
HETATM    9  N   UNK N   1      25.035  19.215   3.578  0.00  0.00    -0.317 N 
HETATM   10  N   UNK N   1      22.270  19.187   3.737  0.00  0.00    -0.296 N 
HETATM   11  O   UNK N   1      24.908  21.074   2.346  0.00  0.00    -0.262 OA
HETATM   12  O   UNK N   1      22.285  21.086   2.502  0.00  0.00    -0.262 OA
HETATM   13  H   UNK N   1      26.019  19.230   3.535  0.00  0.00     0.169 HD
ENDROOT
BRANCH  10  14
HETATM   14  C   UNK N   1      20.809  19.322   3.919  0.00  0.00     0.257 C 
BRANCH  14  15
HETATM   15  P   UNK N   1      19.670  18.351   2.789  0.00  0.00     0.254 P 
HETATM   16  O   UNK N   1      20.346  17.982   1.446  0.00  0.00    -0.652 OA
BRANCH  15  17
HETATM   17  O   UNK N   1      18.136  19.026   2.343  0.00  0.00    -0.328 OA
HETATM   18  H   UNK N   1      17.375  19.579   2.106  0.00  0.00     0.220 HD
ENDBRANCH  15  17
BRANCH  15  19
HETATM   19  O   UNK N   1      19.333  16.785   3.457  0.00  0.00    -0.328 OA
HETATM   20  H   UNK N   1      19.696  16.478   4.303  0.00  0.00     0.220 HD
ENDBRANCH  15  19
ENDBRANCH  14  15
ENDBRANCH  10  14
BRANCH   5  21
HETATM   21  N   UNK N   1      22.410  14.999   6.233  0.00  0.00    -0.376 N 
HETATM   22  C   UNK N   1      22.199  13.739   5.529  0.00  0.00     0.149 C 
HETATM   23  C   UNK N   1      21.308  12.755   6.288  0.00  0.00     0.187 C 
HETATM   24  O   UNK N   1      20.270  13.451   6.908  0.00  0.00    -0.388 OA
HETATM   25  C   UNK N   1      20.892  14.065   7.996  0.00  0.00     0.187 C 
HETATM   26  C   UNK N   1      21.734  15.244   7.509  0.00  0.00     0.149 C 
ENDBRANCH   5  21
BRANCH   3  27
HETATM   27  C   UNK N   1      25.549  15.241   6.290  0.00  0.00     0.419 C 
HETATM   28  F   UNK N   1      25.640  14.050   5.595  0.00  0.00    -0.166 F 
HETATM   29  F   UNK N   1      25.143  15.019   7.594  0.00  0.00    -0.166 F 
HETATM   30  F   UNK N   1      26.825  15.779   6.347  0.00  0.00    -0.166 F 
ENDBRANCH   3  27
TORSDOF 6
ENDMDL
MODEL 2
REMARK VINA RESULT:      -6.9      7.649      9.900
REMARK  6 active torsions:
REMARK  status: ('A' for Active; 'I' for Inactive)
REMARK    1  A    between atoms: N_20  and  C_7 
REMARK    2  A    between atoms: P_27  and  C_7 
REMARK    3  A    between atoms: C_14  and  C_8 
REMARK    4  A    between atoms: N_19  and  C_10 
REMARK    5  A    between atoms: P_27  and  O_23 
REMARK    6  A    between atoms: P_27  and  O_24 
ROOT
HETATM    1  C   UNK N   1      30.700  17.341   8.738  0.00  0.00     0.050 A 
HETATM    2  C   UNK N   1      30.717  17.215   5.968  0.00  0.00     0.062 A 
HETATM    3  C   UNK N   1      29.510  17.628   8.053  0.00  0.00     0.076 A 
HETATM    4  C   UNK N   1      31.862  16.977   8.075  0.00  0.00     0.063 A 
HETATM    5  C   UNK N   1      29.496  17.522   6.615  0.00  0.00     0.047 A 
HETATM    6  C   UNK N   1      31.896  16.939   6.669  0.00  0.00     0.067 A 
HETATM    7  C   UNK N   1      34.143  16.357   8.171  0.00  0.00     0.314 A 
HETATM    8  C   UNK N   1      34.206  16.339   6.770  0.00  0.00     0.317 A 
HETATM    9  N   UNK N   1      32.975  16.690   8.790  0.00  0.00    -0.317 N 
HETATM   10  N   UNK N   1      33.077  16.643   6.023  0.00  0.00    -0.296 N 
HETATM   11  O   UNK N   1      35.130  16.100   8.841  0.00  0.00    -0.262 OA
HETATM   12  O   UNK N   1      35.261  16.074   6.217  0.00  0.00    -0.262 OA
HETATM   13  H   UNK N   1      32.940  16.721   9.774  0.00  0.00     0.169 HD
ENDROOT
BRANCH  10  14
HETATM   14  C   UNK N   1      33.242  16.760   4.558  0.00  0.00     0.257 C 
BRANCH  14  15
HETATM   15  P   UNK N   1      33.146  15.201   3.518  0.00  0.00     0.254 P 
HETATM   16  O   UNK N   1      33.840  15.366   2.144  0.00  0.00    -0.652 OA
BRANCH  15  17
HETATM   17  O   UNK N   1      31.595  14.517   3.152  0.00  0.00    -0.328 OA
HETATM   18  H   UNK N   1      30.827  13.961   2.952  0.00  0.00     0.220 HD
ENDBRANCH  15  17
BRANCH  15  19
HETATM   19  O   UNK N   1      34.080  13.927   4.237  0.00  0.00    -0.328 OA
HETATM   20  H   UNK N   1      35.050  13.926   4.259  0.00  0.00     0.220 HD
ENDBRANCH  15  19
ENDBRANCH  14  15
ENDBRANCH  10  14
BRANCH   5  21
HETATM   21  N   UNK N   1      28.320  17.697   5.786  0.00  0.00    -0.376 N 
HETATM   22  C   UNK N   1      27.323  16.643   5.638  0.00  0.00     0.149 C 
HETATM   23  C   UNK N   1      26.216  16.981   4.640  0.00  0.00     0.187 C 
HETATM   24  O   UNK N   1      26.765  17.654   3.547  0.00  0.00    -0.388 OA
HETATM   25  C   UNK N   1      27.011  18.935   4.041  0.00  0.00     0.187 C 
HETATM   26  C   UNK N   1      28.232  18.905   4.960  0.00  0.00     0.149 C 
ENDBRANCH   5  21
BRANCH   3  27
HETATM   27  C   UNK N   1      28.331  18.041   8.915  0.00  0.00     0.419 C 
HETATM   28  F   UNK N   1      27.391  17.031   8.981  0.00  0.00    -0.166 F 
HETATM   29  F   UNK N   1      27.769  19.204   8.417  0.00  0.00    -0.166 F 
HETATM   30  F   UNK N   1      28.735  18.308  10.214  0.00  0.00    -0.166 F 
ENDBRANCH   3  27
TORSDOF 6
ENDMDL
MODEL 3
REMARK VINA RESULT:      -6.8      3.969      5.240
REMARK  6 active torsions:
REMARK  status: ('A' for Active; 'I' for Inactive)
REMARK    1  A    between atoms: N_20  and  C_7 
REMARK    2  A    between atoms: P_27  and  C_7 
REMARK    3  A    between atoms: C_14  and  C_8 
REMARK    4  A    between atoms: N_19  and  C_10 
REMARK    5  A    between atoms: P_27  and  O_23 
REMARK    6  A    between atoms: P_27  and  O_24 
ROOT
HETATM    1  C   UNK N   1      19.922  16.813   0.941  0.00  0.00     0.050 A 
HETATM    2  C   UNK N   1      21.239  16.642   3.375  0.00  0.00     0.062 A 
HETATM    3  C   UNK N   1      19.984  15.564   1.576  0.00  0.00     0.076 A 
HETATM    4  C   UNK N   1      20.475  17.954   1.504  0.00  0.00     0.063 A 
HETATM    5  C   UNK N   1      20.628  15.473   2.863  0.00  0.00     0.047 A 
HETATM    6  C   UNK N   1      21.174  17.878   2.723  0.00  0.00     0.067 A 
HETATM    7  C   UNK N   1      20.921  20.273   1.365  0.00  0.00     0.314 A 
HETATM    8  C   UNK N   1      21.644  20.215   2.565  0.00  0.00     0.317 A 
HETATM    9  N   UNK N   1      20.365  19.138   0.855  0.00  0.00    -0.317 N 
HETATM   10  N   UNK N   1      21.776  19.007   3.235  0.00  0.00    -0.296 N 
HETATM   11  O   UNK N   1      20.804  21.327   0.760  0.00  0.00    -0.262 OA
HETATM   12  O   UNK N   1      22.170  21.225   3.003  0.00  0.00    -0.262 OA
HETATM   13  H   UNK N   1      19.875  19.178   0.003  0.00  0.00     0.169 HD
ENDROOT
BRANCH  10  14
HETATM   14  C   UNK N   1      22.676  18.974   4.408  0.00  0.00     0.257 C 
BRANCH  14  15
HETATM   15  P   UNK N   1      24.519  18.780   4.121  0.00  0.00     0.254 P 
HETATM   16  O   UNK N   1      24.874  17.425   3.462  0.00  0.00    -0.652 OA
BRANCH  15  17
HETATM   17  O   UNK N   1      25.608  18.918   5.463  0.00  0.00    -0.328 OA
HETATM   18  H   UNK N   1      26.219  18.796   6.207  0.00  0.00     0.220 HD
ENDBRANCH  15  17
BRANCH  15  19
HETATM   19  O   UNK N   1      25.076  19.911   2.928  0.00  0.00    -0.328 OA
HETATM   20  H   UNK N   1      24.675  20.784   2.795  0.00  0.00     0.220 HD
ENDBRANCH  15  19
ENDBRANCH  14  15
ENDBRANCH  10  14
BRANCH   5  21
HETATM   21  N   UNK N   1      20.684  14.273   3.674  0.00  0.00    -0.376 N 
HETATM   22  C   UNK N   1      19.773  14.061   4.793  0.00  0.00     0.149 C 
HETATM   23  C   UNK N   1      20.061  12.787   5.587  0.00  0.00     0.187 C 
HETATM   24  O   UNK N   1      21.442  12.613   5.700  0.00  0.00    -0.388 OA
HETATM   25  C   UNK N   1      21.820  12.170   4.432  0.00  0.00     0.187 C 
HETATM   26  C   UNK N   1      21.791  13.340   3.450  0.00  0.00     0.149 C 
ENDBRANCH   5  21
BRANCH   3  27
HETATM   27  C   UNK N   1      19.361  14.405   0.821  0.00  0.00     0.419 C 
HETATM   28  F   UNK N   1      20.332  13.527   0.378  0.00  0.00    -0.166 F 
HETATM   29  F   UNK N   1      18.609  14.882  -0.238  0.00  0.00    -0.166 F 
HETATM   30  F   UNK N   1      18.502  13.685   1.638  0.00  0.00    -0.166 F 
ENDBRANCH   3  27
TORSDOF 6
ENDMDL
MODEL 4
REMARK VINA RESULT:      -6.8     11.835     13.535
REMARK  6 active torsions:
REMARK  status: ('A' for Active; 'I' for Inactive)
REMARK    1  A    between atoms: N_20  and  C_7 
REMARK    2  A    between atoms: P_27  and  C_7 
REMARK    3  A    between atoms: C_14  and  C_8 
REMARK    4  A    between atoms: N_19  and  C_10 
REMARK    5  A    between atoms: P_27  and  O_23 
REMARK    6  A    between atoms: P_27  and  O_24 
ROOT
HETATM    1  C   UNK N   1      35.573  15.863  11.270  0.00  0.00     0.050 A 
HETATM    2  C   UNK N   1      35.066  14.048   9.236  0.00  0.00     0.062 A 
HETATM    3  C   UNK N   1      35.682  14.495  11.559  0.00  0.00     0.076 A 
HETATM    4  C   UNK N   1      35.246  16.325  10.004  0.00  0.00     0.063 A 
HETATM    5  C   UNK N   1      35.464  13.544  10.497  0.00  0.00     0.047 A 
HETATM    6  C   UNK N   1      34.955  15.417   8.969  0.00  0.00     0.067 A 
HETATM    7  C   UNK N   1      34.831  18.148   8.554  0.00  0.00     0.314 A 
HETATM    8  C   UNK N   1      34.511  17.261   7.516  0.00  0.00     0.317 A 
HETATM    9  N   UNK N   1      35.177  17.658   9.778  0.00  0.00    -0.317 N 
HETATM   10  N   UNK N   1      34.565  15.891   7.735  0.00  0.00    -0.296 N 
HETATM   11  O   UNK N   1      34.779  19.354   8.379  0.00  0.00    -0.262 OA
HETATM   12  O   UNK N   1      34.168  17.700   6.431  0.00  0.00    -0.262 OA
HETATM   13  H   UNK N   1      35.381  18.284  10.511  0.00  0.00     0.169 HD
ENDROOT
BRANCH  10  14
HETATM   14  C   UNK N   1      34.070  15.009   6.656  0.00  0.00     0.257 C 
BRANCH  14  15
HETATM   15  P   UNK N   1      32.227  14.961   6.311  0.00  0.00     0.254 P 
HETATM   16  O   UNK N   1      31.389  15.471   7.509  0.00  0.00    -0.652 OA
BRANCH  15  17
HETATM   17  O   UNK N   1      31.486  13.461   5.858  0.00  0.00    -0.328 OA
HETATM   18  H   UNK N   1      31.239  12.540   5.676  0.00  0.00     0.220 HD
ENDBRANCH  15  17
BRANCH  15  19
HETATM   19  O   UNK N   1      31.806  16.102   5.073  0.00  0.00    -0.328 OA
HETATM   20  H   UNK N   1      31.969  17.055   5.149  0.00  0.00     0.220 HD
ENDBRANCH  15  19
ENDBRANCH  14  15
ENDBRANCH  10  14
BRANCH   5  21
HETATM   21  N   UNK N   1      35.634  12.110  10.625  0.00  0.00    -0.376 N 
HETATM   22  C   UNK N   1      34.580  11.259  11.166  0.00  0.00     0.149 C 
HETATM   23  C   UNK N   1      34.990   9.795  11.319  0.00  0.00     0.187 C 
HETATM   24  O   UNK N   1      36.311   9.727  11.764  0.00  0.00    -0.388 OA
HETATM   25  C   UNK N   1      37.056  10.044  10.627  0.00  0.00     0.187 C 
HETATM   26  C   UNK N   1      36.957  11.545  10.351  0.00  0.00     0.149 C 
ENDBRANCH   5  21
BRANCH   3  27
HETATM   27  C   UNK N   1      36.016  14.144  12.997  0.00  0.00     0.419 C 
HETATM   28  F   UNK N   1      34.958  13.497  13.605  0.00  0.00    -0.166 F 
HETATM   29  F   UNK N   1      36.358  15.290  13.694  0.00  0.00    -0.166 F 
HETATM   30  F   UNK N   1      37.107  13.290  13.059  0.00  0.00    -0.166 F 
ENDBRANCH   3  27
TORSDOF 6
ENDMDL
MODEL 5
REMARK VINA RESULT:      -6.7     11.296     13.858
REMARK  6 active torsions:
REMARK  status: ('A' for Active; 'I' for Inactive)
REMARK    1  A    between atoms: N_20  and  C_7 
REMARK    2  A    between atoms: P_27  and  C_7 
REMARK    3  A    between atoms: C_14  and  C_8 
REMARK    4  A    between atoms: N_19  and  C_10 
REMARK    5  A    between atoms: P_27  and  O_23 
REMARK    6  A    between atoms: P_27  and  O_24 
ROOT
HETATM    1  C   UNK N   1      34.789  16.774   9.836  0.00  0.00     0.050 A 
HETATM    2  C   UNK N   1      34.306  14.334   8.611  0.00  0.00     0.062 A 
HETATM    3  C   UNK N   1      34.244  16.777   8.544  0.00  0.00     0.076 A 
HETATM    4  C   UNK N   1      35.065  15.597  10.517  0.00  0.00     0.063 A 
HETATM    5  C   UNK N   1      33.948  15.512   7.915  0.00  0.00     0.047 A 
HETATM    6  C   UNK N   1      34.856  14.351   9.898  0.00  0.00     0.067 A 
HETATM    7  C   UNK N   1      35.881  14.522  12.460  0.00  0.00     0.314 A 
HETATM    8  C   UNK N   1      35.705  13.271  11.852  0.00  0.00     0.317 A 
HETATM    9  N   UNK N   1      35.570  15.657  11.772  0.00  0.00    -0.317 N 
HETATM   10  N   UNK N   1      35.200  13.194  10.561  0.00  0.00    -0.296 N 
HETATM   11  O   UNK N   1      36.332  14.605  13.590  0.00  0.00    -0.262 OA
HETATM   12  O   UNK N   1      36.015  12.257  12.455  0.00  0.00    -0.262 OA
HETATM   13  H   UNK N   1      35.714  16.534  12.194  0.00  0.00     0.169 HD
ENDROOT
BRANCH  10  14
HETATM   14  C   UNK N   1      35.181  11.863   9.916  0.00  0.00     0.257 C 
BRANCH  14  15
HETATM   15  P   UNK N   1      33.718  10.734  10.231  0.00  0.00     0.254 P 
HETATM   16  O   UNK N   1      33.950   9.302   9.690  0.00  0.00    -0.652 OA
BRANCH  15  17
HETATM   17  O   UNK N   1      32.152  11.184   9.636  0.00  0.00    -0.328 OA
HETATM   18  H   UNK N   1      31.219  11.405   9.492  0.00  0.00     0.220 HD
ENDBRANCH  15  17
BRANCH  15  19
HETATM   19  O   UNK N   1      33.523  10.443  11.931  0.00  0.00    -0.328 OA
HETATM   20  H   UNK N   1      34.262  10.453  12.560  0.00  0.00     0.220 HD
ENDBRANCH  15  19
ENDBRANCH  14  15
ENDBRANCH  10  14
BRANCH   5  21
HETATM   21  N   UNK N   1      33.300  15.363   6.627  0.00  0.00    -0.376 N 
HETATM   22  C   UNK N   1      34.067  15.176   5.401  0.00  0.00     0.149 C 
HETATM   23  C   UNK N   1      33.207  15.146   4.137  0.00  0.00     0.187 C 
HETATM   24  O   UNK N   1      32.187  16.092   4.247  0.00  0.00    -0.388 OA
HETATM   25  C   UNK N   1      31.288  15.502   5.137  0.00  0.00     0.187 C 
HETATM   26  C   UNK N   1      31.851  15.569   6.556  0.00  0.00     0.149 C 
ENDBRANCH   5  21
BRANCH   3  27
HETATM   27  C   UNK N   1      34.026  18.141   7.918  0.00  0.00     0.419 C 
HETATM   28  F   UNK N   1      34.985  19.039   8.347  0.00  0.00    -0.166 F 
HETATM   29  F   UNK N   1      32.755  18.599   8.219  0.00  0.00    -0.166 F 
HETATM   30  F   UNK N   1      34.118  18.075   6.536  0.00  0.00    -0.166 F 
ENDBRANCH   3  27
TORSDOF 6
ENDMDL
MODEL 6
REMARK VINA RESULT:      -6.7      3.168      5.511
REMARK  6 active torsions:
REMARK  status: ('A' for Active; 'I' for Inactive)
REMARK    1  A    between atoms: N_20  and  C_7 
REMARK    2  A    between atoms: P_27  and  C_7 
REMARK    3  A    between atoms: C_14  and  C_8 
REMARK    4  A    between atoms: N_19  and  C_10 
REMARK    5  A    between atoms: P_27  and  O_23 
REMARK    6  A    between atoms: P_27  and  O_24 
ROOT
HETATM    1  C   UNK N   1      24.086  19.910   3.412  0.00  0.00     0.050 A 
HETATM    2  C   UNK N   1      24.156  17.505   4.789  0.00  0.00     0.062 A 
HETATM    3  C   UNK N   1      25.320  19.468   3.912  0.00  0.00     0.076 A 
HETATM    4  C   UNK N   1      22.921  19.173   3.566  0.00  0.00     0.063 A 
HETATM    5  C   UNK N   1      25.374  18.196   4.591  0.00  0.00     0.047 A 
HETATM    6  C   UNK N   1      22.933  17.966   4.289  0.00  0.00     0.067 A 
HETATM    7  C   UNK N   1      20.594  18.957   3.198  0.00  0.00     0.314 A 
HETATM    8  C   UNK N   1      20.579  17.767   3.938  0.00  0.00     0.317 A 
HETATM    9  N   UNK N   1      21.763  19.641   3.041  0.00  0.00    -0.317 N 
HETATM   10  N   UNK N   1      21.755  17.281   4.492  0.00  0.00    -0.296 N 
HETATM   11  O   UNK N   1      19.566  19.401   2.713  0.00  0.00    -0.262 OA
HETATM   12  O   UNK N   1      19.526  17.173   4.106  0.00  0.00    -0.262 OA
HETATM   13  H   UNK N   1      21.767  20.487   2.539  0.00  0.00     0.169 HD
ENDROOT
BRANCH  10  14
HETATM   14  C   UNK N   1      21.653  16.109   5.388  0.00  0.00     0.257 C 
BRANCH  14  15
HETATM   15  P   UNK N   1      20.796  16.317   7.043  0.00  0.00     0.254 P 
HETATM   16  O   UNK N   1      20.820  17.783   7.540  0.00  0.00    -0.652 OA
BRANCH  15  17
HETATM   17  O   UNK N   1      21.330  15.380   8.401  0.00  0.00    -0.328 OA
HETATM   18  H   UNK N   1      21.533  14.995   9.267  0.00  0.00     0.220 HD
ENDBRANCH  15  17
BRANCH  15  19
HETATM   19  O   UNK N   1      19.092  16.022   6.892  0.00  0.00    -0.328 OA
HETATM   20  H   UNK N   1      18.463  16.688   6.572  0.00  0.00     0.220 HD
ENDBRANCH  15  19
ENDBRANCH  14  15
ENDBRANCH  10  14
BRANCH   5  21
HETATM   21  N   UNK N   1      26.589  17.572   5.076  0.00  0.00    -0.376 N 
HETATM   22  C   UNK N   1      27.304  18.085   6.239  0.00  0.00     0.149 C 
HETATM   23  C   UNK N   1      28.615  17.355   6.526  0.00  0.00     0.187 C 
HETATM   24  O   UNK N   1      29.257  17.062   5.322  0.00  0.00    -0.388 OA
HETATM   25  C   UNK N   1      28.519  15.993   4.811  0.00  0.00     0.187 C 
HETATM   26  C   UNK N   1      27.183  16.502   4.270  0.00  0.00     0.149 C 
ENDBRANCH   5  21
BRANCH   3  27
HETATM   27  C   UNK N   1      26.498  20.398   3.692  0.00  0.00     0.419 C 
HETATM   28  F   UNK N   1      26.766  21.131   4.833  0.00  0.00    -0.166 F 
HETATM   29  F   UNK N   1      26.244  21.234   2.619  0.00  0.00    -0.166 F 
HETATM   30  F   UNK N   1      27.645  19.682   3.388  0.00  0.00    -0.166 F 
ENDBRANCH   3  27
TORSDOF 6
ENDMDL
MODEL 7
REMARK VINA RESULT:      -6.7     12.734     14.502
REMARK  6 active torsions:
REMARK  status: ('A' for Active; 'I' for Inactive)
REMARK    1  A    between atoms: N_20  and  C_7 
REMARK    2  A    between atoms: P_27  and  C_7 
REMARK    3  A    between atoms: C_14  and  C_8 
REMARK    4  A    between atoms: N_19  and  C_10 
REMARK    5  A    between atoms: P_27  and  O_23 
REMARK    6  A    between atoms: P_27  and  O_24 
ROOT
HETATM    1  C   UNK N   1      30.334  20.264  -6.022  0.00  0.00     0.050 A 
HETATM    2  C   UNK N   1      28.889  22.585  -6.483  0.00  0.00     0.062 A 
HETATM    3  C   UNK N   1      29.572  20.349  -7.196  0.00  0.00     0.076 A 
HETATM    4  C   UNK N   1      30.401  21.308  -5.110  0.00  0.00     0.063 A 
HETATM    5  C   UNK N   1      28.852  21.569  -7.467  0.00  0.00     0.047 A 
HETATM    6  C   UNK N   1      29.650  22.479  -5.313  0.00  0.00     0.067 A 
HETATM    7  C   UNK N   1      31.239  22.170  -3.072  0.00  0.00     0.314 A 
HETATM    8  C   UNK N   1      30.477  23.335  -3.242  0.00  0.00     0.317 A 
HETATM    9  N   UNK N   1      31.172  21.177  -4.004  0.00  0.00    -0.317 N 
HETATM   10  N   UNK N   1      29.673  23.478  -4.364  0.00  0.00    -0.296 N 
HETATM   11  O   UNK N   1      31.943  22.026  -2.086  0.00  0.00    -0.262 OA
HETATM   12  O   UNK N   1      30.512  24.208  -2.391  0.00  0.00    -0.262 OA
HETATM   13  H   UNK N   1      31.692  20.352  -3.871  0.00  0.00     0.169 HD
ENDROOT
BRANCH  10  14
HETATM   14  C   UNK N   1      28.778  24.654  -4.414  0.00  0.00     0.257 C 
BRANCH  14  15
HETATM   15  P   UNK N   1      27.034  24.483  -3.743  0.00  0.00     0.254 P 
HETATM   16  O   UNK N   1      26.976  23.608  -2.468  0.00  0.00    -0.652 OA
BRANCH  15  17
HETATM   17  O   UNK N   1      25.786  23.855  -4.770  0.00  0.00    -0.328 OA
HETATM   18  H   UNK N   1      25.012  23.688  -5.330  0.00  0.00     0.220 HD
ENDBRANCH  15  17
BRANCH  15  19
HETATM   19  O   UNK N   1      26.453  26.009  -3.153  0.00  0.00    -0.328 OA
HETATM   20  H   UNK N   1      25.839  26.572  -3.649  0.00  0.00     0.220 HD
ENDBRANCH  15  19
ENDBRANCH  14  15
ENDBRANCH  10  14
BRANCH   5  21
HETATM   21  N   UNK N   1      28.103  21.833  -8.679  0.00  0.00    -0.376 N 
HETATM   22  C   UNK N   1      26.749  21.325  -8.869  0.00  0.00     0.149 C 
HETATM   23  C   UNK N   1      26.171  21.621 -10.253  0.00  0.00     0.187 C 
HETATM   24  O   UNK N   1      27.170  21.471 -11.216  0.00  0.00    -0.388 OA
HETATM   25  C   UNK N   1      27.951  22.616 -11.057  0.00  0.00     0.187 C 
HETATM   26  C   UNK N   1      28.797  22.489  -9.790  0.00  0.00     0.149 C 
ENDBRANCH   5  21
BRANCH   3  27
HETATM   27  C   UNK N   1      29.573  19.115  -8.079  0.00  0.00     0.419 C 
HETATM   28  F   UNK N   1      28.644  18.192  -7.637  0.00  0.00    -0.166 F 
HETATM   29  F   UNK N   1      30.841  18.560  -8.111  0.00  0.00    -0.166 F 
HETATM   30  F   UNK N   1      29.237  19.439  -9.385  0.00  0.00    -0.166 F 
ENDBRANCH   3  27
TORSDOF 6
ENDMDL
MODEL 8
REMARK VINA RESULT:      -6.6     12.569     14.080
REMARK  6 active torsions:
REMARK  status: ('A' for Active; 'I' for Inactive)
REMARK    1  A    between atoms: N_20  and  C_7 
REMARK    2  A    between atoms: P_27  and  C_7 
REMARK    3  A    between atoms: C_14  and  C_8 
REMARK    4  A    between atoms: N_19  and  C_10 
REMARK    5  A    between atoms: P_27  and  O_23 
REMARK    6  A    between atoms: P_27  and  O_24 
ROOT
HETATM    1  C   UNK N   1      35.585  15.879  11.310  0.00  0.00     0.050 A 
HETATM    2  C   UNK N   1      35.108  14.033   9.298  0.00  0.00     0.062 A 
HETATM    3  C   UNK N   1      35.714  14.517  11.616  0.00  0.00     0.076 A 
HETATM    4  C   UNK N   1      35.254  16.321  10.037  0.00  0.00     0.063 A 
HETATM    5  C   UNK N   1      35.511  13.550  10.565  0.00  0.00     0.047 A 
HETATM    6  C   UNK N   1      34.978  15.396   9.013  0.00  0.00     0.067 A 
HETATM    7  C   UNK N   1      34.815  18.119   8.564  0.00  0.00     0.314 A 
HETATM    8  C   UNK N   1      34.509  17.215   7.537  0.00  0.00     0.317 A 
HETATM    9  N   UNK N   1      35.166  17.651   9.795  0.00  0.00    -0.317 N 
HETATM   10  N   UNK N   1      34.582  15.849   7.774  0.00  0.00    -0.296 N 
HETATM   11  O   UNK N   1      34.745  19.323   8.374  0.00  0.00    -0.262 OA
HETATM   12  O   UNK N   1      34.162  17.636   6.446  0.00  0.00    -0.262 OA
HETATM   13  H   UNK N   1      35.360  18.288  10.520  0.00  0.00     0.169 HD
ENDROOT
BRANCH  10  14
HETATM   14  C   UNK N   1      34.102  14.947   6.705  0.00  0.00     0.257 C 
BRANCH  14  15
HETATM   15  P   UNK N   1      35.355  14.225   5.510  0.00  0.00     0.254 P 
HETATM   16  O   UNK N   1      36.733  14.923   5.606  0.00  0.00    -0.652 OA
BRANCH  15  17
HETATM   17  O   UNK N   1      34.992  14.193   3.815  0.00  0.00    -0.328 OA
HETATM   18  H   UNK N   1      34.971  14.255   2.847  0.00  0.00     0.220 HD
ENDBRANCH  15  17
BRANCH  15  19
HETATM   19  O   UNK N   1      35.752  12.594   5.950  0.00  0.00    -0.328 OA
HETATM   20  H   UNK N   1      35.104  11.966   6.306  0.00  0.00     0.220 HD
ENDBRANCH  15  19
ENDBRANCH  14  15
ENDBRANCH  10  14
BRANCH   5  21
HETATM   21  N   UNK N   1      35.701  12.120  10.712  0.00  0.00    -0.376 N 
HETATM   22  C   UNK N   1      36.933  11.464  10.291  0.00  0.00     0.149 C 
HETATM   23  C   UNK N   1      36.897   9.942  10.431  0.00  0.00     0.187 C 
HETATM   24  O   UNK N   1      35.635   9.472  10.067  0.00  0.00    -0.388 OA
HETATM   25  C   UNK N   1      34.833   9.810  11.157  0.00  0.00     0.187 C 
HETATM   26  C   UNK N   1      34.557  11.314  11.146  0.00  0.00     0.149 C 
ENDBRANCH   5  21
BRANCH   3  27
HETATM   27  C   UNK N   1      36.051  14.189  13.059  0.00  0.00     0.419 C 
HETATM   28  F   UNK N   1      34.976  13.597  13.694  0.00  0.00    -0.166 F 
HETATM   29  F   UNK N   1      36.442  15.338  13.723  0.00  0.00    -0.166 F 
HETATM   30  F   UNK N   1      37.109  13.297  13.131  0.00  0.00    -0.166 F 
ENDBRANCH   3  27
TORSDOF 6
ENDMDL
MODEL 9
REMARK VINA RESULT:      -6.5     12.755     14.188
REMARK  6 active torsions:
REMARK  status: ('A' for Active; 'I' for Inactive)
REMARK    1  A    between atoms: N_20  and  C_7 
REMARK    2  A    between atoms: P_27  and  C_7 
REMARK    3  A    between atoms: C_14  and  C_8 
REMARK    4  A    between atoms: N_19  and  C_10 
REMARK    5  A    between atoms: P_27  and  O_23 
REMARK    6  A    between atoms: P_27  and  O_24 
ROOT
HETATM    1  C   UNK N   1      30.171  21.734  -4.730  0.00  0.00     0.050 A 
HETATM    2  C   UNK N   1      28.381  23.364  -6.081  0.00  0.00     0.062 A 
HETATM    3  C   UNK N   1      29.769  22.930  -4.117  0.00  0.00     0.076 A 
HETATM    4  C   UNK N   1      29.683  21.340  -5.968  0.00  0.00     0.063 A 
HETATM    5  C   UNK N   1      28.804  23.763  -4.791  0.00  0.00     0.047 A 
HETATM    6  C   UNK N   1      28.799  22.171  -6.680  0.00  0.00     0.067 A 
HETATM    7  C   UNK N   1      29.654  19.759  -7.727  0.00  0.00     0.314 A 
HETATM    8  C   UNK N   1      28.793  20.583  -8.465  0.00  0.00     0.317 A 
HETATM    9  N   UNK N   1      30.091  20.164  -6.501  0.00  0.00    -0.317 N 
HETATM   10  N   UNK N   1      28.377  21.798  -7.938  0.00  0.00    -0.296 N 
HETATM   11  O   UNK N   1      30.036  18.693  -8.182  0.00  0.00    -0.262 OA
HETATM   12  O   UNK N   1      28.431  20.236  -9.577  0.00  0.00    -0.262 OA
HETATM   13  H   UNK N   1      30.711  19.592  -5.993  0.00  0.00     0.169 HD
ENDROOT
BRANCH  10  14
HETATM   14  C   UNK N   1      27.598  22.692  -8.821  0.00  0.00     0.257 C 
BRANCH  14  15
HETATM   15  P   UNK N   1      25.726  22.668  -8.697  0.00  0.00     0.254 P 
HETATM   16  O   UNK N   1      25.067  23.822  -9.491  0.00  0.00    -0.652 OA
BRANCH  15  17
HETATM   17  O   UNK N   1      24.978  22.721  -7.133  0.00  0.00    -0.328 OA
HETATM   18  H   UNK N   1      24.703  22.623  -6.208  0.00  0.00     0.220 HD
ENDBRANCH  15  17
BRANCH  15  19
HETATM   19  O   UNK N   1      25.077  21.271  -9.496  0.00  0.00    -0.328 OA
HETATM   20  H   UNK N   1      24.978  20.409  -9.063  0.00  0.00     0.220 HD
ENDBRANCH  15  19
ENDBRANCH  14  15
ENDBRANCH  10  14
BRANCH   5  21
HETATM   21  N   UNK N   1      28.230  24.973  -4.238  0.00  0.00    -0.376 N 
HETATM   22  C   UNK N   1      26.921  24.976  -3.595  0.00  0.00     0.149 C 
HETATM   23  C   UNK N   1      26.447  26.367  -3.173  0.00  0.00     0.187 C 
HETATM   24  O   UNK N   1      26.804  27.296  -4.151  0.00  0.00    -0.388 OA
HETATM   25  C   UNK N   1      28.175  27.465  -3.957  0.00  0.00     0.187 C 
HETATM   26  C   UNK N   1      28.923  26.240  -4.484  0.00  0.00     0.149 C 
ENDBRANCH   5  21
BRANCH   3  27
HETATM   27  C   UNK N   1      30.414  23.238  -2.779  0.00  0.00     0.419 C 
HETATM   28  F   UNK N   1      29.470  23.253  -1.769  0.00  0.00    -0.166 F 
HETATM   29  F   UNK N   1      31.081  24.449  -2.845  0.00  0.00    -0.166 F 
HETATM   30  F   UNK N   1      31.353  22.274  -2.445  0.00  0.00    -0.166 F 
ENDBRANCH   3  27
TORSDOF 6
ENDMDL
