REMARK  5 active torsions:
REMARK  status: ('A' for Active; 'I' for Inactive)
REMARK    1  A    between atoms: C_2  and  C_1 
REMARK    2  A    between atoms: C_8  and  C_1 
REMARK    3  A    between atoms: C_9  and  C_2 
REMARK    4  A    between atoms: N_26  and  C_8 
REMARK    5  A    between atoms: N_28  and  C_9 
REMARK       I    between atoms: N_27  and  C_21 
ROOT
HETATM    1  C   UNK N   1      -1.108  -0.307   0.936  0.00  0.00     0.032 C 
ENDROOT
BRANCH   1   2
HETATM    2  C   UNK N   1      -0.936   1.199   0.804  0.00  0.00     0.022 C 
BRANCH   2   3
HETATM    3  C   UNK N   1       0.280   1.696   1.567  0.00  0.00     0.135 C 
BRANCH   3   4
HETATM    4  N   UNK N   1       1.427   1.775   0.688  0.00  0.00    -0.288 N 
HETATM    5  C   UNK N   1       1.979   2.921   0.263  0.00  0.00     0.231 A 
HETATM    6  C   UNK N   1       3.163   2.686  -0.636  0.00  0.00     0.096 A 
HETATM    7  O   UNK N   1       1.561   4.025   0.577  0.00  0.00    -0.272 OA
HETATM    8  C   UNK N   1       4.546   3.084  -0.092  0.00  0.00    -0.000 C 
HETATM    9  C   UNK N   1       3.248   1.143  -0.681  0.00  0.00     0.096 A 
HETATM   10  C   UNK N   1       4.685   2.697   1.381  0.00  0.00     0.006 C 
HETATM   11  C   UNK N   1       5.425   2.038  -0.750  0.00  0.00     0.011 C 
HETATM   12  C   UNK N   1       4.769   1.178   1.336  0.00  0.00     0.006 C 
HETATM   13  C   UNK N   1       4.667   0.865  -0.157  0.00  0.00    -0.000 C 
HETATM   14  C   UNK N   1       2.105   0.724   0.200  0.00  0.00     0.231 A 
HETATM   15  O   UNK N   1       1.828  -0.436   0.460  0.00  0.00    -0.272 OA
ENDBRANCH   3   4
ENDBRANCH   2   3
ENDBRANCH   1   2
BRANCH   1  16
HETATM   16  C   UNK N   1      -1.596  -0.891  -0.394  0.00  0.00     0.272 C 
BRANCH  16  17
HETATM   17  N   UNK N   1      -3.045  -0.806  -0.613  0.00  0.00     0.091 N 
HETATM   18  C   UNK N   1      -3.576   0.530  -0.345  0.00  0.00     0.292 C 
HETATM   19  C   UNK N   1      -5.023   0.605  -0.805  0.00  0.00     0.171 C 
HETATM   20  N   UNK N   1      -5.795  -0.496  -0.262  0.00  0.00    -0.214 N 
HETATM   21  C   UNK N   1      -5.219  -1.831  -0.239  0.00  0.00     0.171 C 
HETATM   22  C   UNK N   1      -7.192  -0.323  -0.058  0.00  0.00     0.679 A 
HETATM   23  C   UNK N   1      -3.758  -1.776   0.213  0.00  0.00     0.292 C 
HETATM   24  N   UNK N   1      -7.990  -1.397   0.201  0.00  0.00    -0.202 N 
HETATM   25  N   UNK N   1      -7.748   0.918  -0.160  0.00  0.00    -0.202 N 
HETATM   26  C   UNK N   1      -9.332  -1.250   0.355  0.00  0.00     0.107 A 
ATOM     27  HN  UNK N   1      -7.573  -2.325   0.282  1.00  0.00     0.183 HD
HETATM   28  C   UNK N   1      -9.911   0.013   0.252  0.00  0.00     0.035 A 
HETATM   29  C   UNK N   1      -9.084   1.103  -0.005  0.00  0.00     0.107 A 
ATOM     30  HN  UNK N   1      -7.150   1.721  -0.356  1.00  0.00     0.183 HD
ENDBRANCH  16  17
ENDBRANCH   1  16
TORSDOF 5
