REMARK  5 active torsions:
REMARK  status: ('A' for Active; 'I' for Inactive)
REMARK    1  A    between atoms: C_5  and  N_22 
REMARK    2  A    between atoms: C_35  and  C_39 
REMARK    3  A    between atoms: C_38  and  C_43 
REMARK    4  A    between atoms: C_45  and  C_50 
REMARK    5  A    between atoms: C_55  and  O_60 
ROOT
HETATM    1  C   UNK N   1       2.521   6.714   0.000  0.00  0.00     0.009 A 
HETATM    2  C   UNK N   1       2.685   5.874   0.000  0.00  0.00    -0.020 A 
HETATM    3  C   UNK N   1       1.848   5.699   0.000  0.00  0.00     0.009 A 
HETATM    4  C   UNK N   1       3.444   5.411   0.000  0.00  0.00     0.038 A 
HETATM    5  C   UNK N   1       3.943   4.655   0.000  0.00  0.00     0.177 A 
HETATM    6  C   UNK N   1       4.747   4.846   0.000  0.00  0.00     0.241 A 
HETATM    7  O   UNK N   1       4.779   5.697   0.000  0.00  0.00    -0.271 OA
HETATM    8  N   UNK N   1       5.557   4.717   0.000  0.00  0.00    -0.346 N 
HETATM    9  C   UNK N   1       6.191   4.189   0.000  0.00  0.00     0.185 A 
HETATM   10  C   UNK N   1       6.335   3.366   0.000  0.00  0.00     0.241 A 
HETATM   11  O   UNK N   1       7.202   3.350   0.000  0.00  0.00    -0.271 OA
HETATM   12  N   UNK N   1       5.953   2.613   0.000  0.00  0.00    -0.346 N 
HETATM   13  C   UNK N   1       5.219   2.172   0.000  0.00  0.00     0.185 A 
HETATM   14  C   UNK N   1       4.563   1.552   0.000  0.00  0.00     0.137 A 
HETATM   15  C   UNK N   1       3.771   1.158   0.000  0.00  0.00     0.220 A 
HETATM   16  O   UNK N   1       2.986   0.421   0.000  0.00  0.00    -0.274 OA
HETATM   17  N   UNK N   1       2.844   1.351   0.000  0.00  0.00    -0.359 N 
HETATM   18  C   UNK N   1       2.577   2.162   0.000  0.00  0.00     0.157 A 
HETATM   19  C   UNK N   1       3.375   2.481   0.000  0.00  0.00     0.194 A 
HETATM   20  C   UNK N   1       3.085   3.304   0.000  0.00  0.00     0.242 A 
HETATM   21  O   UNK N   1       2.228   3.405   0.000  0.00  0.00    -0.271 OA
HETATM   22  N   UNK N   1       3.305   4.118   0.000  0.00  0.00    -0.346 N 
HETATM   23  N   UNK N   1       4.219   1.959   0.000  0.00  0.00    -0.344 N 
HETATM   24  C   UNK N   1       4.953   1.225   0.000  0.00  0.00     0.241 A 
HETATM   25  O   UNK N   1       5.937   1.608   0.000  0.00  0.00    -0.271 OA
HETATM   26  C   UNK N   1       4.776   0.393   0.000  0.00  0.00     0.180 A 
HETATM   27  N   UNK N   1       4.041   0.231   0.000  0.00  0.00    -0.346 N 
HETATM   28  C   UNK N   1       3.318   0.741   0.000  0.00  0.00     0.241 A 
HETATM   29  O   UNK N   1       2.360   0.693   0.000  0.00  0.00    -0.271 OA
HETATM   30  C   UNK N   1       3.500   1.706   0.000  0.00  0.00     0.181 A 
HETATM   31  N   UNK N   1       4.003   2.530   0.000  0.00  0.00    -0.346 N 
HETATM   32  C   UNK N   1       4.779   2.894   0.000  0.00  0.00     0.241 A 
HETATM   33  O   UNK N   1       4.691   3.725   0.000  0.00  0.00    -0.271 OA
HETATM   34  C   UNK N   1       4.204   1.293   0.000  0.00  0.00     0.075 A 
HETATM   35  C   UNK N   1       4.399   0.595   0.000  0.00  0.00    -0.028 A 
HETATM   36  C   UNK N   1       3.914  -0.073   0.000  0.00  0.00     0.096 A 
HETATM   37  N   UNK N   1       4.399  -0.740   0.000  0.00  0.00    -0.365 N 
HETATM   38  C   UNK N   1       5.183  -0.485   0.000  0.00  0.00     0.042 A 
HETATM   39  C   UNK N   1       5.183   0.340   0.000  0.00  0.00    -0.002 A 
HETATM   40  C   UNK N   1       5.898   0.752   0.000  0.00  0.00     0.014 A 
HETATM   41  C   UNK N   1       6.612   0.340   0.000  0.00  0.00     0.001 A 
HETATM   42  C   UNK N   1       6.612  -0.485   0.000  0.00  0.00     0.002 A 
HETATM   43  C   UNK N   1       5.898  -0.898   0.000  0.00  0.00     0.030 A 
HETATM   44  C   UNK N   1       5.498  -0.128   0.000  0.00  0.00     0.073 A 
HETATM   45  C   UNK N   1       5.201  -0.971   0.000  0.00  0.00    -0.056 A 
HETATM   46  C   UNK N   1       5.732  -1.603   0.000  0.00  0.00     0.007 A 
HETATM   47  C   UNK N   1       5.451  -2.378   0.000  0.00  0.00     0.001 A 
HETATM   48  C   UNK N   1       4.638  -2.522   0.000  0.00  0.00     0.000 A 
HETATM   49  C   UNK N   1       4.107  -1.891   0.000  0.00  0.00     0.001 A 
HETATM   50  C   UNK N   1       4.389  -1.115   0.000  0.00  0.00     0.007 A 
HETATM   51  C   UNK N   1       6.898   4.734   0.000  0.00  0.00     0.137 A 
HETATM   52  C   UNK N   1       7.290   5.519   0.000  0.00  0.00     0.222 A 
HETATM   53  O   UNK N   1       6.973   6.317   0.000  0.00  0.00    -0.273 OA
HETATM   54  N   UNK N   1       8.147   5.604   0.000  0.00  0.00    -0.333 N 
HETATM   55  C   UNK N   1       8.326   6.411   0.000  0.00  0.00     0.249 A 
HETATM   56  C   UNK N   1       9.112   6.660   0.000  0.00  0.00     0.164 A 
HETATM   57  C   UNK N   1       9.290   7.465   0.000  0.00  0.00     0.176 A 
HETATM   58  C   UNK N   1       8.682   8.022   0.000  0.00  0.00     0.180 A 
HETATM   59  C   UNK N   1       7.895   7.774   0.000  0.00  0.00     0.179 A 
HETATM   60  O   UNK N   1       7.717   6.968   0.000  0.00  0.00    -0.354 OA
HETATM   61  C   UNK N   1       7.287   8.331   0.000  0.00  0.00     0.198 A 
HETATM   62  O   UNK N   1       7.465   9.136   0.000  0.00  0.00    -0.398 OA
HETATM   63  O   UNK N   1       8.860   8.828   0.000  0.00  0.00    -0.390 OA
HETATM   64  O   UNK N   1      10.077   7.714   0.000  0.00  0.00    -0.391 OA
HETATM   65  N   UNK N   1       9.721   6.103   0.000  0.00  0.00    -0.350 N 
HETATM   66  C   UNK N   1       9.543   5.297   0.000  0.00  0.00     0.214 A 
HETATM   67  O   UNK N   1       8.756   5.049   0.000  0.00  0.00    -0.274 OA
HETATM   68  C   UNK N   1      10.152   4.740   0.000  0.00  0.00     0.117 A 
HETATM   69  H   UNK N   1       5.963   5.613   0.000  0.00  0.00     0.163 HD
HETATM   70  H   UNK N   1       6.673   1.942   0.000  0.00  0.00     0.163 HD
HETATM   71  H   UNK N   1       2.188   0.616   0.000  0.00  0.00     0.162 HD
HETATM   72  H   UNK N   1       2.474   4.647   0.000  0.00  0.00     0.163 HD
HETATM   73  H   UNK N   1       4.831   2.731   0.000  0.00  0.00     0.163 HD
HETATM   74  H   UNK N   1       3.846  -0.734   0.000  0.00  0.00     0.163 HD
HETATM   75  H   UNK N   1       3.346   3.264   0.000  0.00  0.00     0.163 HD
HETATM   76  H   UNK N   1       4.094  -1.676   0.000  0.00  0.00     0.165 HD
HETATM   77  H   UNK N   1       8.801   4.868   0.000  0.00  0.00     0.165 HD
HETATM   78  H   UNK N   1       8.389   9.429   0.000  0.00  0.00     0.209 HD
HETATM   79  H   UNK N   1       9.785   9.120   0.000  0.00  0.00     0.210 HD
HETATM   80  H   UNK N   1      10.793   7.059   0.000  0.00  0.00     0.210 HD
HETATM   81  H   UNK N   1      10.660   6.400   0.000  0.00  0.00     0.163 HD
ENDROOT
TORSDOF 5
