MODEL 1
REMARK VINA RESULT:      -8.0      0.000      0.000
REMARK  6 active torsions:
REMARK  status: ('A' for Active; 'I' for Inactive)
REMARK    1  A    between atoms: O_2  and  C_3 
REMARK    2  A    between atoms: C_8  and  N_9 
REMARK       I    between atoms: N_9  and  C_10 
REMARK       I    between atoms: C_10  and  N_12 
REMARK    3  A    between atoms: N_12  and  C_13 
REMARK    4  A    between atoms: N_21  and  C_22 
REMARK    5  A    between atoms: C_22  and  C_23 
REMARK    6  A    between atoms: C_28  and  N_30 
ROOT
HETATM    1  C   UNK N   1      34.547  15.876   8.963  0.00  0.00     0.049 A 
HETATM    2  C   UNK N   1      34.937  17.228   9.098  0.00  0.00     0.030 A 
HETATM    3  C   UNK N   1      34.279  18.238   8.357  0.00  0.00     0.005 A 
HETATM    4  C   UNK N   1      33.223  17.910   7.484  0.00  0.00     0.031 A 
HETATM    5  C   UNK N   1      32.871  16.564   7.372  0.00  0.00     0.047 A 
HETATM    6  C   UNK N   1      33.513  15.592   8.082  0.00  0.00     0.019 A 
HETATM    7  C   UNK N   1      32.955  14.376   7.746  0.00  0.00     0.033 A 
HETATM    8  C   UNK N   1      31.969  14.672   6.810  0.00  0.00     0.092 A 
HETATM    9  N   UNK N   1      31.918  16.011   6.607  0.00  0.00    -0.352 N 
ENDROOT
BRANCH   1  10
HETATM   10  N   UNK N   1      35.141  14.814   9.702  0.00  0.00    -0.308 N 
HETATM   11  C   UNK N   1      34.635  14.236  10.818  0.00  0.00     0.325 C 
HETATM   12  N   UNK N   1      35.300  13.180  11.360  0.00  0.00    -0.306 N 
HETATM   13  O   UNK N   1      33.617  14.671  11.335  0.00  0.00    -0.247 OA
HETATM   14  H   UNK N   1      36.096  12.860  10.877  0.00  0.00     0.171 HD
HETATM   15  H   UNK N   1      36.001  14.469   9.372  0.00  0.00     0.170 HD
BRANCH  12  16
HETATM   16  C   UNK N   1      34.954  12.494  12.560  0.00  0.00     0.071 A 
HETATM   17  C   UNK N   1      35.191  13.061  13.822  0.00  0.00     0.051 A 
HETATM   18  C   UNK N   1      34.871  12.367  14.987  0.00  0.00     0.013 A 
HETATM   19  C   UNK N   1      34.308  11.094  14.907  0.00  0.00     0.022 A 
HETATM   20 Br   UNK N   1      35.215  13.161  16.683  0.00  0.00    -0.051 Br
HETATM   21  C   UNK N   1      34.065  10.516  13.659  0.00  0.00     0.040 A 
HETATM   22  C   UNK N   1      34.386  11.208  12.477  0.00  0.00     0.095 A 
BRANCH  22  23
HETATM   23  O   UNK N   1      34.161  10.657  11.258  0.00  0.00    -0.354 OA
HETATM   24  C   UNK N   1      33.266   9.632  11.046  0.00  0.00     0.210 C 
ENDBRANCH  22  23
ENDBRANCH  12  16
ENDBRANCH   1  10
BRANCH   9  25
HETATM   25  C   UNK N   1      30.981  16.688   5.711  0.00  0.00     0.167 C 
BRANCH  25  26
HETATM   26  C   UNK N   1      29.598  16.774   6.306  0.00  0.00    -0.035 A 
HETATM   27  C   UNK N   1      28.577  15.987   5.773  0.00  0.00     0.026 A 
HETATM   28  C   UNK N   1      27.311  16.007   6.366  0.00  0.00     0.090 A 
HETATM   29  N   UNK N   1      27.079  16.783   7.461  0.00  0.00    -0.353 N 
HETATM   30  C   UNK N   1      28.057  17.563   7.995  0.00  0.00     0.099 A 
ATOM     31  HN  UNK N   1      26.153  16.780   7.888  1.00  0.00     0.166 HD
HETATM   32  C   UNK N   1      29.329  17.571   7.428  0.00  0.00     0.056 A 
BRANCH  30  33
HETATM   33  N   UNK N   1      27.790  18.349   9.132  0.00  0.00    -0.385 N 
HETATM   34  H   UNK N   1      27.295  18.101   9.946  0.00  0.00     0.157 HD
HETATM   35  H   UNK N   1      28.144  19.268   9.111  0.00  0.00     0.157 HD
ENDBRANCH  30  33
ENDBRANCH  25  26
ENDBRANCH   9  25
TORSDOF 6
ENDMDL
MODEL 2
REMARK VINA RESULT:      -8.0      2.251      3.834
REMARK  6 active torsions:
REMARK  status: ('A' for Active; 'I' for Inactive)
REMARK    1  A    between atoms: O_2  and  C_3 
REMARK    2  A    between atoms: C_8  and  N_9 
REMARK       I    between atoms: N_9  and  C_10 
REMARK       I    between atoms: C_10  and  N_12 
REMARK    3  A    between atoms: N_12  and  C_13 
REMARK    4  A    between atoms: N_21  and  C_22 
REMARK    5  A    between atoms: C_22  and  C_23 
REMARK    6  A    between atoms: C_28  and  N_30 
ROOT
HETATM    1  C   UNK N   1      36.004  13.839   9.961  0.00  0.00     0.049 A 
HETATM    2  C   UNK N   1      35.807  12.841   8.979  0.00  0.00     0.030 A 
HETATM    3  C   UNK N   1      35.172  13.159   7.755  0.00  0.00     0.005 A 
HETATM    4  C   UNK N   1      34.737  14.474   7.497  0.00  0.00     0.031 A 
HETATM    5  C   UNK N   1      34.941  15.430   8.493  0.00  0.00     0.047 A 
HETATM    6  C   UNK N   1      35.547  15.118   9.675  0.00  0.00     0.019 A 
HETATM    7  C   UNK N   1      35.588  16.259  10.450  0.00  0.00     0.033 A 
HETATM    8  C   UNK N   1      34.980  17.246   9.681  0.00  0.00     0.092 A 
HETATM    9  N   UNK N   1      34.608  16.730   8.485  0.00  0.00    -0.352 N 
ENDROOT
BRANCH   1  10
HETATM   10  N   UNK N   1      36.665  13.598  11.198  0.00  0.00    -0.308 N 
HETATM   11  C   UNK N   1      36.067  13.362  12.390  0.00  0.00     0.325 C 
HETATM   12  N   UNK N   1      36.853  13.078  13.465  0.00  0.00    -0.306 N 
HETATM   13  O   UNK N   1      34.852  13.425  12.499  0.00  0.00    -0.247 OA
HETATM   14  H   UNK N   1      37.822  13.012  13.303  0.00  0.00     0.171 HD
HETATM   15  H   UNK N   1      37.649  13.605  11.186  0.00  0.00     0.170 HD
BRANCH  12  16
HETATM   16  C   UNK N   1      36.407  12.868  14.802  0.00  0.00     0.071 A 
HETATM   17  C   UNK N   1      35.946  11.614  15.232  0.00  0.00     0.051 A 
HETATM   18  C   UNK N   1      35.489  11.431  16.535  0.00  0.00     0.013 A 
HETATM   19  C   UNK N   1      35.488  12.501  17.429  0.00  0.00     0.022 A 
HETATM   20 Br   UNK N   1      34.860   9.719  17.083  0.00  0.00    -0.051 Br
HETATM   21  C   UNK N   1      35.944  13.754  17.018  0.00  0.00     0.040 A 
HETATM   22  C   UNK N   1      36.406  13.950  15.703  0.00  0.00     0.095 A 
BRANCH  22  23
HETATM   23  O   UNK N   1      36.847  15.163  15.288  0.00  0.00    -0.354 OA
HETATM   24  C   UNK N   1      37.506  16.050  16.110  0.00  0.00     0.210 C 
ENDBRANCH  22  23
ENDBRANCH  12  16
ENDBRANCH   1  10
BRANCH   9  25
HETATM   25  C   UNK N   1      33.965  17.484   7.409  0.00  0.00     0.167 C 
BRANCH  25  26
HETATM   26  C   UNK N   1      32.463  17.488   7.547  0.00  0.00    -0.035 A 
HETATM   27  C   UNK N   1      31.689  16.841   6.584  0.00  0.00     0.026 A 
HETATM   28  C   UNK N   1      30.301  16.778   6.745  0.00  0.00     0.090 A 
HETATM   29  N   UNK N   1      29.712  17.338   7.838  0.00  0.00    -0.353 N 
HETATM   30  C   UNK N   1      30.445  17.980   8.786  0.00  0.00     0.099 A 
ATOM     31  HN  UNK N   1      28.699  17.277   7.945  1.00  0.00     0.166 HD
HETATM   32  C   UNK N   1      31.829  18.064   8.657  0.00  0.00     0.056 A 
BRANCH  30  33
HETATM   33  N   UNK N   1      29.809  18.543   9.909  0.00  0.00    -0.385 N 
HETATM   34  H   UNK N   1      30.020  18.412  10.862  0.00  0.00     0.157 HD
HETATM   35  H   UNK N   1      29.054  19.145   9.717  0.00  0.00     0.157 HD
ENDBRANCH  30  33
ENDBRANCH  25  26
ENDBRANCH   9  25
TORSDOF 6
ENDMDL
MODEL 3
REMARK VINA RESULT:      -7.7      1.997      3.226
REMARK  6 active torsions:
REMARK  status: ('A' for Active; 'I' for Inactive)
REMARK    1  A    between atoms: O_2  and  C_3 
REMARK    2  A    between atoms: C_8  and  N_9 
REMARK       I    between atoms: N_9  and  C_10 
REMARK       I    between atoms: C_10  and  N_12 
REMARK    3  A    between atoms: N_12  and  C_13 
REMARK    4  A    between atoms: N_21  and  C_22 
REMARK    5  A    between atoms: C_22  and  C_23 
REMARK    6  A    between atoms: C_28  and  N_30 
ROOT
HETATM    1  C   UNK N   1      35.998  13.900  10.082  0.00  0.00     0.049 A 
HETATM    2  C   UNK N   1      35.802  12.920   9.083  0.00  0.00     0.030 A 
HETATM    3  C   UNK N   1      35.196  13.266   7.853  0.00  0.00     0.005 A 
HETATM    4  C   UNK N   1      34.788  14.592   7.606  0.00  0.00     0.031 A 
HETATM    5  C   UNK N   1      34.991  15.531   8.619  0.00  0.00     0.047 A 
HETATM    6  C   UNK N   1      35.570  15.191   9.807  0.00  0.00     0.019 A 
HETATM    7  C   UNK N   1      35.616  16.320  10.599  0.00  0.00     0.033 A 
HETATM    8  C   UNK N   1      35.040  17.328   9.834  0.00  0.00     0.092 A 
HETATM    9  N   UNK N   1      34.681  16.836   8.623  0.00  0.00    -0.352 N 
ENDROOT
BRANCH   1  10
HETATM   10  N   UNK N   1      36.632  13.630  11.328  0.00  0.00    -0.308 N 
HETATM   11  C   UNK N   1      36.024  13.191  12.455  0.00  0.00     0.325 C 
HETATM   12  N   UNK N   1      36.795  12.913  13.542  0.00  0.00    -0.306 N 
HETATM   13  O   UNK N   1      34.809  13.069  12.499  0.00  0.00    -0.247 OA
HETATM   14  H   UNK N   1      37.769  13.002  13.432  0.00  0.00     0.171 HD
HETATM   15  H   UNK N   1      37.605  13.778  11.374  0.00  0.00     0.170 HD
BRANCH  12  16
HETATM   16  C   UNK N   1      36.326  12.506  14.825  0.00  0.00     0.071 A 
HETATM   17  C   UNK N   1      36.012  13.445  15.821  0.00  0.00     0.051 A 
HETATM   18  C   UNK N   1      35.579  13.031  17.079  0.00  0.00     0.013 A 
HETATM   19  C   UNK N   1      35.452  11.671  17.359  0.00  0.00     0.022 A 
HETATM   20 Br   UNK N   1      35.173  14.330  18.411  0.00  0.00    -0.051 Br
HETATM   21  C   UNK N   1      35.758  10.725  16.379  0.00  0.00     0.040 A 
HETATM   22  C   UNK N   1      36.198  11.133  15.106  0.00  0.00     0.095 A 
BRANCH  22  23
HETATM   23  O   UNK N   1      36.505  10.225  14.146  0.00  0.00    -0.354 OA
HETATM   24  C   UNK N   1      35.560   9.454  13.505  0.00  0.00     0.210 C 
ENDBRANCH  22  23
ENDBRANCH  12  16
ENDBRANCH   1  10
BRANCH   9  25
HETATM   25  C   UNK N   1      34.071  17.616   7.547  0.00  0.00     0.167 C 
BRANCH  25  26
HETATM   26  C   UNK N   1      32.565  17.583   7.614  0.00  0.00    -0.035 A 
HETATM   27  C   UNK N   1      31.852  16.941   6.600  0.00  0.00     0.026 A 
HETATM   28  C   UNK N   1      30.460  16.843   6.694  0.00  0.00     0.090 A 
HETATM   29  N   UNK N   1      29.807  17.362   7.770  0.00  0.00    -0.353 N 
HETATM   30  C   UNK N   1      30.480  17.998   8.767  0.00  0.00     0.099 A 
ATOM     31  HN  UNK N   1      28.792  17.275   7.829  1.00  0.00     0.166 HD
HETATM   32  C   UNK N   1      31.866  18.117   8.706  0.00  0.00     0.056 A 
BRANCH  30  33
HETATM   33  N   UNK N   1      29.778  18.518   9.871  0.00  0.00    -0.385 N 
HETATM   34  H   UNK N   1      30.123  18.742  10.766  0.00  0.00     0.157 HD
HETATM   35  H   UNK N   1      28.817  18.680   9.731  0.00  0.00     0.157 HD
ENDBRANCH  30  33
ENDBRANCH  25  26
ENDBRANCH   9  25
TORSDOF 6
ENDMDL
MODEL 4
REMARK VINA RESULT:      -7.7      2.512      3.495
REMARK  6 active torsions:
REMARK  status: ('A' for Active; 'I' for Inactive)
REMARK    1  A    between atoms: O_2  and  C_3 
REMARK    2  A    between atoms: C_8  and  N_9 
REMARK       I    between atoms: N_9  and  C_10 
REMARK       I    between atoms: C_10  and  N_12 
REMARK    3  A    between atoms: N_12  and  C_13 
REMARK    4  A    between atoms: N_21  and  C_22 
REMARK    5  A    between atoms: C_22  and  C_23 
REMARK    6  A    between atoms: C_28  and  N_30 
ROOT
HETATM    1  C   UNK N   1      33.423  17.076   7.245  0.00  0.00     0.049 A 
HETATM    2  C   UNK N   1      33.908  17.244   5.928  0.00  0.00     0.030 A 
HETATM    3  C   UNK N   1      33.007  17.345   4.842  0.00  0.00     0.005 A 
HETATM    4  C   UNK N   1      31.616  17.285   5.061  0.00  0.00     0.031 A 
HETATM    5  C   UNK N   1      31.175  17.110   6.373  0.00  0.00     0.047 A 
HETATM    6  C   UNK N   1      32.047  17.007   7.417  0.00  0.00     0.019 A 
HETATM    7  C   UNK N   1      31.315  16.826   8.572  0.00  0.00     0.033 A 
HETATM    8  C   UNK N   1      29.985  16.821   8.165  0.00  0.00     0.092 A 
HETATM    9  N   UNK N   1      29.915  17.014   6.825  0.00  0.00    -0.352 N 
ENDROOT
BRANCH   1  10
HETATM   10  N   UNK N   1      34.270  17.003   8.386  0.00  0.00    -0.308 N 
HETATM   11  C   UNK N   1      34.716  15.870   8.980  0.00  0.00     0.325 C 
HETATM   12  N   UNK N   1      35.581  15.981  10.024  0.00  0.00    -0.306 N 
HETATM   13  O   UNK N   1      34.329  14.775   8.597  0.00  0.00    -0.247 OA
HETATM   14  H   UNK N   1      35.876  16.890  10.262  0.00  0.00     0.171 HD
HETATM   15  H   UNK N   1      34.558  17.857   8.782  0.00  0.00     0.170 HD
BRANCH  12  16
HETATM   16  C   UNK N   1      36.099  14.909  10.806  0.00  0.00     0.071 A 
HETATM   17  C   UNK N   1      35.599  14.629  12.087  0.00  0.00     0.051 A 
HETATM   18  C   UNK N   1      36.134  13.593  12.850  0.00  0.00     0.013 A 
HETATM   19  C   UNK N   1      37.177  12.820  12.342  0.00  0.00     0.022 A 
HETATM   20 Br   UNK N   1      35.439  13.246  14.590  0.00  0.00    -0.051 Br
HETATM   21  C   UNK N   1      37.684  13.084  11.069  0.00  0.00     0.040 A 
HETATM   22  C   UNK N   1      37.153  14.130  10.291  0.00  0.00     0.095 A 
BRANCH  22  23
HETATM   23  O   UNK N   1      37.640  14.402   9.055  0.00  0.00    -0.354 OA
HETATM   24  C   UNK N   1      37.620  13.496   8.018  0.00  0.00     0.210 C 
ENDBRANCH  22  23
ENDBRANCH  12  16
ENDBRANCH   1  10
BRANCH   9  25
HETATM   25  C   UNK N   1      28.677  17.097   6.052  0.00  0.00     0.167 C 
BRANCH  25  26
HETATM   26  C   UNK N   1      28.167  18.513   5.958  0.00  0.00    -0.035 A 
HETATM   27  C   UNK N   1      28.305  19.209   4.757  0.00  0.00     0.026 A 
HETATM   28  C   UNK N   1      27.769  20.495   4.641  0.00  0.00     0.090 A 
HETATM   29  N   UNK N   1      27.110  21.061   5.690  0.00  0.00    -0.353 N 
HETATM   30  C   UNK N   1      26.968  20.404   6.873  0.00  0.00     0.099 A 
ATOM     31  HN  UNK N   1      26.717  21.996   5.587  1.00  0.00     0.166 HD
HETATM   32  C   UNK N   1      27.492  19.123   7.026  0.00  0.00     0.056 A 
BRANCH  30  33
HETATM   33  N   UNK N   1      26.275  21.012   7.938  0.00  0.00    -0.385 N 
HETATM   34  H   UNK N   1      25.569  21.696   7.898  0.00  0.00     0.157 HD
HETATM   35  H   UNK N   1      26.531  20.714   8.841  0.00  0.00     0.157 HD
ENDBRANCH  30  33
ENDBRANCH  25  26
ENDBRANCH   9  25
TORSDOF 6
ENDMDL
MODEL 5
REMARK VINA RESULT:      -7.6      5.672      9.005
REMARK  6 active torsions:
REMARK  status: ('A' for Active; 'I' for Inactive)
REMARK    1  A    between atoms: O_2  and  C_3 
REMARK    2  A    between atoms: C_8  and  N_9 
REMARK       I    between atoms: N_9  and  C_10 
REMARK       I    between atoms: C_10  and  N_12 
REMARK    3  A    between atoms: N_12  and  C_13 
REMARK    4  A    between atoms: N_21  and  C_22 
REMARK    5  A    between atoms: C_22  and  C_23 
REMARK    6  A    between atoms: C_28  and  N_30 
ROOT
HETATM    1  C   UNK N   1      27.184  18.659   3.829  0.00  0.00     0.049 A 
HETATM    2  C   UNK N   1      27.218  20.052   3.592  0.00  0.00     0.030 A 
HETATM    3  C   UNK N   1      26.029  20.816   3.655  0.00  0.00     0.005 A 
HETATM    4  C   UNK N   1      24.800  20.199   3.961  0.00  0.00     0.031 A 
HETATM    5  C   UNK N   1      24.804  18.821   4.181  0.00  0.00     0.047 A 
HETATM    6  C   UNK N   1      25.952  18.086   4.112  0.00  0.00     0.019 A 
HETATM    7  C   UNK N   1      25.632  16.767   4.357  0.00  0.00     0.033 A 
HETATM    8  C   UNK N   1      24.257  16.756   4.566  0.00  0.00     0.092 A 
HETATM    9  N   UNK N   1      23.770  18.017   4.473  0.00  0.00    -0.352 N 
ENDROOT
BRANCH   1  10
HETATM   10  N   UNK N   1      28.346  17.836   3.816  0.00  0.00    -0.308 N 
HETATM   11  C   UNK N   1      29.116  17.524   4.886  0.00  0.00     0.325 C 
HETATM   12  N   UNK N   1      30.153  16.662   4.709  0.00  0.00    -0.306 N 
HETATM   13  O   UNK N   1      28.894  18.025   5.978  0.00  0.00    -0.247 OA
HETATM   14  H   UNK N   1      30.259  16.270   3.812  0.00  0.00     0.171 HD
HETATM   15  H   UNK N   1      28.615  17.460   2.948  0.00  0.00     0.170 HD
BRANCH  12  16
HETATM   16  C   UNK N   1      31.103  16.273   5.699  0.00  0.00     0.071 A 
HETATM   17  C   UNK N   1      32.016  17.192   6.238  0.00  0.00     0.051 A 
HETATM   18  C   UNK N   1      32.955  16.790   7.186  0.00  0.00     0.013 A 
HETATM   19  C   UNK N   1      32.994  15.463   7.610  0.00  0.00     0.022 A 
HETATM   20 Br   UNK N   1      34.188  18.060   7.890  0.00  0.00    -0.051 Br
HETATM   21  C   UNK N   1      32.091  14.537   7.084  0.00  0.00     0.040 A 
HETATM   22  C   UNK N   1      31.140  14.931   6.125  0.00  0.00     0.095 A 
BRANCH  22  23
HETATM   23  O   UNK N   1      30.260  14.042   5.601  0.00  0.00    -0.354 OA
HETATM   24  C   UNK N   1      30.592  13.143   4.612  0.00  0.00     0.210 C 
ENDBRANCH  22  23
ENDBRANCH  12  16
ENDBRANCH   1  10
BRANCH   9  25
HETATM   25  C   UNK N   1      22.370  18.392   4.664  0.00  0.00     0.167 C 
BRANCH  25  26
HETATM   26  C   UNK N   1      21.620  18.445   3.356  0.00  0.00    -0.035 A 
HETATM   27  C   UNK N   1      21.038  17.280   2.856  0.00  0.00     0.026 A 
HETATM   28  C   UNK N   1      20.279  17.338   1.683  0.00  0.00     0.090 A 
HETATM   29  N   UNK N   1      20.103  18.525   1.039  0.00  0.00    -0.353 N 
HETATM   30  C   UNK N   1      20.665  19.672   1.503  0.00  0.00     0.099 A 
ATOM     31  HN  UNK N   1      19.539  18.552   0.189  1.00  0.00     0.166 HD
HETATM   32  C   UNK N   1      21.430  19.652   2.667  0.00  0.00     0.056 A 
BRANCH  30  33
HETATM   33  N   UNK N   1      20.459  20.886   0.820  0.00  0.00    -0.385 N 
HETATM   34  H   UNK N   1      19.857  21.068   0.063  0.00  0.00     0.157 HD
HETATM   35  H   UNK N   1      20.987  21.653   1.139  0.00  0.00     0.157 HD
ENDBRANCH  30  33
ENDBRANCH  25  26
ENDBRANCH   9  25
TORSDOF 6
ENDMDL
MODEL 6
REMARK VINA RESULT:      -7.4      6.304      9.516
REMARK  6 active torsions:
REMARK  status: ('A' for Active; 'I' for Inactive)
REMARK    1  A    between atoms: O_2  and  C_3 
REMARK    2  A    between atoms: C_8  and  N_9 
REMARK       I    between atoms: N_9  and  C_10 
REMARK       I    between atoms: C_10  and  N_12 
REMARK    3  A    between atoms: N_12  and  C_13 
REMARK    4  A    between atoms: N_21  and  C_22 
REMARK    5  A    between atoms: C_22  and  C_23 
REMARK    6  A    between atoms: C_28  and  N_30 
ROOT
HETATM    1  C   UNK N   1      27.033  16.767   3.249  0.00  0.00     0.049 A 
HETATM    2  C   UNK N   1      26.572  15.553   2.691  0.00  0.00     0.030 A 
HETATM    3  C   UNK N   1      25.201  15.210   2.760  0.00  0.00     0.005 A 
HETATM    4  C   UNK N   1      24.279  16.078   3.379  0.00  0.00     0.031 A 
HETATM    5  C   UNK N   1      24.773  17.264   3.925  0.00  0.00     0.047 A 
HETATM    6  C   UNK N   1      26.097  17.587   3.862  0.00  0.00     0.019 A 
HETATM    7  C   UNK N   1      26.273  18.798   4.498  0.00  0.00     0.033 A 
HETATM    8  C   UNK N   1      25.007  19.168   4.939  0.00  0.00     0.092 A 
HETATM    9  N   UNK N   1      24.101  18.232   4.566  0.00  0.00    -0.352 N 
ENDROOT
BRANCH   1  10
HETATM   10  N   UNK N   1      28.391  17.190   3.184  0.00  0.00    -0.308 N 
HETATM   11  C   UNK N   1      29.411  16.722   3.942  0.00  0.00     0.325 C 
HETATM   12  N   UNK N   1      30.666  17.187   3.700  0.00  0.00    -0.306 N 
HETATM   13  O   UNK N   1      29.200  15.917   4.838  0.00  0.00    -0.247 OA
HETATM   14  H   UNK N   1      30.772  17.810   2.945  0.00  0.00     0.171 HD
HETATM   15  H   UNK N   1      28.608  17.890   2.527  0.00  0.00     0.170 HD
BRANCH  12  16
HETATM   16  C   UNK N   1      31.842  16.859   4.435  0.00  0.00     0.071 A 
HETATM   17  C   UNK N   1      32.164  17.517   5.633  0.00  0.00     0.051 A 
HETATM   18  C   UNK N   1      33.330  17.203   6.327  0.00  0.00     0.013 A 
HETATM   19  C   UNK N   1      34.193  16.225   5.834  0.00  0.00     0.022 A 
HETATM   20 Br   UNK N   1      33.743  18.123   7.943  0.00  0.00    -0.051 Br
HETATM   21  C   UNK N   1      33.886  15.560   4.645  0.00  0.00     0.040 A 
HETATM   22  C   UNK N   1      32.711  15.871   3.935  0.00  0.00     0.095 A 
BRANCH  22  23
HETATM   23  O   UNK N   1      32.404  15.237   2.776  0.00  0.00    -0.354 OA
HETATM   24  C   UNK N   1      32.026  13.914   2.715  0.00  0.00     0.210 C 
ENDBRANCH  22  23
ENDBRANCH  12  16
ENDBRANCH   1  10
BRANCH   9  25
HETATM   25  C   UNK N   1      22.665  18.302   4.832  0.00  0.00     0.167 C 
BRANCH  25  26
HETATM   26  C   UNK N   1      21.891  18.758   3.621  0.00  0.00    -0.035 A 
HETATM   27  C   UNK N   1      22.169  20.007   3.065  0.00  0.00     0.026 A 
HETATM   28  C   UNK N   1      21.508  20.405   1.899  0.00  0.00     0.090 A 
HETATM   29  N   UNK N   1      20.604  19.576   1.307  0.00  0.00    -0.353 N 
HETATM   30  C   UNK N   1      20.311  18.356   1.834  0.00  0.00     0.099 A 
ATOM     31  HN  UNK N   1      20.136  19.876   0.452  1.00  0.00     0.166 HD
HETATM   32  C   UNK N   1      20.949  17.928   2.996  0.00  0.00     0.056 A 
BRANCH  30  33
HETATM   33  N   UNK N   1      19.378  17.517   1.195  0.00  0.00    -0.385 N 
HETATM   34  H   UNK N   1      19.406  17.155   0.280  0.00  0.00     0.157 HD
HETATM   35  H   UNK N   1      18.595  17.259   1.733  0.00  0.00     0.157 HD
ENDBRANCH  30  33
ENDBRANCH  25  26
ENDBRANCH   9  25
TORSDOF 6
ENDMDL
MODEL 7
REMARK VINA RESULT:      -7.4      3.001      4.752
REMARK  6 active torsions:
REMARK  status: ('A' for Active; 'I' for Inactive)
REMARK    1  A    between atoms: O_2  and  C_3 
REMARK    2  A    between atoms: C_8  and  N_9 
REMARK       I    between atoms: N_9  and  C_10 
REMARK       I    between atoms: C_10  and  N_12 
REMARK    3  A    between atoms: N_12  and  C_13 
REMARK    4  A    between atoms: N_21  and  C_22 
REMARK    5  A    between atoms: C_22  and  C_23 
REMARK    6  A    between atoms: C_28  and  N_30 
ROOT
HETATM    1  C   UNK N   1      30.408  17.405   8.441  0.00  0.00     0.049 A 
HETATM    2  C   UNK N   1      29.336  17.510   9.356  0.00  0.00     0.030 A 
HETATM    3  C   UNK N   1      28.000  17.395   8.907  0.00  0.00     0.005 A 
HETATM    4  C   UNK N   1      27.722  17.167   7.544  0.00  0.00     0.031 A 
HETATM    5  C   UNK N   1      28.805  17.077   6.669  0.00  0.00     0.047 A 
HETATM    6  C   UNK N   1      30.093  17.195   7.105  0.00  0.00     0.019 A 
HETATM    7  C   UNK N   1      30.928  17.079   6.013  0.00  0.00     0.033 A 
HETATM    8  C   UNK N   1      30.083  16.894   4.924  0.00  0.00     0.092 A 
HETATM    9  N   UNK N   1      28.794  16.877   5.342  0.00  0.00    -0.352 N 
ENDROOT
BRANCH   1  10
HETATM   10  N   UNK N   1      31.776  17.476   8.828  0.00  0.00    -0.308 N 
HETATM   11  C   UNK N   1      32.559  16.431   9.190  0.00  0.00     0.325 C 
HETATM   12  N   UNK N   1      33.871  16.668   9.463  0.00  0.00    -0.306 N 
HETATM   13  O   UNK N   1      32.089  15.308   9.289  0.00  0.00    -0.247 OA
HETATM   14  H   UNK N   1      34.193  17.590   9.334  0.00  0.00     0.171 HD
HETATM   15  H   UNK N   1      32.191  18.368   8.836  0.00  0.00     0.170 HD
BRANCH  12  16
HETATM   16  C   UNK N   1      34.822  15.710   9.918  0.00  0.00     0.071 A 
HETATM   17  C   UNK N   1      35.042  15.490  11.287  0.00  0.00     0.051 A 
HETATM   18  C   UNK N   1      35.994  14.568  11.717  0.00  0.00     0.013 A 
HETATM   19  C   UNK N   1      36.740  13.851  10.783  0.00  0.00     0.022 A 
HETATM   20 Br   UNK N   1      36.276  14.303  13.582  0.00  0.00    -0.051 Br
HETATM   21  C   UNK N   1      36.533  14.056   9.418  0.00  0.00     0.040 A 
HETATM   22  C   UNK N   1      35.575  14.987   8.974  0.00  0.00     0.095 A 
BRANCH  22  23
HETATM   23  O   UNK N   1      35.366  15.201   7.651  0.00  0.00    -0.354 OA
HETATM   24  C   UNK N   1      34.725  14.299   6.831  0.00  0.00     0.210 C 
ENDBRANCH  22  23
ENDBRANCH  12  16
ENDBRANCH   1  10
BRANCH   9  25
HETATM   25  C   UNK N   1      27.633  16.674   4.476  0.00  0.00     0.167 C 
BRANCH  25  26
HETATM   26  C   UNK N   1      26.861  17.952   4.264  0.00  0.00    -0.035 A 
HETATM   27  C   UNK N   1      27.557  19.146   4.069  0.00  0.00     0.026 A 
HETATM   28  C   UNK N   1      26.848  20.320   3.799  0.00  0.00     0.090 A 
HETATM   29  N   UNK N   1      25.489  20.297   3.719  0.00  0.00    -0.353 N 
HETATM   30  C   UNK N   1      24.788  19.147   3.911  0.00  0.00     0.099 A 
ATOM     31  HN  UNK N   1      24.986  21.160   3.512  1.00  0.00     0.166 HD
HETATM   32  C   UNK N   1      25.461  17.959   4.185  0.00  0.00     0.056 A 
BRANCH  30  33
HETATM   33  N   UNK N   1      23.383  19.153   3.814  0.00  0.00    -0.385 N 
HETATM   34  H   UNK N   1      22.721  19.324   4.523  0.00  0.00     0.157 HD
HETATM   35  H   UNK N   1      23.015  18.960   2.922  0.00  0.00     0.157 HD
ENDBRANCH  30  33
ENDBRANCH  25  26
ENDBRANCH   9  25
TORSDOF 6
ENDMDL
MODEL 8
REMARK VINA RESULT:      -7.4      5.032     10.990
REMARK  6 active torsions:
REMARK  status: ('A' for Active; 'I' for Inactive)
REMARK    1  A    between atoms: O_2  and  C_3 
REMARK    2  A    between atoms: C_8  and  N_9 
REMARK       I    between atoms: N_9  and  C_10 
REMARK       I    between atoms: C_10  and  N_12 
REMARK    3  A    between atoms: N_12  and  C_13 
REMARK    4  A    between atoms: N_21  and  C_22 
REMARK    5  A    between atoms: C_22  and  C_23 
REMARK    6  A    between atoms: C_28  and  N_30 
ROOT
HETATM    1  C   UNK N   1      35.871  12.719  16.246  0.00  0.00     0.049 A 
HETATM    2  C   UNK N   1      35.459  13.771  17.095  0.00  0.00     0.030 A 
HETATM    3  C   UNK N   1      35.173  13.520  18.458  0.00  0.00     0.005 A 
HETATM    4  C   UNK N   1      35.303  12.220  18.986  0.00  0.00     0.031 A 
HETATM    5  C   UNK N   1      35.705  11.206  18.116  0.00  0.00     0.047 A 
HETATM    6  C   UNK N   1      35.973  11.451  16.801  0.00  0.00     0.019 A 
HETATM    7  C   UNK N   1      36.326  10.257  16.206  0.00  0.00     0.033 A 
HETATM    8  C   UNK N   1      36.249   9.306  17.218  0.00  0.00     0.092 A 
HETATM    9  N   UNK N   1      35.888   9.903  18.380  0.00  0.00    -0.352 N 
ENDROOT
BRANCH   1  10
HETATM   10  N   UNK N   1      36.208  12.907  14.876  0.00  0.00    -0.308 N 
HETATM   11  C   UNK N   1      35.354  12.840  13.827  0.00  0.00     0.325 C 
HETATM   12  N   UNK N   1      35.832  13.118  12.583  0.00  0.00    -0.306 N 
HETATM   13  O   UNK N   1      34.188  12.516  13.995  0.00  0.00    -0.247 OA
HETATM   14  H   UNK N   1      36.773  13.402  12.521  0.00  0.00     0.171 HD
HETATM   15  H   UNK N   1      37.151  13.102  14.673  0.00  0.00     0.170 HD
BRANCH  12  16
HETATM   16  C   UNK N   1      35.101  13.036  11.363  0.00  0.00     0.071 A 
HETATM   17  C   UNK N   1      34.930  11.814  10.693  0.00  0.00     0.051 A 
HETATM   18  C   UNK N   1      34.234  11.754   9.488  0.00  0.00     0.013 A 
HETATM   19  C   UNK N   1      33.697  12.915   8.934  0.00  0.00     0.022 A 
HETATM   20 Br   UNK N   1      34.031  10.081   8.598  0.00  0.00    -0.051 Br
HETATM   21  C   UNK N   1      33.856  14.137   9.589  0.00  0.00     0.040 A 
HETATM   22  C   UNK N   1      34.559  14.210  10.806  0.00  0.00     0.095 A 
BRANCH  22  23
HETATM   23  O   UNK N   1      34.727  15.391  11.450  0.00  0.00    -0.354 OA
HETATM   24  C   UNK N   1      35.447  16.442  10.927  0.00  0.00     0.210 C 
ENDBRANCH  22  23
ENDBRANCH  12  16
ENDBRANCH   1  10
BRANCH   9  25
HETATM   25  C   UNK N   1      35.736   9.218  19.663  0.00  0.00     0.167 C 
BRANCH  25  26
HETATM   26  C   UNK N   1      34.313   9.263  20.159  0.00  0.00    -0.035 A 
HETATM   27  C   UNK N   1      33.316   8.610  19.433  0.00  0.00     0.026 A 
HETATM   28  C   UNK N   1      32.009   8.587  19.927  0.00  0.00     0.090 A 
HETATM   29  N   UNK N   1      31.711   9.190  21.110  0.00  0.00    -0.353 N 
HETATM   30  C   UNK N   1      32.664   9.838  21.833  0.00  0.00     0.099 A 
ATOM     31  HN  UNK N   1      30.754   9.157  21.462  1.00  0.00     0.166 HD
HETATM   32  C   UNK N   1      33.977   9.885  21.371  0.00  0.00     0.056 A 
BRANCH  30  33
HETATM   33  N   UNK N   1      32.329  10.447  23.058  0.00  0.00    -0.385 N 
HETATM   34  H   UNK N   1      32.921  10.910  23.694  0.00  0.00     0.157 HD
HETATM   35  H   UNK N   1      31.379  10.403  23.312  0.00  0.00     0.157 HD
ENDBRANCH  30  33
ENDBRANCH  25  26
ENDBRANCH   9  25
TORSDOF 6
ENDMDL
MODEL 9
REMARK VINA RESULT:      -7.4      5.519     11.010
REMARK  6 active torsions:
REMARK  status: ('A' for Active; 'I' for Inactive)
REMARK    1  A    between atoms: O_2  and  C_3 
REMARK    2  A    between atoms: C_8  and  N_9 
REMARK       I    between atoms: N_9  and  C_10 
REMARK       I    between atoms: C_10  and  N_12 
REMARK    3  A    between atoms: N_12  and  C_13 
REMARK    4  A    between atoms: N_21  and  C_22 
REMARK    5  A    between atoms: C_22  and  C_23 
REMARK    6  A    between atoms: C_28  and  N_30 
ROOT
HETATM    1  C   UNK N   1      35.016  12.675  16.081  0.00  0.00     0.049 A 
HETATM    2  C   UNK N   1      35.120  13.767  16.973  0.00  0.00     0.030 A 
HETATM    3  C   UNK N   1      35.247  13.543  18.364  0.00  0.00     0.005 A 
HETATM    4  C   UNK N   1      35.278  12.230  18.876  0.00  0.00     0.031 A 
HETATM    5  C   UNK N   1      35.164  11.178  17.966  0.00  0.00     0.047 A 
HETATM    6  C   UNK N   1      35.035  11.399  16.625  0.00  0.00     0.019 A 
HETATM    7  C   UNK N   1      34.928  10.175  15.998  0.00  0.00     0.033 A 
HETATM    8  C   UNK N   1      34.995   9.233  17.019  0.00  0.00     0.092 A 
HETATM    9  N   UNK N   1      35.157   9.859  18.210  0.00  0.00    -0.352 N 
ENDROOT
BRANCH   1  10
HETATM   10  N   UNK N   1      34.921  12.827  14.669  0.00  0.00    -0.308 N 
HETATM   11  C   UNK N   1      35.955  12.829  13.794  0.00  0.00     0.325 C 
HETATM   12  N   UNK N   1      35.679  12.913  12.464  0.00  0.00    -0.306 N 
HETATM   13  O   UNK N   1      37.108  12.779  14.195  0.00  0.00    -0.247 OA
HETATM   14  H   UNK N   1      34.729  12.920  12.206  0.00  0.00     0.171 HD
HETATM   15  H   UNK N   1      34.018  12.942  14.294  0.00  0.00     0.170 HD
BRANCH  12  16
HETATM   16  C   UNK N   1      36.634  12.994  11.410  0.00  0.00     0.071 A 
HETATM   17  C   UNK N   1      37.298  11.852  10.933  0.00  0.00     0.051 A 
HETATM   18  C   UNK N   1      38.248  11.951   9.919  0.00  0.00     0.013 A 
HETATM   19  C   UNK N   1      38.549  13.195   9.365  0.00  0.00     0.022 A 
HETATM   20 Br   UNK N   1      39.137  10.383   9.303  0.00  0.00    -0.051 Br
HETATM   21  C   UNK N   1      37.897  14.340   9.827  0.00  0.00     0.040 A 
HETATM   22  C   UNK N   1      36.937  14.251  10.852  0.00  0.00     0.095 A 
BRANCH  22  23
HETATM   23  O   UNK N   1      36.300  15.355  11.315  0.00  0.00    -0.354 OA
HETATM   24  C   UNK N   1      35.495  16.149  10.528  0.00  0.00     0.210 C 
ENDBRANCH  22  23
ENDBRANCH  12  16
ENDBRANCH   1  10
BRANCH   9  25
HETATM   25  C   UNK N   1      35.295   9.185  19.500  0.00  0.00     0.167 C 
BRANCH  25  26
HETATM   26  C   UNK N   1      34.012   9.220  20.292  0.00  0.00    -0.035 A 
HETATM   27  C   UNK N   1      33.978   9.911  21.504  0.00  0.00     0.026 A 
HETATM   28  C   UNK N   1      32.773  10.010  22.206  0.00  0.00     0.090 A 
HETATM   29  N   UNK N   1      31.640   9.443  21.707  0.00  0.00    -0.353 N 
HETATM   30  C   UNK N   1      31.650   8.760  20.531  0.00  0.00     0.099 A 
ATOM     31  HN  UNK N   1      30.766   9.531  22.226  1.00  0.00     0.166 HD
HETATM   32  C   UNK N   1      32.832   8.638  19.806  0.00  0.00     0.056 A 
BRANCH  30  33
HETATM   33  N   UNK N   1      30.461   8.190  20.035  0.00  0.00    -0.385 N 
HETATM   34  H   UNK N   1      30.179   8.080  19.098  0.00  0.00     0.157 HD
HETATM   35  H   UNK N   1      29.828   7.861  20.714  0.00  0.00     0.157 HD
ENDBRANCH  30  33
ENDBRANCH  25  26
ENDBRANCH   9  25
TORSDOF 6
ENDMDL
