REMARK  5 active torsions:
REMARK  status: ('A' for Active; 'I' for Inactive)
REMARK    1  A    between atoms: C_2  and  C_3 
REMARK    2  A    between atoms: C_3  and  N_4 
REMARK    3  A    between atoms: N_9  and  C_12 
REMARK    4  A    between atoms: C_12  and  C_13 
REMARK    5  A    between atoms: C_16  and  C_19 
ROOT
HETATM    1  N   UNK N   1      -0.464  -3.486   0.386  0.00  0.00    -0.283 N 
HETATM    2  C   UNK N   1       0.237  -2.345   0.169  0.00  0.00     0.145 A 
HETATM    3  C   UNK N   1       1.543  -2.342  -0.164  0.00  0.00     0.147 A 
HETATM    4  C   UNK N   1       2.235  -3.531  -0.316  0.00  0.00     0.282 A 
HETATM    5  O   UNK N   1       3.415  -3.525  -0.629  0.00  0.00    -0.265 OA
HETATM    6  N   UNK N   1       1.552  -4.720  -0.100  0.00  0.00    -0.264 N 
HETATM    7  C   UNK N   1       0.202  -4.697   0.255  0.00  0.00     0.333 A 
HETATM    8  O   UNK N   1      -0.395  -5.744   0.452  0.00  0.00    -0.246 OA
HETATM    9  N   UNK N   1       1.979  -1.078  -0.290  0.00  0.00    -0.338 N 
HETATM   10  C   UNK N   1       0.873  -0.330  -0.026  0.00  0.00     0.092 A 
HETATM   11  N   UNK N   1      -0.218  -1.087   0.256  0.00  0.00    -0.329 N 
ATOM     12  HN  UNK N   1      -1.162  -0.773   0.482  1.00  0.00     0.168 HD
HETATM   13  H   UNK N   1       2.884  -0.766  -0.519  0.00  0.00     0.167 HD
ENDROOT
BRANCH  10  14
HETATM   14  C   UNK N   1       0.869   1.168   0.011  0.00  0.00     0.023 C 
HETATM   15  C   UNK N   1      -0.519   1.765   0.240  0.00  0.00     0.022 C 
HETATM   16  C   UNK N   1      -0.346   3.171  -0.296  0.00  0.00    -0.013 C 
HETATM   17  C   UNK N   1       0.705   3.916   0.585  0.00  0.00     0.009 C 
HETATM   18  C   UNK N   1       0.283   2.842  -1.640  0.00  0.00     0.010 C 
HETATM   19  C   UNK N   1       2.038   3.108   0.672  0.00  0.00    -0.013 C 
HETATM   20  C   UNK N   1       1.735   1.703   1.146  0.00  0.00     0.022 C 
HETATM   21  C   UNK N   1       2.508   2.783  -0.736  0.00  0.00     0.010 C 
HETATM   22  C   UNK N   1       1.401   1.868  -1.266  0.00  0.00     0.002 C 
ENDBRANCH  10  14
BRANCH   1  23
HETATM   23  C   UNK N   1      -1.873  -3.434   0.777  0.00  0.00     0.135 C 
BRANCH  23  24
HETATM   24  C   UNK N   1      -2.717  -2.805  -0.320  0.00  0.00     0.016 C 
HETATM   25  C   UNK N   1      -4.008  -2.284   0.275  0.00  0.00     0.006 C 
ENDBRANCH  23  24
ENDBRANCH   1  23
BRANCH   6  26
HETATM   26  C   UNK N   1       2.238  -6.005  -0.261  0.00  0.00     0.137 C 
BRANCH  26  27
HETATM   27  C   UNK N   1       3.352  -6.165   0.760  0.00  0.00     0.016 C 
HETATM   28  C   UNK N   1       4.256  -7.305   0.341  0.00  0.00     0.006 C 
ENDBRANCH  26  27
ENDBRANCH   6  26
TORSDOF 5
