REMARK  6 active torsions:
REMARK  status: ('A' for Active; 'I' for Inactive)
REMARK    1  A    between atoms: C_2  and  N_3 
REMARK    2  A    between atoms: C_4  and  C_27 
REMARK    3  A    between atoms: C_10  and  N_18 
REMARK    4  A    between atoms: N_18  and  C_19 
REMARK       I    between atoms: C_27  and  N_29 
REMARK    5  A    between atoms: N_29  and  C_30 
REMARK    6  A    between atoms: N_29  and  C_33 
ROOT
HETATM    1  N   UNK N   1       5.518  -0.242   0.174  0.00  0.00    -0.328 N 
HETATM    2  C   UNK N   1       5.663   1.113   0.052  0.00  0.00     0.105 A 
HETATM    3  C   UNK N   1       4.418   1.736   0.149  0.00  0.00     0.053 A 
HETATM    4  C   UNK N   1       3.519   0.725   0.317  0.00  0.00     0.040 A 
HETATM    5  C   UNK N   1       4.196  -0.462   0.321  0.00  0.00     0.122 A 
HETATM    6  N   UNK N   1       3.555  -1.670   0.453  0.00  0.00    -0.326 N 
ATOM      7  HN  UNK N   1       4.088  -2.540   0.461  1.00  0.00     0.169 HD
HETATM    8  C   UNK N   1       2.178  -1.690   0.576  0.00  0.00     0.138 A 
HETATM    9  C   UNK N   1       1.491  -0.446   0.612  0.00  0.00     0.106 A 
HETATM   10  C   UNK N   1       2.156   0.726   0.479  0.00  0.00     0.080 A 
HETATM   11  N   UNK N   1       1.284   1.739   0.541  0.00  0.00    -0.345 N 
HETATM   12  C   UNK N   1       0.074   1.164   0.726  0.00  0.00     0.183 A 
HETATM   13  N   UNK N   1       0.176  -0.191   0.777  0.00  0.00    -0.347 N 
ATOM     14  HN  UNK N   1      -0.576  -0.866   0.911  1.00  0.00     0.167 HD
HETATM   15  C   UNK N   1       1.557   3.162   0.444  0.00  0.00     0.157 C 
ENDROOT
BRANCH   8  16
HETATM   16  N   UNK N   1       1.487  -2.931   0.678  0.00  0.00    -0.326 N 
HETATM   17  H   UNK N   1       1.956  -3.704   1.067  0.00  0.00     0.169 HD
BRANCH  16  18
HETATM   18  C   UNK N   1       0.145  -3.094   0.238  0.00  0.00     0.123 A 
HETATM   19  C   UNK N   1      -0.754  -4.028   0.726  0.00  0.00     0.076 A 
HETATM   20  C   UNK N   1      -1.917  -3.743   0.029  0.00  0.00     0.028 A 
HETATM   21  N   UNK N   1      -1.693  -2.722  -0.817  0.00  0.00    -0.299 N 
HETATM   22  C   UNK N   1      -3.225  -4.436   0.196  0.00  0.00     0.070 C 
HETATM   23  N   UNK N   1      -0.441  -2.325  -0.702  0.00  0.00    -0.283 N 
HETATM   24  C   UNK N   1      -2.652  -2.105  -1.718  0.00  0.00     0.177 C 
ATOM     25  HN  UNK N   1       0.003  -1.572  -1.228  1.00  0.00     0.188 HD
ENDBRANCH  16  18
ENDBRANCH   8  16
BRANCH   1  26
HETATM   26  C   UNK N   1       6.570  -1.253   0.151  0.00  0.00     0.126 C 
HETATM   27  C   UNK N   1       6.396  -2.188  -1.031  0.00  0.00     0.027 C 
ENDBRANCH   1  26
BRANCH   2  28
HETATM   28  C   UNK N   1       6.963   1.841  -0.144  0.00  0.00     0.271 C 
HETATM   29  O   UNK N   1       8.001   1.203  -0.031  0.00  0.00    -0.266 OA
HETATM   30  N   UNK N   1       7.023   3.190  -0.450  0.00  0.00    -0.337 N 
BRANCH  30  31
HETATM   31  C   UNK N   1       8.334   3.832  -0.618  0.00  0.00     0.088 A 
HETATM   32  C   UNK N   1       8.516   5.032   0.310  0.00  0.00     0.027 A 
HETATM   33  C   UNK N   1       9.161   3.723   0.662  0.00  0.00     0.027 A 
ENDBRANCH  30  31
BRANCH  30  34
HETATM   34  C   UNK N   1       5.784   3.919  -0.755  0.00  0.00     0.088 A 
HETATM   35  C   UNK N   1       5.477   4.963   0.300  0.00  0.00     0.027 A 
HETATM   36  C   UNK N   1       5.951   5.396  -1.074  0.00  0.00     0.027 A 
ENDBRANCH  30  34
ENDBRANCH   2  28
TORSDOF 6
