MODEL 1
REMARK VINA RESULT:      -7.7      0.000      0.000
REMARK  4 active torsions:
REMARK  status: ('A' for Active; 'I' for Inactive)
REMARK    1  A    between atoms: C_2  and  C_3 
REMARK    2  A    between atoms: C_3  and  N_5 
REMARK       I    between atoms: N_5  and  C_6 
REMARK    3  A    between atoms: C_17  and  C_18 
REMARK    4  A    between atoms: C_21  and  O_26 
ROOT
HETATM    1  N   UNK N   1      27.506  18.244   4.487  0.00  0.00    -0.220 N 
HETATM    2  C   UNK N   1      28.268  17.886   5.629  0.00  0.00     0.702 A 
HETATM    3  N   UNK N   1      27.705  17.841   6.870  0.00  0.00    -0.179 N 
ATOM      4  HN  UNK N   1      26.710  18.038   6.983  1.00  0.00     0.185 HD
HETATM    5  C   UNK N   1      28.468  17.536   7.961  0.00  0.00     0.095 A 
HETATM    6  N   UNK N   1      29.803  17.303   7.822  0.00  0.00    -0.329 N 
ATOM      7  HN  UNK N   1      30.382  17.086   8.633  1.00  0.00     0.168 HD
HETATM    8  C   UNK N   1      30.344  17.365   6.582  0.00  0.00     0.160 A 
HETATM    9  N   UNK N   1      29.593  17.632   5.517  0.00  0.00    -0.069 N 
HETATM   10  N   UNK N   1      30.332  17.658   4.428  0.00  0.00    -0.282 N 
ATOM     11  HN  UNK N   1      30.001  17.839   3.480  1.00  0.00     0.188 HD
HETATM   12  C   UNK N   1      31.611  17.401   4.792  0.00  0.00     0.038 A 
HETATM   13  C   UNK N   1      31.674  17.205   6.197  0.00  0.00     0.046 A 
HETATM   14  C   UNK N   1      32.694  17.393   3.778  0.00  0.00     0.070 C 
HETATM   15  C   UNK N   1      27.845  17.476   9.310  0.00  0.00     0.089 C 
HETATM   16  H   UNK N   1      27.747  17.852   3.615  0.00  0.00     0.178 HD
ENDROOT
BRANCH  13  17
HETATM   17  C   UNK N   1      32.794  16.911   7.177  0.00  0.00     0.002 A 
HETATM   18  C   UNK N   1      33.502  18.022   7.665  0.00  0.00     0.018 A 
HETATM   19  C   UNK N   1      34.527  17.895   8.589  0.00  0.00     0.057 A 
HETATM   20  C   UNK N   1      34.874  16.628   9.051  0.00  0.00     0.141 A 
HETATM   21  N   UNK N   1      34.209  15.543   8.576  0.00  0.00    -0.340 N 
HETATM   22  C   UNK N   1      33.197  15.633   7.667  0.00  0.00     0.018 A 
ATOM     23  HN  UNK N   1      34.481  14.620   8.913  1.00  0.00     0.167 HD
HETATM   24  C   UNK N   1      32.553  14.363   7.267  0.00  0.00     0.069 C 
BRANCH  20  25
HETATM   25  O   UNK N   1      35.846  16.457   9.976  0.00  0.00    -0.341 OA
HETATM   26  C   UNK N   1      35.591  16.067  11.274  0.00  0.00     0.211 C 
ENDBRANCH  20  25
ENDBRANCH  13  17
BRANCH   1  27
HETATM   27  C   UNK N   1      26.389  19.165   4.550  0.00  0.00     0.095 C 
HETATM   28  C   UNK N   1      25.385  18.975   3.421  0.00  0.00     0.032 C 
BRANCH  27  29
HETATM   29  C   UNK N   1      26.880  20.607   4.620  0.00  0.00     0.021 C 
HETATM   30  C   UNK N   1      26.625  21.239   5.980  0.00  0.00     0.007 C 
ENDBRANCH  27  29
ENDBRANCH   1  27
TORSDOF 4
ENDMDL
MODEL 2
REMARK VINA RESULT:      -6.8      7.683     11.377
REMARK  4 active torsions:
REMARK  status: ('A' for Active; 'I' for Inactive)
REMARK    1  A    between atoms: C_2  and  C_3 
REMARK    2  A    between atoms: C_3  and  N_5 
REMARK       I    between atoms: N_5  and  C_6 
REMARK    3  A    between atoms: C_17  and  C_18 
REMARK    4  A    between atoms: C_21  and  O_26 
ROOT
HETATM    1  N   UNK N   1      36.171  14.167  11.169  0.00  0.00    -0.220 N 
HETATM    2  C   UNK N   1      35.779  13.279  12.204  0.00  0.00     0.702 A 
HETATM    3  N   UNK N   1      35.024  12.175  11.940  0.00  0.00    -0.179 N 
ATOM      4  HN  UNK N   1      34.758  11.959  10.980  1.00  0.00     0.185 HD
HETATM    5  C   UNK N   1      34.622  11.357  12.959  0.00  0.00     0.095 A 
HETATM    6  N   UNK N   1      34.947  11.656  14.248  0.00  0.00    -0.329 N 
ATOM      7  HN  UNK N   1      34.640  11.057  15.015  1.00  0.00     0.168 HD
HETATM    8  C   UNK N   1      35.686  12.765  14.488  0.00  0.00     0.160 A 
HETATM    9  N   UNK N   1      36.103  13.542  13.492  0.00  0.00    -0.069 N 
HETATM   10  N   UNK N   1      36.787  14.564  13.961  0.00  0.00    -0.282 N 
ATOM     11  HN  UNK N   1      37.216  15.306  13.408  1.00  0.00     0.188 HD
HETATM   12  C   UNK N   1      36.817  14.454  15.311  0.00  0.00     0.038 A 
HETATM   13  C   UNK N   1      36.106  13.291  15.708  0.00  0.00     0.046 A 
HETATM   14  C   UNK N   1      37.495  15.485  16.134  0.00  0.00     0.070 C 
HETATM   15  C   UNK N   1      33.809  10.148  12.664  0.00  0.00     0.089 C 
HETATM   16  H   UNK N   1      37.027  14.647  11.256  0.00  0.00     0.178 HD
ENDROOT
BRANCH  13  17
HETATM   17  C   UNK N   1      35.778  12.654  17.045  0.00  0.00     0.002 A 
HETATM   18  C   UNK N   1      35.998  11.270  17.146  0.00  0.00     0.018 A 
HETATM   19  C   UNK N   1      35.768  10.571  18.320  0.00  0.00     0.057 A 
HETATM   20  C   UNK N   1      35.301  11.256  19.440  0.00  0.00     0.141 A 
HETATM   21  N   UNK N   1      35.068  12.591  19.353  0.00  0.00    -0.340 N 
HETATM   22  C   UNK N   1      35.283  13.308  18.214  0.00  0.00     0.018 A 
ATOM     23  HN  UNK N   1      34.716  13.078  20.176  1.00  0.00     0.167 HD
HETATM   24  C   UNK N   1      35.009  14.759  18.285  0.00  0.00     0.069 C 
BRANCH  20  25
HETATM   25  O   UNK N   1      35.093  10.621  20.617  0.00  0.00    -0.341 OA
HETATM   26  C   UNK N   1      33.872  10.095  20.982  0.00  0.00     0.211 C 
ENDBRANCH  20  25
ENDBRANCH  13  17
BRANCH   1  27
HETATM   27  C   UNK N   1      35.362  14.398   9.989  0.00  0.00     0.095 C 
HETATM   28  C   UNK N   1      36.166  14.398   8.696  0.00  0.00     0.032 C 
BRANCH  27  29
HETATM   29  C   UNK N   1      34.546  15.678  10.136  0.00  0.00     0.021 C 
HETATM   30  C   UNK N   1      35.349  16.807  10.762  0.00  0.00     0.007 C 
ENDBRANCH  27  29
ENDBRANCH   1  27
TORSDOF 4
ENDMDL
MODEL 3
REMARK VINA RESULT:      -6.8      2.991      7.809
REMARK  4 active torsions:
REMARK  status: ('A' for Active; 'I' for Inactive)
REMARK    1  A    between atoms: C_2  and  C_3 
REMARK    2  A    between atoms: C_3  and  N_5 
REMARK       I    between atoms: N_5  and  C_6 
REMARK    3  A    between atoms: C_17  and  C_18 
REMARK    4  A    between atoms: C_21  and  O_26 
ROOT
HETATM    1  N   UNK N   1      32.780  15.934   8.067  0.00  0.00    -0.220 N 
HETATM    2  C   UNK N   1      32.034  16.312   6.921  0.00  0.00     0.702 A 
HETATM    3  N   UNK N   1      32.571  16.232   5.670  0.00  0.00    -0.179 N 
ATOM      4  HN  UNK N   1      33.514  15.866   5.544  1.00  0.00     0.185 HD
HETATM    5  C   UNK N   1      31.850  16.642   4.584  0.00  0.00     0.095 A 
HETATM    6  N   UNK N   1      30.601  17.162   4.747  0.00  0.00    -0.329 N 
ATOM      7  HN  UNK N   1      30.061  17.482   3.942  1.00  0.00     0.168 HD
HETATM    8  C   UNK N   1      30.093  17.245   5.999  0.00  0.00     0.160 A 
HETATM    9  N   UNK N   1      30.785  16.816   7.051  0.00  0.00    -0.069 N 
HETATM   10  N   UNK N   1      30.104  17.011   8.160  0.00  0.00    -0.282 N 
ATOM     11  HN  UNK N   1      30.407  16.770   9.104  1.00  0.00     0.188 HD
HETATM   12  C   UNK N   1      28.925  17.589   7.823  0.00  0.00     0.038 A 
HETATM   13  C   UNK N   1      28.870  17.768   6.417  0.00  0.00     0.046 A 
HETATM   14  C   UNK N   1      27.945  17.963   8.872  0.00  0.00     0.070 C 
HETATM   15  C   UNK N   1      32.435  16.541   3.222  0.00  0.00     0.089 C 
HETATM   16  H   UNK N   1      32.299  15.564   8.843  0.00  0.00     0.178 HD
ENDROOT
BRANCH  13  17
HETATM   17  C   UNK N   1      27.850  18.361   5.462  0.00  0.00     0.002 A 
HETATM   18  C   UNK N   1      28.156  19.624   4.930  0.00  0.00     0.018 A 
HETATM   19  C   UNK N   1      27.325  20.264   4.024  0.00  0.00     0.057 A 
HETATM   20  C   UNK N   1      26.145  19.640   3.625  0.00  0.00     0.141 A 
HETATM   21  N   UNK N   1      25.828  18.425   4.144  0.00  0.00    -0.340 N 
HETATM   22  C   UNK N   1      26.622  17.770   5.037  0.00  0.00     0.018 A 
ATOM     23  HN  UNK N   1      24.956  17.985   3.852  1.00  0.00     0.167 HD
HETATM   24  C   UNK N   1      26.153  16.442   5.489  0.00  0.00     0.069 C 
BRANCH  20  25
HETATM   25  O   UNK N   1      25.318  20.211   2.719  0.00  0.00    -0.341 OA
HETATM   26  C   UNK N   1      24.020  20.572   3.008  0.00  0.00     0.211 C 
ENDBRANCH  20  25
ENDBRANCH  13  17
BRANCH   1  27
HETATM   27  C   UNK N   1      34.221  16.072   8.143  0.00  0.00     0.095 C 
HETATM   28  C   UNK N   1      34.923  14.814   8.634  0.00  0.00     0.032 C 
BRANCH  27  29
HETATM   29  C   UNK N   1      34.604  17.286   8.984  0.00  0.00     0.021 C 
HETATM   30  C   UNK N   1      34.586  18.576   8.178  0.00  0.00     0.007 C 
ENDBRANCH  27  29
ENDBRANCH   1  27
TORSDOF 4
ENDMDL
MODEL 4
REMARK VINA RESULT:      -6.7      1.530      3.477
REMARK  4 active torsions:
REMARK  status: ('A' for Active; 'I' for Inactive)
REMARK    1  A    between atoms: C_2  and  C_3 
REMARK    2  A    between atoms: C_3  and  N_5 
REMARK       I    between atoms: N_5  and  C_6 
REMARK    3  A    between atoms: C_17  and  C_18 
REMARK    4  A    between atoms: C_21  and  O_26 
ROOT
HETATM    1  N   UNK N   1      27.862  18.424   5.022  0.00  0.00    -0.220 N 
HETATM    2  C   UNK N   1      29.198  17.979   5.196  0.00  0.00     0.702 A 
HETATM    3  N   UNK N   1      30.019  17.771   4.127  0.00  0.00    -0.179 N 
ATOM      4  HN  UNK N   1      29.684  17.966   3.184  1.00  0.00     0.185 HD
HETATM    5  C   UNK N   1      31.288  17.300   4.316  0.00  0.00     0.095 A 
HETATM    6  N   UNK N   1      31.732  17.007   5.570  0.00  0.00    -0.329 N 
ATOM      7  HN  UNK N   1      32.673  16.644   5.718  1.00  0.00     0.168 HD
HETATM    8  C   UNK N   1      30.895  17.209   6.616  0.00  0.00     0.160 A 
HETATM    9  N   UNK N   1      29.671  17.696   6.432  0.00  0.00    -0.069 N 
HETATM   10  N   UNK N   1      29.036  17.792   7.581  0.00  0.00    -0.282 N 
ATOM     11  HN  UNK N   1      28.086  18.136   7.718  1.00  0.00     0.188 HD
HETATM   12  C   UNK N   1      29.873  17.349   8.551  0.00  0.00     0.038 A 
HETATM   13  C   UNK N   1      31.105  16.951   7.969  0.00  0.00     0.046 A 
HETATM   14  C   UNK N   1      29.427  17.304   9.965  0.00  0.00     0.070 C 
HETATM   15  C   UNK N   1      32.182  17.087   3.148  0.00  0.00     0.089 C 
HETATM   16  H   UNK N   1      27.455  18.985   5.722  0.00  0.00     0.178 HD
ENDROOT
BRANCH  13  17
HETATM   17  C   UNK N   1      32.396  16.369   8.514  0.00  0.00     0.002 A 
HETATM   18  C   UNK N   1      32.331  15.051   8.993  0.00  0.00     0.018 A 
HETATM   19  C   UNK N   1      33.444  14.390   9.488  0.00  0.00     0.057 A 
HETATM   20  C   UNK N   1      34.670  15.051   9.517  0.00  0.00     0.141 A 
HETATM   21  N   UNK N   1      34.745  16.332   9.074  0.00  0.00    -0.340 N 
HETATM   22  C   UNK N   1      33.670  17.010   8.581  0.00  0.00     0.018 A 
ATOM     23  HN  UNK N   1      35.646  16.808   9.111  1.00  0.00     0.167 HD
HETATM   24  C   UNK N   1      33.917  18.390   8.110  0.00  0.00     0.069 C 
BRANCH  20  25
HETATM   25  O   UNK N   1      35.791  14.437   9.963  0.00  0.00    -0.341 OA
HETATM   26  C   UNK N   1      36.176  14.441  11.286  0.00  0.00     0.211 C 
ENDBRANCH  20  25
ENDBRANCH  13  17
BRANCH   1  27
HETATM   27  C   UNK N   1      27.071  18.086   3.856  0.00  0.00     0.095 C 
HETATM   28  C   UNK N   1      25.983  19.106   3.548  0.00  0.00     0.032 C 
BRANCH  27  29
HETATM   29  C   UNK N   1      26.494  16.680   3.983  0.00  0.00     0.021 C 
HETATM   30  C   UNK N   1      26.310  16.007   2.631  0.00  0.00     0.007 C 
ENDBRANCH  27  29
ENDBRANCH   1  27
TORSDOF 4
ENDMDL
MODEL 5
REMARK VINA RESULT:      -6.7      1.018      1.759
REMARK  4 active torsions:
REMARK  status: ('A' for Active; 'I' for Inactive)
REMARK    1  A    between atoms: C_2  and  C_3 
REMARK    2  A    between atoms: C_3  and  N_5 
REMARK       I    between atoms: N_5  and  C_6 
REMARK    3  A    between atoms: C_17  and  C_18 
REMARK    4  A    between atoms: C_21  and  O_26 
ROOT
HETATM    1  N   UNK N   1      27.732  18.554   4.595  0.00  0.00    -0.220 N 
HETATM    2  C   UNK N   1      28.386  17.981   5.717  0.00  0.00     0.702 A 
HETATM    3  N   UNK N   1      27.761  17.882   6.925  0.00  0.00    -0.179 N 
ATOM      4  HN  UNK N   1      26.796  18.194   7.025  1.00  0.00     0.185 HD
HETATM    5  C   UNK N   1      28.425  17.367   8.003  0.00  0.00     0.095 A 
HETATM    6  N   UNK N   1      29.726  16.977   7.885  0.00  0.00    -0.329 N 
ATOM      7  HN  UNK N   1      30.232  16.603   8.688  1.00  0.00     0.168 HD
HETATM    8  C   UNK N   1      30.331  17.097   6.680  0.00  0.00     0.160 A 
HETATM    9  N   UNK N   1      29.673  17.570   5.625  0.00  0.00    -0.069 N 
HETATM   10  N   UNK N   1      30.461  17.612   4.572  0.00  0.00    -0.282 N 
ATOM     11  HN  UNK N   1      30.203  17.933   3.638  1.00  0.00     0.188 HD
HETATM   12  C   UNK N   1      31.678  17.153   4.951  0.00  0.00     0.038 A 
HETATM   13  C   UNK N   1      31.647  16.805   6.326  0.00  0.00     0.046 A 
HETATM   14  C   UNK N   1      32.800  17.110   3.981  0.00  0.00     0.070 C 
HETATM   15  C   UNK N   1      27.735  17.249   9.314  0.00  0.00     0.089 C 
HETATM   16  H   UNK N   1      27.964  18.227   3.695  0.00  0.00     0.178 HD
ENDROOT
BRANCH  13  17
HETATM   17  C   UNK N   1      32.671  16.267   7.307  0.00  0.00     0.002 A 
HETATM   18  C   UNK N   1      32.672  14.877   7.507  0.00  0.00     0.018 A 
HETATM   19  C   UNK N   1      33.575  14.253   8.353  0.00  0.00     0.057 A 
HETATM   20  C   UNK N   1      34.514  15.025   9.033  0.00  0.00     0.141 A 
HETATM   21  N   UNK N   1      34.515  16.372   8.863  0.00  0.00    -0.340 N 
HETATM   22  C   UNK N   1      33.640  17.016   8.039  0.00  0.00     0.018 A 
ATOM     23  HN  UNK N   1      35.200  16.927   9.375  1.00  0.00     0.167 HD
HETATM   24  C   UNK N   1      33.786  18.485   7.939  0.00  0.00     0.069 C 
BRANCH  20  25
HETATM   25  O   UNK N   1      35.437  14.458   9.844  0.00  0.00    -0.341 OA
HETATM   26  C   UNK N   1      36.795  14.614   9.666  0.00  0.00     0.211 C 
ENDBRANCH  20  25
ENDBRANCH  13  17
BRANCH   1  27
HETATM   27  C   UNK N   1      26.739  19.601   4.720  0.00  0.00     0.095 C 
HETATM   28  C   UNK N   1      25.319  19.072   4.869  0.00  0.00     0.032 C 
BRANCH  27  29
HETATM   29  C   UNK N   1      26.845  20.588   3.561  0.00  0.00     0.021 C 
HETATM   30  C   UNK N   1      25.617  20.559   2.664  0.00  0.00     0.007 C 
ENDBRANCH  27  29
ENDBRANCH   1  27
TORSDOF 4
ENDMDL
MODEL 6
REMARK VINA RESULT:      -6.5      8.111     12.057
REMARK  4 active torsions:
REMARK  status: ('A' for Active; 'I' for Inactive)
REMARK    1  A    between atoms: C_2  and  C_3 
REMARK    2  A    between atoms: C_3  and  N_5 
REMARK       I    between atoms: N_5  and  C_6 
REMARK    3  A    between atoms: C_17  and  C_18 
REMARK    4  A    between atoms: C_21  and  O_26 
ROOT
HETATM    1  N   UNK N   1      35.548  14.491  11.883  0.00  0.00    -0.220 N 
HETATM    2  C   UNK N   1      35.887  14.316  13.250  0.00  0.00     0.702 A 
HETATM    3  N   UNK N   1      36.574  15.274  13.937  0.00  0.00    -0.179 N 
ATOM      4  HN  UNK N   1      36.825  16.148  13.475  1.00  0.00     0.185 HD
HETATM    5  C   UNK N   1      36.928  15.065  15.240  0.00  0.00     0.095 A 
HETATM    6  N   UNK N   1      36.623  13.887  15.854  0.00  0.00    -0.329 N 
ATOM      7  HN  UNK N   1      36.895  13.719  16.822  1.00  0.00     0.168 HD
HETATM    8  C   UNK N   1      35.953  12.945  15.149  0.00  0.00     0.160 A 
HETATM    9  N   UNK N   1      35.582  13.163  13.890  0.00  0.00    -0.069 N 
HETATM   10  N   UNK N   1      34.962  12.109  13.404  0.00  0.00    -0.282 N 
ATOM     11  HN  UNK N   1      34.578  12.016  12.464  1.00  0.00     0.188 HD
HETATM   12  C   UNK N   1      34.927  11.167  14.377  0.00  0.00     0.038 A 
HETATM   13  C   UNK N   1      35.567  11.665  15.542  0.00  0.00     0.046 A 
HETATM   14  C   UNK N   1      34.314   9.841  14.118  0.00  0.00     0.070 C 
HETATM   15  C   UNK N   1      37.665  16.117  15.987  0.00  0.00     0.089 C 
HETATM   16  H   UNK N   1      34.722  14.074  11.544  0.00  0.00     0.178 HD
ENDROOT
BRANCH  13  17
HETATM   17  C   UNK N   1      35.858  11.095  16.918  0.00  0.00     0.002 A 
HETATM   18  C   UNK N   1      35.280  11.769  18.006  0.00  0.00     0.018 A 
HETATM   19  C   UNK N   1      35.442  11.336  19.312  0.00  0.00     0.057 A 
HETATM   20  C   UNK N   1      36.203  10.196  19.562  0.00  0.00     0.141 A 
HETATM   21  N   UNK N   1      36.783   9.544  18.521  0.00  0.00    -0.340 N 
HETATM   22  C   UNK N   1      36.644   9.944  17.225  0.00  0.00     0.018 A 
ATOM     23  HN  UNK N   1      37.347   8.718  18.718  1.00  0.00     0.167 HD
HETATM   24  C   UNK N   1      37.313   9.112  16.201  0.00  0.00     0.069 C 
BRANCH  20  25
HETATM   25  O   UNK N   1      36.363   9.717  20.817  0.00  0.00    -0.341 OA
HETATM   26  C   UNK N   1      35.305   9.388  21.637  0.00  0.00     0.211 C 
ENDBRANCH  20  25
ENDBRANCH  13  17
BRANCH   1  27
HETATM   27  C   UNK N   1      36.367  15.258  10.966  0.00  0.00     0.095 C 
HETATM   28  C   UNK N   1      35.655  16.474  10.391  0.00  0.00     0.032 C 
BRANCH  27  29
HETATM   29  C   UNK N   1      36.922  14.364   9.861  0.00  0.00     0.021 C 
HETATM   30  C   UNK N   1      38.015  13.434  10.365  0.00  0.00     0.007 C 
ENDBRANCH  27  29
ENDBRANCH   1  27
TORSDOF 4
ENDMDL
MODEL 7
REMARK VINA RESULT:      -6.5      6.522     10.329
REMARK  4 active torsions:
REMARK  status: ('A' for Active; 'I' for Inactive)
REMARK    1  A    between atoms: C_2  and  C_3 
REMARK    2  A    between atoms: C_3  and  N_5 
REMARK       I    between atoms: N_5  and  C_6 
REMARK    3  A    between atoms: C_17  and  C_18 
REMARK    4  A    between atoms: C_21  and  O_26 
ROOT
HETATM    1  N   UNK N   1      35.565  15.207  10.388  0.00  0.00    -0.220 N 
HETATM    2  C   UNK N   1      35.465  14.029  11.173  0.00  0.00     0.702 A 
HETATM    3  N   UNK N   1      34.886  12.897  10.679  0.00  0.00    -0.179 N 
ATOM      4  HN  UNK N   1      34.545  12.879   9.718  1.00  0.00     0.185 HD
HETATM    5  C   UNK N   1      34.762  11.789  11.468  0.00  0.00     0.095 A 
HETATM    6  N   UNK N   1      35.186  11.816  12.762  0.00  0.00    -0.329 N 
ATOM      7  HN  UNK N   1      35.085  10.996  13.361  1.00  0.00     0.168 HD
HETATM    8  C   UNK N   1      35.745  12.955  13.236  0.00  0.00     0.160 A 
HETATM    9  N   UNK N   1      35.894  14.023  12.457  0.00  0.00    -0.069 N 
HETATM   10  N   UNK N   1      36.442  15.012  13.131  0.00  0.00    -0.282 N 
ATOM     11  HN  UNK N   1      36.663  15.938  12.767  1.00  0.00     0.188 HD
HETATM   12  C   UNK N   1      36.657  14.577  14.396  0.00  0.00     0.038 A 
HETATM   13  C   UNK N   1      36.214  13.234  14.518  0.00  0.00     0.046 A 
HETATM   14  C   UNK N   1      37.241  15.485  15.413  0.00  0.00     0.070 C 
HETATM   15  C   UNK N   1      34.142  10.554  10.920  0.00  0.00     0.089 C 
HETATM   16  H   UNK N   1      36.329  15.811  10.537  0.00  0.00     0.178 HD
ENDROOT
BRANCH  13  17
HETATM   17  C   UNK N   1      36.170  12.231  15.656  0.00  0.00     0.002 A 
HETATM   18  C   UNK N   1      35.335  12.555  16.738  0.00  0.00     0.018 A 
HETATM   19  C   UNK N   1      35.180  11.712  17.828  0.00  0.00     0.057 A 
HETATM   20  C   UNK N   1      35.873  10.504  17.857  0.00  0.00     0.141 A 
HETATM   21  N   UNK N   1      36.697  10.185  16.825  0.00  0.00    -0.340 N 
HETATM   22  C   UNK N   1      36.872  10.992  15.740  0.00  0.00     0.018 A 
ATOM     23  HN  UNK N   1      37.207   9.304  16.865  1.00  0.00     0.167 HD
HETATM   24  C   UNK N   1      37.781  10.493  14.686  0.00  0.00     0.069 C 
BRANCH  20  25
HETATM   25  O   UNK N   1      35.729   9.634  18.884  0.00  0.00    -0.341 OA
HETATM   26  C   UNK N   1      36.768   8.875  19.378  0.00  0.00     0.211 C 
ENDBRANCH  20  25
ENDBRANCH  13  17
BRANCH   1  27
HETATM   27  C   UNK N   1      34.589  15.558   9.376  0.00  0.00     0.095 C 
HETATM   28  C   UNK N   1      35.008  15.157   7.968  0.00  0.00     0.032 C 
BRANCH  27  29
HETATM   29  C   UNK N   1      34.241  17.041   9.451  0.00  0.00     0.021 C 
HETATM   30  C   UNK N   1      34.510  17.764   8.140  0.00  0.00     0.007 C 
ENDBRANCH  27  29
ENDBRANCH   1  27
TORSDOF 4
ENDMDL
MODEL 8
REMARK VINA RESULT:      -6.1      4.474      8.571
REMARK  4 active torsions:
REMARK  status: ('A' for Active; 'I' for Inactive)
REMARK    1  A    between atoms: C_2  and  C_3 
REMARK    2  A    between atoms: C_3  and  N_5 
REMARK       I    between atoms: N_5  and  C_6 
REMARK    3  A    between atoms: C_17  and  C_18 
REMARK    4  A    between atoms: C_21  and  O_26 
ROOT
HETATM    1  N   UNK N   1      29.812  17.178   3.602  0.00  0.00    -0.220 N 
HETATM    2  C   UNK N   1      28.701  17.552   4.401  0.00  0.00     0.702 A 
HETATM    3  N   UNK N   1      28.859  18.316   5.519  0.00  0.00    -0.179 N 
ATOM      4  HN  UNK N   1      29.786  18.655   5.776  1.00  0.00     0.185 HD
HETATM    5  C   UNK N   1      27.781  18.629   6.298  0.00  0.00     0.095 A 
HETATM    6  N   UNK N   1      26.544  18.154   5.979  0.00  0.00    -0.329 N 
ATOM      7  HN  UNK N   1      25.736  18.372   6.562  1.00  0.00     0.168 HD
HETATM    8  C   UNK N   1      26.411  17.386   4.872  0.00  0.00     0.160 A 
HETATM    9  N   UNK N   1      27.458  17.109   4.098  0.00  0.00    -0.069 N 
HETATM   10  N   UNK N   1      27.097  16.339   3.094  0.00  0.00    -0.282 N 
ATOM     11  HN  UNK N   1      27.707  15.984   2.358  1.00  0.00     0.188 HD
HETATM   12  C   UNK N   1      25.768  16.100   3.216  0.00  0.00     0.038 A 
HETATM   13  C   UNK N   1      25.271  16.762   4.368  0.00  0.00     0.046 A 
HETATM   14  C   UNK N   1      25.070  15.228   2.240  0.00  0.00     0.070 C 
HETATM   15  C   UNK N   1      27.958  19.472   7.509  0.00  0.00     0.089 C 
HETATM   16  H   UNK N   1      29.677  17.053   2.634  0.00  0.00     0.178 HD
ENDROOT
BRANCH  13  17
HETATM   17  C   UNK N   1      23.909  16.860   5.030  0.00  0.00     0.002 A 
HETATM   18  C   UNK N   1      23.599  15.861   5.967  0.00  0.00     0.018 A 
HETATM   19  C   UNK N   1      22.402  15.851   6.665  0.00  0.00     0.057 A 
HETATM   20  C   UNK N   1      21.471  16.860   6.433  0.00  0.00     0.141 A 
HETATM   21  N   UNK N   1      21.749  17.824   5.518  0.00  0.00    -0.340 N 
HETATM   22  C   UNK N   1      22.916  17.863   4.814  0.00  0.00     0.018 A 
ATOM     23  HN  UNK N   1      21.054  18.550   5.349  1.00  0.00     0.167 HD
HETATM   24  C   UNK N   1      23.084  18.992   3.873  0.00  0.00     0.069 C 
BRANCH  20  25
HETATM   25  O   UNK N   1      20.302  16.910   7.113  0.00  0.00    -0.341 OA
HETATM   26  C   UNK N   1      20.234  17.052   8.483  0.00  0.00     0.211 C 
ENDBRANCH  20  25
ENDBRANCH  13  17
BRANCH   1  27
HETATM   27  C   UNK N   1      31.136  16.971   4.152  0.00  0.00     0.095 C 
HETATM   28  C   UNK N   1      32.243  17.056   3.110  0.00  0.00     0.032 C 
BRANCH  27  29
HETATM   29  C   UNK N   1      31.201  15.657   4.925  0.00  0.00     0.021 C 
HETATM   30  C   UNK N   1      31.455  15.873   6.409  0.00  0.00     0.007 C 
ENDBRANCH  27  29
ENDBRANCH   1  27
TORSDOF 4
ENDMDL
MODEL 9
REMARK VINA RESULT:      -6.1      2.772      4.365
REMARK  4 active torsions:
REMARK  status: ('A' for Active; 'I' for Inactive)
REMARK    1  A    between atoms: C_2  and  C_3 
REMARK    2  A    between atoms: C_3  and  N_5 
REMARK       I    between atoms: N_5  and  C_6 
REMARK    3  A    between atoms: C_17  and  C_18 
REMARK    4  A    between atoms: C_21  and  O_26 
ROOT
HETATM    1  N   UNK N   1      23.589  17.107   4.352  0.00  0.00    -0.220 N 
HETATM    2  C   UNK N   1      24.643  16.605   5.159  0.00  0.00     0.702 A 
HETATM    3  N   UNK N   1      24.482  15.481   5.914  0.00  0.00    -0.179 N 
ATOM      4  HN  UNK N   1      23.601  14.968   5.880  1.00  0.00     0.185 HD
HETATM    5  C   UNK N   1      25.496  15.040   6.717  0.00  0.00     0.095 A 
HETATM    6  N   UNK N   1      26.664  15.737   6.792  0.00  0.00    -0.329 N 
ATOM      7  HN  UNK N   1      27.421  15.421   7.398  1.00  0.00     0.168 HD
HETATM    8  C   UNK N   1      26.798  16.858   6.044  0.00  0.00     0.160 A 
HETATM    9  N   UNK N   1      25.821  17.267   5.239  0.00  0.00    -0.069 N 
HETATM   10  N   UNK N   1      26.165  18.381   4.627  0.00  0.00    -0.282 N 
ATOM     11  HN  UNK N   1      25.597  18.900   3.958  1.00  0.00     0.188 HD
HETATM   12  C   UNK N   1      27.410  18.713   5.047  0.00  0.00     0.038 A 
HETATM   13  C   UNK N   1      27.869  17.747   5.980  0.00  0.00     0.046 A 
HETATM   14  C   UNK N   1      28.064  19.950   4.553  0.00  0.00     0.070 C 
HETATM   15  C   UNK N   1      25.319  13.807   7.529  0.00  0.00     0.089 C 
HETATM   16  H   UNK N   1      23.816  17.582   3.520  0.00  0.00     0.178 HD
ENDROOT
BRANCH  13  17
HETATM   17  C   UNK N   1      29.138  17.580   6.795  0.00  0.00     0.002 A 
HETATM   18  C   UNK N   1      30.273  17.138   6.095  0.00  0.00     0.018 A 
HETATM   19  C   UNK N   1      31.502  16.973   6.714  0.00  0.00     0.057 A 
HETATM   20  C   UNK N   1      31.622  17.250   8.074  0.00  0.00     0.141 A 
HETATM   21  N   UNK N   1      30.529  17.661   8.767  0.00  0.00    -0.340 N 
HETATM   22  C   UNK N   1      29.307  17.833   8.189  0.00  0.00     0.018 A 
ATOM     23  HN  UNK N   1      30.628  17.849   9.764  1.00  0.00     0.167 HD
HETATM   24  C   UNK N   1      28.221  18.312   9.071  0.00  0.00     0.069 C 
BRANCH  20  25
HETATM   25  O   UNK N   1      32.809  17.134   8.714  0.00  0.00    -0.341 OA
HETATM   26  C   UNK N   1      33.870  16.414   8.208  0.00  0.00     0.211 C 
ENDBRANCH  20  25
ENDBRANCH  13  17
BRANCH   1  27
HETATM   27  C   UNK N   1      22.192  16.950   4.704  0.00  0.00     0.095 C 
HETATM   28  C   UNK N   1      21.432  16.025   3.764  0.00  0.00     0.032 C 
BRANCH  27  29
HETATM   29  C   UNK N   1      21.509  18.309   4.820  0.00  0.00     0.021 C 
HETATM   30  C   UNK N   1      21.820  19.215   3.638  0.00  0.00     0.007 C 
ENDBRANCH  27  29
ENDBRANCH   1  27
TORSDOF 4
ENDMDL
