REMARK  10 active torsions:
REMARK  status: ('A' for Active; 'I' for Inactive)
REMARK    1  A    between atoms: C_4  and  C_3 
REMARK    2  A    between atoms: C_5  and  C_3 
REMARK    3  A    between atoms: N_19  and  C_4 
REMARK    4  A    between atoms: N_24  and  C_5 
REMARK    5  A    between atoms: C_14  and  C_9 
REMARK    6  A    between atoms: N_19  and  C_9 
REMARK    7  A    between atoms: C_14  and  C_11 
REMARK    8  A    between atoms: O_25  and  C_12 
REMARK    9  A    between atoms: O_26  and  C_13 
REMARK   10  A    between atoms: O_27  and  C_14 
ROOT
HETATM    1  C   UNK N   1      -3.079  -0.070   0.607  0.00  0.00     0.115 C 
ENDROOT
BRANCH   1   2
HETATM    2  C   UNK N   1      -1.700  -0.687   0.744  0.00  0.00     0.039 C 
BRANCH   2   3
HETATM    3  C   UNK N   1      -1.393  -1.586  -0.448  0.00  0.00     0.132 C 
BRANCH   3   4
HETATM    4  N   UNK N   1      -0.076  -2.176  -0.283  0.00  0.00    -0.335 N 
HETATM    5  C   UNK N   1       0.199  -3.495  -0.137  0.00  0.00     0.185 A 
HETATM    6  N   UNK N   1       1.534  -3.703   0.030  0.00  0.00    -0.336 N 
HETATM    7  C   UNK N   1       2.071  -2.468  -0.018  0.00  0.00     0.145 A 
ATOM      8  HN  UNK N   1       2.018  -4.592   0.161  1.00  0.00     0.168 HD
HETATM    9  C   UNK N   1       1.106  -1.548  -0.214  0.00  0.00     0.149 A 
HETATM   10  N   UNK N   1       3.379  -2.136   0.114  0.00  0.00    -0.287 N 
HETATM   11  C   UNK N   1       1.421  -0.196  -0.301  0.00  0.00     0.282 A 
HETATM   12  N   UNK N   1       2.745   0.172  -0.168  0.00  0.00    -0.269 N 
HETATM   13  O   UNK N   1       0.553   0.640  -0.491  0.00  0.00    -0.265 OA
HETATM   14  C   UNK N   1       3.114   1.583  -0.244  0.00  0.00     0.164 C 
HETATM   15  C   UNK N   1       3.727  -0.794   0.043  0.00  0.00     0.332 A 
HETATM   16  O   UNK N   1       4.894  -0.460   0.165  0.00  0.00    -0.246 OA
HETATM   17  C   UNK N   1       4.385  -3.167   0.333  0.00  0.00     0.163 C 
ENDBRANCH   3   4
ENDBRANCH   2   3
ENDBRANCH   1   2
BRANCH   1  18
HETATM   18  N   UNK N   1      -4.090  -0.987   1.109  0.00  0.00    -0.418 N 
HETATM   19  H   UNK N   1      -4.531  -0.960   2.028  0.00  0.00     0.153 HD
BRANCH  18  20
HETATM   20  C   UNK N   1      -4.354  -1.951   0.052  0.00  0.00     0.150 C 
BRANCH  20  21
HETATM   21  C   UNK N   1      -5.699  -2.630   0.247  0.00  0.00     0.168 C 
BRANCH  21  22
HETATM   22  C   UNK N   1      -6.875  -1.697   0.103  0.00  0.00    -0.023 A 
HETATM   23  C   UNK N   1      -8.170  -2.222   0.182  0.00  0.00     0.046 A 
HETATM   24  C   UNK N   1      -9.281  -1.385   0.046  0.00  0.00     0.069 A 
HETATM   25  C   UNK N   1      -9.104  -0.013  -0.154  0.00  0.00     0.073 A 
HETATM   26  C   UNK N   1      -7.816   0.522  -0.224  0.00  0.00     0.069 A 
HETATM   27  C   UNK N   1      -6.707  -0.316  -0.105  0.00  0.00     0.046 A 
BRANCH  24  28
HETATM   28  O   UNK N   1     -10.518  -1.902   0.104  0.00  0.00    -0.361 OA
HETATM   29  H   UNK N   1     -11.262  -1.334   0.144  0.00  0.00     0.217 HD
ENDBRANCH  24  28
BRANCH  26  30
HETATM   30  O   UNK N   1      -7.644   1.841  -0.405  0.00  0.00    -0.361 OA
HETATM   31  H   UNK N   1      -6.787   2.198  -0.531  0.00  0.00     0.217 HD
ENDBRANCH  26  30
ENDBRANCH  21  22
BRANCH  21  32
HETATM   32  O   UNK N   1      -5.801  -3.663  -0.685  0.00  0.00    -0.389 OA
HETATM   33  H   UNK N   1      -6.458  -3.961  -1.333  0.00  0.00     0.210 HD
ENDBRANCH  21  32
ENDBRANCH  20  21
ENDBRANCH  18  20
ENDBRANCH   1  18
TORSDOF 10
