REMARK  11 active torsions:
REMARK  status: ('A' for Active; 'I' for Inactive)
REMARK    1  A    between atoms: C_3  and  C_4 
REMARK    2  A    between atoms: C_4  and  C_5 
REMARK    3  A    between atoms: C_5  and  C_6 
REMARK    4  A    between atoms: C_7  and  C_8 
REMARK    5  A    between atoms: C_8  and  C_9 
REMARK    6  A    between atoms: C_9  and  C_10 
REMARK    7  A    between atoms: C_11  and  C_12 
REMARK    8  A    between atoms: C_12  and  S_13 
REMARK    9  A    between atoms: S_13  and  C_14 
REMARK   10  A    between atoms: C_19  and  C_20 
REMARK   11  A    between atoms: C_20  and  O_22 
ROOT
HETATM    1  C   UNK N   1       0.132   4.617  -0.714  0.00  0.00    -0.086 C 
HETATM    2  C   UNK N   1      -0.289   3.723   0.192  0.00  0.00    -0.014 C 
HETATM    3  C   UNK N   1       1.304   4.328  -1.611  0.00  0.00     0.043 C 
ENDROOT
BRANCH   1   4
HETATM    4  C   UNK N   1      -0.621   5.902  -0.858  0.00  0.00     0.037 C 
BRANCH   4   5
HETATM    5  C   UNK N   1       0.300   7.066  -1.189  0.00  0.00     0.031 C 
BRANCH   5   6
HETATM    6  C   UNK N   1       0.696   7.875   0.009  0.00  0.00    -0.024 C 
HETATM    7  C   UNK N   1       1.590   7.489   0.934  0.00  0.00    -0.087 C 
HETATM    8  C   UNK N   1       2.294   6.174   0.864  0.00  0.00     0.043 C 
BRANCH   7   9
HETATM    9  C   UNK N   1       2.018   8.462   1.992  0.00  0.00     0.037 C 
BRANCH   9  10
HETATM   10  C   UNK N   1       2.615   9.734   1.375  0.00  0.00     0.031 C 
BRANCH  10  11
HETATM   11  C   UNK N   1       3.588   9.407   0.273  0.00  0.00    -0.024 C 
HETATM   12  C   UNK N   1       4.789   9.972   0.144  0.00  0.00    -0.091 C 
HETATM   13  C   UNK N   1       5.269  11.021   1.091  0.00  0.00     0.042 C 
HETATM   14  C   UNK N   1       5.660   9.555  -0.990  0.00  0.00     0.042 C 
ENDBRANCH  10  11
ENDBRANCH   9  10
ENDBRANCH   7   9
ENDBRANCH   5   6
ENDBRANCH   4   5
ENDBRANCH   1   4
BRANCH   2  15
HETATM   15  C   UNK N   1       0.367   2.389   0.383  0.00  0.00     0.106 C 
BRANCH  15  16
HETATM   16  S   UNK N   1       0.173   1.389  -1.127  0.00  0.00    -0.125 SA
BRANCH  16  17
HETATM   17  C   UNK N   1       0.574  -0.150  -0.303  0.00  0.00     0.017 A 
HETATM   18  C   UNK N   1       1.923  -0.521  -0.259  0.00  0.00     0.019 A 
HETATM   19  C   UNK N   1       2.311  -1.720   0.336  0.00  0.00     0.001 A 
HETATM   20  C   UNK N   1       1.351  -2.565   0.888  0.00  0.00     0.001 A 
HETATM   21  C   UNK N   1       0.002  -2.209   0.850  0.00  0.00     0.020 A 
HETATM   22  C   UNK N   1      -0.412  -1.003   0.261  0.00  0.00     0.054 A 
BRANCH  22  23
HETATM   23  C   UNK N   1      -1.870  -0.697   0.261  0.00  0.00     0.177 C 
HETATM   24  O   UNK N   1      -2.299   0.351  -0.199  0.00  0.00    -0.646 OA
BRANCH  23  25
HETATM   25  O   UNK N   1      -2.739  -1.583   0.782  0.00  0.00    -0.773 OA
HETATM   26  H   UNK N   1      -3.575  -1.367   1.145  0.00  0.00     0.167 HD
ENDBRANCH  23  25
ENDBRANCH  22  23
ENDBRANCH  16  17
ENDBRANCH  15  16
ENDBRANCH   2  15
TORSDOF 11
