MODEL 1
REMARK VINA RESULT:      -5.9      0.000      0.000
REMARK  6 active torsions:
REMARK  status: ('A' for Active; 'I' for Inactive)
REMARK    1  A    between atoms: C_2  and  C_3 
REMARK    2  A    between atoms: C_2  and  O_21 
REMARK    3  A    between atoms: C_3  and  C_4 
REMARK    4  A    between atoms: C_4  and  C_5 
REMARK    5  A    between atoms: C_5  and  C_6 
REMARK    6  A    between atoms: C_6  and  N_7 
ROOT
HETATM    1  N   UNK N   1      29.220  17.732   7.044  0.00  0.00    -0.264 N 
HETATM    2  C   UNK N   1      28.383  18.840   6.998  0.00  0.00     0.282 A 
HETATM    3  O   UNK N   1      28.106  19.460   8.012  0.00  0.00    -0.265 OA
HETATM    4  C   UNK N   1      27.862  19.227   5.773  0.00  0.00     0.149 A 
HETATM    5  C   UNK N   1      28.163  18.552   4.650  0.00  0.00     0.145 A 
HETATM    6  N   UNK N   1      27.547  19.108   3.588  0.00  0.00    -0.336 N 
ATOM      7  HN  UNK N   1      27.591  18.814   2.613  1.00  0.00     0.168 HD
HETATM    8  C   UNK N   1      26.852  20.152   4.116  0.00  0.00     0.184 A 
HETATM    9  N   UNK N   1      27.036  20.235   5.455  0.00  0.00    -0.340 N 
HETATM   10  C   UNK N   1      26.443  21.223   6.341  0.00  0.00     0.157 C 
HETATM   11  N   UNK N   1      28.975  17.469   4.647  0.00  0.00    -0.287 N 
HETATM   12  C   UNK N   1      29.510  17.042   5.851  0.00  0.00     0.332 A 
HETATM   13  O   UNK N   1      30.237  16.062   5.857  0.00  0.00    -0.246 OA
HETATM   14  C   UNK N   1      29.271  16.774   3.400  0.00  0.00     0.163 C 
ENDROOT
BRANCH   1  15
HETATM   15  C   UNK N   1      29.748  17.362   8.378  0.00  0.00     0.137 C 
BRANCH  15  16
HETATM   16  C   UNK N   1      31.016  18.064   8.842  0.00  0.00     0.020 C 
BRANCH  16  17
HETATM   17  C   UNK N   1      32.242  17.212   8.568  0.00  0.00     0.004 C 
BRANCH  17  18
HETATM   18  C   UNK N   1      33.160  17.999   7.652  0.00  0.00     0.031 C 
BRANCH  18  19
HETATM   19  C   UNK N   1      34.605  17.947   8.120  0.00  0.00     0.114 C 
HETATM   20  C   UNK N   1      34.682  17.078   9.357  0.00  0.00     0.039 C 
BRANCH  19  21
HETATM   21  O   UNK N   1      35.073  19.224   8.431  0.00  0.00    -0.396 OA
HETATM   22  H   UNK N   1      34.913  19.698   9.263  0.00  0.00     0.210 HD
ENDBRANCH  19  21
ENDBRANCH  18  19
ENDBRANCH  17  18
ENDBRANCH  16  17
ENDBRANCH  15  16
ENDBRANCH   1  15
TORSDOF 6
ENDMDL
MODEL 2
REMARK VINA RESULT:      -5.8      5.051      7.473
REMARK  6 active torsions:
REMARK  status: ('A' for Active; 'I' for Inactive)
REMARK    1  A    between atoms: C_2  and  C_3 
REMARK    2  A    between atoms: C_2  and  O_21 
REMARK    3  A    between atoms: C_3  and  C_4 
REMARK    4  A    between atoms: C_4  and  C_5 
REMARK    5  A    between atoms: C_5  and  C_6 
REMARK    6  A    between atoms: C_6  and  N_7 
ROOT
HETATM    1  N   UNK N   1      23.594  19.389   3.842  0.00  0.00    -0.264 N 
HETATM    2  C   UNK N   1      23.146  18.101   4.107  0.00  0.00     0.282 A 
HETATM    3  O   UNK N   1      23.808  17.333   4.786  0.00  0.00    -0.265 OA
HETATM    4  C   UNK N   1      21.928  17.700   3.578  0.00  0.00     0.149 A 
HETATM    5  C   UNK N   1      21.190  18.539   2.830  0.00  0.00     0.145 A 
HETATM    6  N   UNK N   1      20.055  17.935   2.430  0.00  0.00    -0.336 N 
ATOM      7  HN  UNK N   1      19.306  18.325   1.857  1.00  0.00     0.168 HD
HETATM    8  C   UNK N   1      20.135  16.687   2.964  0.00  0.00     0.184 A 
HETATM    9  N   UNK N   1      21.280  16.529   3.670  0.00  0.00    -0.340 N 
HETATM   10  C   UNK N   1      21.696  15.326   4.369  0.00  0.00     0.157 C 
HETATM   11  N   UNK N   1      21.586  19.802   2.549  0.00  0.00    -0.287 N 
HETATM   12  C   UNK N   1      22.801  20.241   3.049  0.00  0.00     0.332 A 
HETATM   13  O   UNK N   1      23.167  21.376   2.794  0.00  0.00    -0.246 OA
HETATM   14  C   UNK N   1      20.746  20.673   1.735  0.00  0.00     0.163 C 
ENDROOT
BRANCH   1  15
HETATM   15  C   UNK N   1      24.901  19.765   4.431  0.00  0.00     0.137 C 
BRANCH  15  16
HETATM   16  C   UNK N   1      26.113  19.729   3.513  0.00  0.00     0.020 C 
BRANCH  16  17
HETATM   17  C   UNK N   1      27.396  19.948   4.294  0.00  0.00     0.004 C 
BRANCH  17  18
HETATM   18  C   UNK N   1      27.034  20.625   5.602  0.00  0.00     0.031 C 
BRANCH  18  19
HETATM   19  C   UNK N   1      27.719  19.965   6.788  0.00  0.00     0.114 C 
HETATM   20  C   UNK N   1      28.009  18.521   6.437  0.00  0.00     0.039 C 
BRANCH  19  21
HETATM   21  O   UNK N   1      26.902  20.004   7.918  0.00  0.00    -0.396 OA
HETATM   22  H   UNK N   1      27.211  20.063   8.836  0.00  0.00     0.210 HD
ENDBRANCH  19  21
ENDBRANCH  18  19
ENDBRANCH  17  18
ENDBRANCH  16  17
ENDBRANCH  15  16
ENDBRANCH   1  15
TORSDOF 6
ENDMDL
MODEL 3
REMARK VINA RESULT:      -5.7      2.227      6.419
REMARK  6 active torsions:
REMARK  status: ('A' for Active; 'I' for Inactive)
REMARK    1  A    between atoms: C_2  and  C_3 
REMARK    2  A    between atoms: C_2  and  O_21 
REMARK    3  A    between atoms: C_3  and  C_4 
REMARK    4  A    between atoms: C_4  and  C_5 
REMARK    5  A    between atoms: C_5  and  C_6 
REMARK    6  A    between atoms: C_6  and  N_7 
ROOT
HETATM    1  N   UNK N   1      29.304  17.198   6.247  0.00  0.00    -0.264 N 
HETATM    2  C   UNK N   1      30.562  16.644   6.043  0.00  0.00     0.282 A 
HETATM    3  O   UNK N   1      30.828  16.057   5.006  0.00  0.00    -0.265 OA
HETATM    4  C   UNK N   1      31.512  16.765   7.046  0.00  0.00     0.149 A 
HETATM    5  C   UNK N   1      31.229  17.412   8.190  0.00  0.00     0.145 A 
HETATM    6  N   UNK N   1      32.298  17.404   9.010  0.00  0.00    -0.336 N 
ATOM      7  HN  UNK N   1      32.379  17.818   9.938  1.00  0.00     0.168 HD
HETATM    8  C   UNK N   1      33.246  16.720   8.315  0.00  0.00     0.184 A 
HETATM    9  N   UNK N   1      32.776  16.322   7.108  0.00  0.00    -0.340 N 
HETATM   10  C   UNK N   1      33.512  15.565   6.110  0.00  0.00     0.157 C 
HETATM   11  N   UNK N   1      30.020  17.969   8.431  0.00  0.00    -0.287 N 
HETATM   12  C   UNK N   1      29.038  17.864   7.460  0.00  0.00     0.332 A 
HETATM   13  O   UNK N   1      27.943  18.357   7.674  0.00  0.00    -0.246 OA
HETATM   14  C   UNK N   1      29.766  18.662   9.689  0.00  0.00     0.163 C 
ENDROOT
BRANCH   1  15
HETATM   15  C   UNK N   1      28.328  17.040   5.145  0.00  0.00     0.137 C 
BRANCH  15  16
HETATM   16  C   UNK N   1      28.265  18.150   4.107  0.00  0.00     0.020 C 
BRANCH  16  17
HETATM   17  C   UNK N   1      26.856  18.702   3.984  0.00  0.00     0.004 C 
BRANCH  17  18
HETATM   18  C   UNK N   1      26.939  20.214   4.069  0.00  0.00     0.031 C 
BRANCH  18  19
HETATM   19  C   UNK N   1      26.371  20.738   5.378  0.00  0.00     0.114 C 
HETATM   20  C   UNK N   1      27.484  21.406   6.156  0.00  0.00     0.039 C 
BRANCH  19  21
HETATM   21  O   UNK N   1      25.841  19.698   6.142  0.00  0.00    -0.396 OA
HETATM   22  H   UNK N   1      25.562  18.833   5.802  0.00  0.00     0.210 HD
ENDBRANCH  19  21
ENDBRANCH  18  19
ENDBRANCH  17  18
ENDBRANCH  16  17
ENDBRANCH  15  16
ENDBRANCH   1  15
TORSDOF 6
ENDMDL
MODEL 4
REMARK VINA RESULT:      -5.7      4.665      6.800
REMARK  6 active torsions:
REMARK  status: ('A' for Active; 'I' for Inactive)
REMARK    1  A    between atoms: C_2  and  C_3 
REMARK    2  A    between atoms: C_2  and  O_21 
REMARK    3  A    between atoms: C_3  and  C_4 
REMARK    4  A    between atoms: C_4  and  C_5 
REMARK    5  A    between atoms: C_5  and  C_6 
REMARK    6  A    between atoms: C_6  and  N_7 
ROOT
HETATM    1  N   UNK N   1      24.120  19.523   3.994  0.00  0.00    -0.264 N 
HETATM    2  C   UNK N   1      23.115  20.112   3.237  0.00  0.00     0.282 A 
HETATM    3  O   UNK N   1      23.218  21.264   2.845  0.00  0.00    -0.265 OA
HETATM    4  C   UNK N   1      21.985  19.366   2.938  0.00  0.00     0.149 A 
HETATM    5  C   UNK N   1      21.864  18.096   3.362  0.00  0.00     0.145 A 
HETATM    6  N   UNK N   1      20.691  17.575   2.953  0.00  0.00    -0.336 N 
ATOM      7  HN  UNK N   1      20.330  16.637   3.121  1.00  0.00     0.168 HD
HETATM    8  C   UNK N   1      20.100  18.586   2.262  0.00  0.00     0.184 A 
HETATM    9  N   UNK N   1      20.883  19.691   2.246  0.00  0.00    -0.340 N 
HETATM   10  C   UNK N   1      20.566  20.957   1.606  0.00  0.00     0.157 C 
HETATM   11  N   UNK N   1      22.817  17.481   4.099  0.00  0.00    -0.287 N 
HETATM   12  C   UNK N   1      23.959  18.193   4.429  0.00  0.00     0.332 A 
HETATM   13  O   UNK N   1      24.820  17.647   5.099  0.00  0.00    -0.246 OA
HETATM   14  C   UNK N   1      22.637  16.100   4.532  0.00  0.00     0.163 C 
ENDROOT
BRANCH   1  15
HETATM   15  C   UNK N   1      25.304  20.364   4.285  0.00  0.00     0.137 C 
BRANCH  15  16
HETATM   16  C   UNK N   1      26.478  20.269   3.321  0.00  0.00     0.020 C 
BRANCH  16  17
HETATM   17  C   UNK N   1      27.651  19.550   3.960  0.00  0.00     0.004 C 
BRANCH  17  18
HETATM   18  C   UNK N   1      27.631  19.854   5.446  0.00  0.00     0.031 C 
BRANCH  18  19
HETATM   19  C   UNK N   1      28.201  18.708   6.265  0.00  0.00     0.114 C 
HETATM   20  C   UNK N   1      29.120  17.892   5.382  0.00  0.00     0.039 C 
BRANCH  19  21
HETATM   21  O   UNK N   1      27.181  17.885   6.746  0.00  0.00    -0.396 OA
HETATM   22  H   UNK N   1      27.075  16.942   6.544  0.00  0.00     0.210 HD
ENDBRANCH  19  21
ENDBRANCH  18  19
ENDBRANCH  17  18
ENDBRANCH  16  17
ENDBRANCH  15  16
ENDBRANCH   1  15
TORSDOF 6
ENDMDL
MODEL 5
REMARK VINA RESULT:      -5.6      1.751      3.068
REMARK  6 active torsions:
REMARK  status: ('A' for Active; 'I' for Inactive)
REMARK    1  A    between atoms: C_2  and  C_3 
REMARK    2  A    between atoms: C_2  and  O_21 
REMARK    3  A    between atoms: C_3  and  C_4 
REMARK    4  A    between atoms: C_4  and  C_5 
REMARK    5  A    between atoms: C_5  and  C_6 
REMARK    6  A    between atoms: C_6  and  N_7 
ROOT
HETATM    1  N   UNK N   1      30.518  17.083   6.362  0.00  0.00    -0.264 N 
HETATM    2  C   UNK N   1      29.611  17.629   5.463  0.00  0.00     0.282 A 
HETATM    3  O   UNK N   1      29.717  17.428   4.264  0.00  0.00    -0.265 OA
HETATM    4  C   UNK N   1      28.580  18.416   5.955  0.00  0.00     0.149 A 
HETATM    5  C   UNK N   1      28.454  18.641   7.275  0.00  0.00     0.145 A 
HETATM    6  N   UNK N   1      27.386  19.426   7.516  0.00  0.00    -0.336 N 
ATOM      7  HN  UNK N   1      27.044  19.759   8.417  1.00  0.00     0.168 HD
HETATM    8  C   UNK N   1      26.869  19.674   6.283  0.00  0.00     0.184 A 
HETATM    9  N   UNK N   1      27.593  19.060   5.316  0.00  0.00    -0.340 N 
HETATM   10  C   UNK N   1      27.332  19.112   3.888  0.00  0.00     0.157 C 
HETATM   11  N   UNK N   1      29.311  18.127   8.186  0.00  0.00    -0.287 N 
HETATM   12  C   UNK N   1      30.361  17.343   7.738  0.00  0.00     0.332 A 
HETATM   13  O   UNK N   1      31.142  16.883   8.553  0.00  0.00    -0.246 OA
HETATM   14  C   UNK N   1      29.127  18.401   9.607  0.00  0.00     0.163 C 
ENDROOT
BRANCH   1  15
HETATM   15  C   UNK N   1      31.599  16.251   5.783  0.00  0.00     0.137 C 
BRANCH  15  16
HETATM   16  C   UNK N   1      32.865  16.969   5.339  0.00  0.00     0.020 C 
BRANCH  16  17
HETATM   17  C   UNK N   1      34.053  16.554   6.188  0.00  0.00     0.004 C 
BRANCH  17  18
HETATM   18  C   UNK N   1      34.234  17.597   7.275  0.00  0.00     0.031 C 
BRANCH  18  19
HETATM   19  C   UNK N   1      34.651  16.969   8.595  0.00  0.00     0.114 C 
HETATM   20  C   UNK N   1      34.654  15.464   8.436  0.00  0.00     0.039 C 
BRANCH  19  21
HETATM   21  O   UNK N   1      33.763  17.318   9.613  0.00  0.00    -0.396 OA
HETATM   22  H   UNK N   1      34.000  17.475  10.541  0.00  0.00     0.210 HD
ENDBRANCH  19  21
ENDBRANCH  18  19
ENDBRANCH  17  18
ENDBRANCH  16  17
ENDBRANCH  15  16
ENDBRANCH   1  15
TORSDOF 6
ENDMDL
MODEL 6
REMARK VINA RESULT:      -5.5     10.978     13.377
REMARK  6 active torsions:
REMARK  status: ('A' for Active; 'I' for Inactive)
REMARK    1  A    between atoms: C_2  and  C_3 
REMARK    2  A    between atoms: C_2  and  O_21 
REMARK    3  A    between atoms: C_3  and  C_4 
REMARK    4  A    between atoms: C_4  and  C_5 
REMARK    5  A    between atoms: C_5  and  C_6 
REMARK    6  A    between atoms: C_6  and  N_7 
ROOT
HETATM    1  N   UNK N   1      28.134  24.210  -5.040  0.00  0.00    -0.264 N 
HETATM    2  C   UNK N   1      28.035  23.198  -5.987  0.00  0.00     0.282 A 
HETATM    3  O   UNK N   1      28.840  22.280  -6.010  0.00  0.00    -0.265 OA
HETATM    4  C   UNK N   1      27.005  23.252  -6.913  0.00  0.00     0.149 A 
HETATM    5  C   UNK N   1      26.112  24.257  -6.894  0.00  0.00     0.145 A 
HETATM    6  N   UNK N   1      25.208  24.100  -7.879  0.00  0.00    -0.336 N 
ATOM      7  HN  UNK N   1      24.416  24.701  -8.106  1.00  0.00     0.168 HD
HETATM    8  C   UNK N   1      25.591  22.953  -8.504  0.00  0.00     0.184 A 
HETATM    9  N   UNK N   1      26.693  22.424  -7.920  0.00  0.00    -0.340 N 
HETATM   10  C   UNK N   1      27.377  21.209  -8.328  0.00  0.00     0.157 C 
HETATM   11  N   UNK N   1      26.167  25.263  -5.990  0.00  0.00    -0.287 N 
HETATM   12  C   UNK N   1      27.187  25.253  -5.052  0.00  0.00     0.332 A 
HETATM   13  O   UNK N   1      27.247  26.160  -4.239  0.00  0.00    -0.246 OA
HETATM   14  C   UNK N   1      25.172  26.328  -6.013  0.00  0.00     0.163 C 
ENDROOT
BRANCH   1  15
HETATM   15  C   UNK N   1      29.254  24.104  -4.076  0.00  0.00     0.137 C 
BRANCH  15  16
HETATM   16  C   UNK N   1      28.950  23.468  -2.727  0.00  0.00     0.020 C 
BRANCH  16  17
HETATM   17  C   UNK N   1      30.192  22.827  -2.135  0.00  0.00     0.004 C 
BRANCH  17  18
HETATM   18  C   UNK N   1      31.319  22.981  -3.138  0.00  0.00     0.031 C 
BRANCH  18  19
HETATM   19  C   UNK N   1      32.114  21.696  -3.297  0.00  0.00     0.114 C 
HETATM   20  C   UNK N   1      31.225  20.655  -3.944  0.00  0.00     0.039 C 
BRANCH  19  21
HETATM   21  O   UNK N   1      32.544  21.220  -2.058  0.00  0.00    -0.396 OA
HETATM   22  H   UNK N   1      32.286  21.580  -1.194  0.00  0.00     0.210 HD
ENDBRANCH  19  21
ENDBRANCH  18  19
ENDBRANCH  17  18
ENDBRANCH  16  17
ENDBRANCH  15  16
ENDBRANCH   1  15
TORSDOF 6
ENDMDL
MODEL 7
REMARK VINA RESULT:      -5.5     12.233     14.734
REMARK  6 active torsions:
REMARK  status: ('A' for Active; 'I' for Inactive)
REMARK    1  A    between atoms: C_2  and  C_3 
REMARK    2  A    between atoms: C_2  and  O_21 
REMARK    3  A    between atoms: C_3  and  C_4 
REMARK    4  A    between atoms: C_4  and  C_5 
REMARK    5  A    between atoms: C_5  and  C_6 
REMARK    6  A    between atoms: C_6  and  N_7 
ROOT
HETATM    1  N   UNK N   1      27.008  24.042  -5.496  0.00  0.00    -0.264 N 
HETATM    2  C   UNK N   1      27.366  23.053  -6.404  0.00  0.00     0.282 A 
HETATM    3  O   UNK N   1      26.614  22.730  -7.310  0.00  0.00    -0.265 OA
HETATM    4  C   UNK N   1      28.597  22.431  -6.259  0.00  0.00     0.149 A 
HETATM    5  C   UNK N   1      29.433  22.781  -5.266  0.00  0.00     0.145 A 
HETATM    6  N   UNK N   1      30.562  22.048  -5.324  0.00  0.00    -0.336 N 
ATOM      7  HN  UNK N   1      31.372  22.095  -4.706  1.00  0.00     0.168 HD
HETATM    8  C   UNK N   1      30.375  21.232  -6.396  0.00  0.00     0.184 A 
HETATM    9  N   UNK N   1      29.173  21.457  -6.978  0.00  0.00    -0.340 N 
HETATM   10  C   UNK N   1      28.640  20.764  -8.139  0.00  0.00     0.157 C 
HETATM   11  N   UNK N   1      29.129  23.739  -4.361  0.00  0.00    -0.287 N 
HETATM   12  C   UNK N   1      27.904  24.380  -4.463  0.00  0.00     0.332 A 
HETATM   13  O   UNK N   1      27.620  25.239  -3.646  0.00  0.00    -0.246 OA
HETATM   14  C   UNK N   1      30.074  24.082  -3.304  0.00  0.00     0.163 C 
ENDROOT
BRANCH   1  15
HETATM   15  C   UNK N   1      25.682  24.672  -5.697  0.00  0.00     0.137 C 
BRANCH  15  16
HETATM   16  C   UNK N   1      25.641  25.959  -6.507  0.00  0.00     0.020 C 
BRANCH  16  17
HETATM   17  C   UNK N   1      24.967  27.073  -5.726  0.00  0.00     0.004 C 
BRANCH  17  18
HETATM   18  C   UNK N   1      26.052  27.989  -5.192  0.00  0.00     0.031 C 
BRANCH  18  19
HETATM   19  C   UNK N   1      25.733  28.484  -3.790  0.00  0.00     0.114 C 
HETATM   20  C   UNK N   1      26.702  29.592  -3.436  0.00  0.00     0.039 C 
BRANCH  19  21
HETATM   21  O   UNK N   1      25.861  27.453  -2.858  0.00  0.00    -0.396 OA
HETATM   22  H   UNK N   1      26.697  27.118  -2.498  0.00  0.00     0.210 HD
ENDBRANCH  19  21
ENDBRANCH  18  19
ENDBRANCH  17  18
ENDBRANCH  16  17
ENDBRANCH  15  16
ENDBRANCH   1  15
TORSDOF 6
ENDMDL
MODEL 8
REMARK VINA RESULT:      -5.4     12.303     14.466
REMARK  6 active torsions:
REMARK  status: ('A' for Active; 'I' for Inactive)
REMARK    1  A    between atoms: C_2  and  C_3 
REMARK    2  A    between atoms: C_2  and  O_21 
REMARK    3  A    between atoms: C_3  and  C_4 
REMARK    4  A    between atoms: C_4  and  C_5 
REMARK    5  A    between atoms: C_5  and  C_6 
REMARK    6  A    between atoms: C_6  and  N_7 
ROOT
HETATM    1  N   UNK N   1      26.481  24.299  -5.480  0.00  0.00    -0.264 N 
HETATM    2  C   UNK N   1      27.633  24.398  -4.708  0.00  0.00     0.282 A 
HETATM    3  O   UNK N   1      27.713  25.211  -3.801  0.00  0.00    -0.265 OA
HETATM    4  C   UNK N   1      28.697  23.556  -4.992  0.00  0.00     0.149 A 
HETATM    5  C   UNK N   1      28.618  22.655  -5.988  0.00  0.00     0.145 A 
HETATM    6  N   UNK N   1      29.764  21.953  -6.076  0.00  0.00    -0.336 N 
ATOM      7  HN  UNK N   1      29.992  21.205  -6.731  1.00  0.00     0.168 HD
HETATM    8  C   UNK N   1      30.548  22.469  -5.091  0.00  0.00     0.184 A 
HETATM    9  N   UNK N   1      29.906  23.454  -4.420  0.00  0.00    -0.340 N 
HETATM   10  C   UNK N   1      30.443  24.227  -3.313  0.00  0.00     0.157 C 
HETATM   11  N   UNK N   1      27.517  22.521  -6.762  0.00  0.00    -0.287 N 
HETATM   12  C   UNK N   1      26.433  23.349  -6.519  0.00  0.00     0.332 A 
HETATM   13  O   UNK N   1      25.440  23.239  -7.218  0.00  0.00    -0.246 OA
HETATM   14  C   UNK N   1      27.483  21.526  -7.827  0.00  0.00     0.163 C 
ENDROOT
BRANCH   1  15
HETATM   15  C   UNK N   1      25.375  25.222  -5.133  0.00  0.00     0.137 C 
BRANCH  15  16
HETATM   16  C   UNK N   1      25.188  26.444  -6.020  0.00  0.00     0.020 C 
BRANCH  16  17
HETATM   17  C   UNK N   1      24.935  27.687  -5.187  0.00  0.00     0.004 C 
BRANCH  17  18
HETATM   18  C   UNK N   1      26.281  28.272  -4.803  0.00  0.00     0.031 C 
BRANCH  18  19
HETATM   19  C   UNK N   1      26.372  28.551  -3.312  0.00  0.00     0.114 C 
HETATM   20  C   UNK N   1      27.815  28.846  -2.961  0.00  0.00     0.039 C 
BRANCH  19  21
HETATM   21  O   UNK N   1      25.940  27.449  -2.573  0.00  0.00    -0.396 OA
HETATM   22  H   UNK N   1      25.442  26.694  -2.924  0.00  0.00     0.210 HD
ENDBRANCH  19  21
ENDBRANCH  18  19
ENDBRANCH  17  18
ENDBRANCH  16  17
ENDBRANCH  15  16
ENDBRANCH   1  15
TORSDOF 6
ENDMDL
MODEL 9
REMARK VINA RESULT:      -5.2      5.570      8.134
REMARK  6 active torsions:
REMARK  status: ('A' for Active; 'I' for Inactive)
REMARK    1  A    between atoms: C_2  and  C_3 
REMARK    2  A    between atoms: C_2  and  O_21 
REMARK    3  A    between atoms: C_3  and  C_4 
REMARK    4  A    between atoms: C_4  and  C_5 
REMARK    5  A    between atoms: C_5  and  C_6 
REMARK    6  A    between atoms: C_6  and  N_7 
ROOT
HETATM    1  N   UNK N   1      35.704  15.333   9.433  0.00  0.00    -0.264 N 
HETATM    2  C   UNK N   1      35.528  14.480   8.351  0.00  0.00     0.282 A 
HETATM    3  O   UNK N   1      35.955  13.337   8.376  0.00  0.00    -0.265 OA
HETATM    4  C   UNK N   1      34.859  14.955   7.232  0.00  0.00     0.149 A 
HETATM    5  C   UNK N   1      34.382  16.212   7.196  0.00  0.00     0.145 A 
HETATM    6  N   UNK N   1      33.773  16.448   6.017  0.00  0.00    -0.336 N 
ATOM      7  HN  UNK N   1      33.318  17.306   5.708  1.00  0.00     0.168 HD
HETATM    8  C   UNK N   1      33.903  15.278   5.335  0.00  0.00     0.184 A 
HETATM    9  N   UNK N   1      34.568  14.355   6.069  0.00  0.00    -0.340 N 
HETATM   10  C   UNK N   1      34.890  13.000   5.653  0.00  0.00     0.157 C 
HETATM   11  N   UNK N   1      34.528  17.076   8.226  0.00  0.00    -0.287 N 
HETATM   12  C   UNK N   1      35.198  16.646   9.360  0.00  0.00     0.332 A 
HETATM   13  O   UNK N   1      35.339  17.422  10.290  0.00  0.00    -0.246 OA
HETATM   14  C   UNK N   1      33.989  18.428   8.135  0.00  0.00     0.163 C 
ENDROOT
BRANCH   1  15
HETATM   15  C   UNK N   1      36.425  14.775  10.601  0.00  0.00     0.137 C 
BRANCH  15  16
HETATM   16  C   UNK N   1      35.581  14.248  11.751  0.00  0.00     0.020 C 
BRANCH  16  17
HETATM   17  C   UNK N   1      36.455  13.656  12.842  0.00  0.00     0.004 C 
BRANCH  17  18
HETATM   18  C   UNK N   1      35.678  13.713  14.144  0.00  0.00     0.031 C 
BRANCH  18  19
HETATM   19  C   UNK N   1      36.570  13.449  15.345  0.00  0.00     0.114 C 
HETATM   20  C   UNK N   1      35.706  13.393  16.587  0.00  0.00     0.039 C 
BRANCH  19  21
HETATM   21  O   UNK N   1      37.517  14.462  15.494  0.00  0.00    -0.396 OA
HETATM   22  H   UNK N   1      38.079  14.600  16.273  0.00  0.00     0.210 HD
ENDBRANCH  19  21
ENDBRANCH  18  19
ENDBRANCH  17  18
ENDBRANCH  16  17
ENDBRANCH  15  16
ENDBRANCH   1  15
TORSDOF 6
ENDMDL
