REMARK  4 active torsions:
REMARK  status: ('A' for Active; 'I' for Inactive)
REMARK    1  A    between atoms: C_2  and  C_3 
REMARK    2  A    between atoms: C_3  and  N_5 
REMARK       I    between atoms: N_5  and  C_6 
REMARK    3  A    between atoms: C_17  and  C_18 
REMARK    4  A    between atoms: C_21  and  O_26 
ROOT
HETATM    1  N   UNK N   1       4.053   3.445  -0.040  0.00  0.00    -0.220 N 
HETATM    2  C   UNK N   1       3.951   2.033   0.058  0.00  0.00     0.702 A 
HETATM    3  N   UNK N   1       5.063   1.247   0.132  0.00  0.00    -0.179 N 
ATOM      4  HN  UNK N   1       5.988   1.676   0.149  1.00  0.00     0.185 HD
HETATM    5  C   UNK N   1       4.942  -0.113   0.182  0.00  0.00     0.095 A 
HETATM    6  N   UNK N   1       3.711  -0.695   0.128  0.00  0.00    -0.329 N 
ATOM      7  HN  UNK N   1       3.613  -1.710   0.152  1.00  0.00     0.168 HD
HETATM    8  C   UNK N   1       2.621   0.104   0.041  0.00  0.00     0.160 A 
HETATM    9  N   UNK N   1       2.740   1.429   0.024  0.00  0.00    -0.069 N 
HETATM   10  N   UNK N   1       1.557   1.996  -0.081  0.00  0.00    -0.282 N 
ATOM     11  HN  UNK N   1       1.370   2.998  -0.115  1.00  0.00     0.188 HD
HETATM   12  C   UNK N   1       0.631   1.008  -0.137  0.00  0.00     0.038 A 
HETATM   13  C   UNK N   1       1.278  -0.253  -0.064  0.00  0.00     0.046 A 
HETATM   14  C   UNK N   1      -0.808   1.335  -0.290  0.00  0.00     0.070 C 
HETATM   15  C   UNK N   1       6.157  -0.964   0.275  0.00  0.00     0.089 C 
HETATM   16  H   UNK N   1       3.340   3.999   0.354  0.00  0.00     0.178 HD
ENDROOT
BRANCH  13  17
HETATM   17  C   UNK N   1       0.801  -1.693  -0.095  0.00  0.00     0.002 A 
HETATM   18  C   UNK N   1       1.800  -2.680  -0.091  0.00  0.00     0.018 A 
HETATM   19  C   UNK N   1       1.500  -4.033  -0.087  0.00  0.00     0.057 A 
HETATM   20  C   UNK N   1       0.166  -4.434  -0.089  0.00  0.00     0.141 A 
HETATM   21  N   UNK N   1      -0.811  -3.491  -0.110  0.00  0.00    -0.340 N 
HETATM   22  C   UNK N   1      -0.550  -2.153  -0.115  0.00  0.00     0.018 A 
ATOM     23  HN  UNK N   1      -1.783  -3.798  -0.123  1.00  0.00     0.167 HD
HETATM   24  C   UNK N   1      -1.722  -1.251  -0.110  0.00  0.00     0.069 C 
BRANCH  20  25
HETATM   25  O   UNK N   1      -0.176  -5.743  -0.053  0.00  0.00    -0.341 OA
HETATM   26  C   UNK N   1       0.749  -6.760   0.045  0.00  0.00     0.211 C 
ENDBRANCH  20  25
ENDBRANCH  13  17
BRANCH   1  27
HETATM   27  C   UNK N   1       5.163   4.105  -0.697  0.00  0.00     0.095 C 
HETATM   28  C   UNK N   1       6.520   3.720  -0.124  0.00  0.00     0.032 C 
BRANCH  27  29
HETATM   29  C   UNK N   1       4.969   5.618  -0.697  0.00  0.00     0.021 C 
HETATM   30  C   UNK N   1       5.100   6.217   0.695  0.00  0.00     0.007 C 
ENDBRANCH  27  29
ENDBRANCH   1  27
TORSDOF 4
