REMARK  2 active torsions:
REMARK  status: ('A' for Active; 'I' for Inactive)
REMARK    1  A    between atoms: C_5  and  C_34 
REMARK    2  A    between atoms: C_34  and  O_36 
ROOT
HETATM    1  C   UNK N   1       3.217   1.103   1.909  0.00  0.00     0.017 C 
HETATM    2  C   UNK N   1       3.900   1.331   0.559  0.00  0.00    -0.022 C 
HETATM    3  C   UNK N   1       4.500   2.722   0.794  0.00  0.00     0.012 C 
HETATM    4  C   UNK N   1       5.820   3.015   0.128  0.00  0.00     0.022 C 
HETATM    5  C   UNK N   1       6.843   1.892   0.273  0.00  0.00     0.050 C 
HETATM    6  C   UNK N   1       7.173   1.520   1.736  0.00  0.00     0.021 C 
HETATM    7  C   UNK N   1       8.267   0.435   1.763  0.00  0.00     0.010 C 
HETATM    8  C   UNK N   1       7.898  -0.825   0.965  0.00  0.00    -0.047 C 
HETATM    9  C   UNK N   1       7.312  -0.485  -0.418  0.00  0.00     0.015 C 
HETATM   10  C   UNK N   1       6.245   0.630  -0.407  0.00  0.00     0.017 C 
HETATM   11  C   UNK N   1       4.966   0.189   0.371  0.00  0.00     0.074 C 
HETATM   12  C   UNK N   1       4.319  -1.121  -0.115  0.00  0.00     0.154 C 
HETATM   13  O   UNK N   1       4.986  -2.131  -0.265  0.00  0.00    -0.293 OA
HETATM   14  C   UNK N   1       2.848  -1.218  -0.200  0.00  0.00     0.055 C 
HETATM   15  C   UNK N   1       2.105  -0.103  -0.331  0.00  0.00    -0.055 C 
HETATM   16  C   UNK N   1       2.832   1.237  -0.593  0.00  0.00    -0.011 C 
HETATM   17  C   UNK N   1       1.877   2.446  -0.616  0.00  0.00     0.015 C 
HETATM   18  C   UNK N   1       0.501   2.079  -1.151  0.00  0.00     0.008 C 
HETATM   19  C   UNK N   1      -0.048   1.223  -0.030  0.00  0.00     0.017 C 
HETATM   20  C   UNK N   1       0.626  -0.153   0.065  0.00  0.00     0.004 C 
HETATM   21  C   UNK N   1      -0.175  -1.204  -0.653  0.00  0.00     0.014 C 
HETATM   22  C   UNK N   1      -1.519  -1.181  -0.627  0.00  0.00     0.088 C 
HETATM   23  C   UNK N   1      -2.263  -0.022  -0.047  0.00  0.00     0.178 C 
HETATM   24  O   UNK N   1      -3.468  -0.114   0.140  0.00  0.00    -0.291 OA
HETATM   25  C   UNK N   1      -1.554   1.270   0.320  0.00  0.00     0.024 C 
HETATM   26  C   UNK N   1      -1.681   1.483   1.819  0.00  0.00     0.024 C 
HETATM   27  C   UNK N   1      -2.234   2.452  -0.360  0.00  0.00     0.024 C 
HETATM   28  C   UNK N   1      -2.237  -2.375  -0.999  0.00  0.00     0.103 C 
HETATM   29  N   UNK N   1      -2.806  -3.351  -1.250  0.00  0.00    -0.191 NA
HETATM   30  C   UNK N   1       0.587  -0.560   1.538  0.00  0.00     0.025 C 
HETATM   31  C   UNK N   1       3.485   1.217  -1.979  0.00  0.00     0.021 C 
HETATM   32  C   UNK N   1       6.952  -1.687   1.781  0.00  0.00     0.015 C 
HETATM   33  C   UNK N   1       9.158  -1.632   0.733  0.00  0.00     0.015 C 
ENDROOT
BRANCH   5  34
HETATM   34  C   UNK N   1       8.109   2.448  -0.351  0.00  0.00     0.149 C 
HETATM   35  O   UNK N   1       8.653   3.421   0.154  0.00  0.00    -0.649 OA
BRANCH  34  36
HETATM   36  O   UNK N   1       8.654   1.882  -1.443  0.00  0.00    -0.776 OA
HETATM   37  H   UNK N   1       8.503   1.356  -2.203  0.00  0.00     0.167 HD
ENDBRANCH  34  36
ENDBRANCH   5  34
TORSDOF 2
