MODEL 1
REMARK VINA RESULT:      -7.6      0.000      0.000
REMARK  7 active torsions:
REMARK  status: ('A' for Active; 'I' for Inactive)
REMARK    1  A    between atoms: C_4  and  C_25 
REMARK    2  A    between atoms: C_19  and  C_20 
REMARK    3  A    between atoms: C_19  and  O_24 
REMARK    4  A    between atoms: C_20  and  C_21 
REMARK    5  A    between atoms: C_21  and  C_22 
REMARK    6  A    between atoms: C_22  and  O_23 
REMARK    7  A    between atoms: C_28  and  N_31 
ROOT
HETATM    1  C   UNK N   1      28.238  16.637   5.965  0.00  0.00     0.019 C 
HETATM    2  C   UNK N   1      28.525  17.568   4.768  0.00  0.00    -0.008 C 
HETATM    3  C   UNK N   1      29.995  17.989   4.764  0.00  0.00     0.026 C 
HETATM    4  C   UNK N   1      30.978  16.820   4.494  0.00  0.00     0.049 C 
HETATM    5  C   UNK N   1      30.415  15.578   3.751  0.00  0.00    -0.060 C 
HETATM    6  C   UNK N   1      31.201  14.511   3.406  0.00  0.00    -0.048 C 
HETATM    7  C   UNK N   1      32.675  14.491   3.748  0.00  0.00     0.047 C 
HETATM    8  C   UNK N   1      33.445  13.191   3.490  0.00  0.00     0.087 C 
HETATM    9  C   UNK N   1      32.628  12.026   3.018  0.00  0.00     0.150 C 
HETATM   10  O   UNK N   1      33.132  10.916   2.992  0.00  0.00    -0.293 OA
HETATM   11  C   UNK N   1      31.254  12.200   2.537  0.00  0.00     0.057 C 
HETATM   12  C   UNK N   1      30.591  13.347   2.683  0.00  0.00    -0.048 C 
HETATM   13  C   UNK N   1      29.203  13.429   2.111  0.00  0.00     0.040 C 
HETATM   14  C   UNK N   1      28.718  14.869   2.036  0.00  0.00     0.014 C 
HETATM   15  C   UNK N   1      28.930  15.515   3.392  0.00  0.00     0.021 C 
HETATM   16  C   UNK N   1      28.250  16.875   3.458  0.00  0.00     0.005 C 
HETATM   17  C   UNK N   1      26.735  16.852   3.317  0.00  0.00     0.009 C 
HETATM   18  C   UNK N   1      26.241  17.998   4.205  0.00  0.00     0.039 C 
HETATM   19  C   UNK N   1      27.498  18.713   4.715  0.00  0.00     0.066 C 
ENDROOT
BRANCH   4  20
HETATM   20  C   UNK N   1      31.897  16.628   5.681  0.00  0.00    -0.050 A 
HETATM   21  C   UNK N   1      33.110  17.328   5.691  0.00  0.00     0.010 A 
HETATM   22  C   UNK N   1      34.047  17.116   6.703  0.00  0.00     0.030 A 
HETATM   23  C   UNK N   1      33.796  16.188   7.726  0.00  0.00     0.029 A 
HETATM   24  C   UNK N   1      32.566  15.503   7.731  0.00  0.00     0.030 A 
HETATM   25  C   UNK N   1      31.621  15.723   6.719  0.00  0.00     0.010 A 
BRANCH  23  26
HETATM   26  N   UNK N   1      34.786  15.933   8.724  0.00  0.00    -0.390 N 
HETATM   27  C   UNK N   1      34.948  16.821   9.849  0.00  0.00     0.149 C 
HETATM   28  C   UNK N   1      35.604  14.747   8.668  0.00  0.00     0.149 C 
ENDBRANCH  23  26
ENDBRANCH   4  20
BRANCH  19  29
HETATM   29  C   UNK N   1      27.300  19.390   6.083  0.00  0.00     0.040 C 
BRANCH  29  30
HETATM   30  C   UNK N   1      27.455  20.914   6.090  0.00  0.00     0.029 C 
BRANCH  30  31
HETATM   31  C   UNK N   1      26.354  21.614   6.863  0.00  0.00     0.164 C 
BRANCH  31  32
HETATM   32  O   UNK N   1      26.047  20.879   8.007  0.00  0.00    -0.401 OA
HETATM   33  H   UNK N   1      26.724  20.351   8.457  0.00  0.00     0.209 HD
ENDBRANCH  31  32
ENDBRANCH  30  31
ENDBRANCH  29  30
ENDBRANCH  19  29
BRANCH  19  34
HETATM   34  O   UNK N   1      27.880  19.672   3.769  0.00  0.00    -0.389 OA
HETATM   35  H   UNK N   1      28.150  20.135   2.960  0.00  0.00     0.210 HD
ENDBRANCH  19  34
TORSDOF 7
ENDMDL
MODEL 2
REMARK VINA RESULT:      -7.5      2.740      5.428
REMARK  7 active torsions:
REMARK  status: ('A' for Active; 'I' for Inactive)
REMARK    1  A    between atoms: C_4  and  C_25 
REMARK    2  A    between atoms: C_19  and  C_20 
REMARK    3  A    between atoms: C_19  and  O_24 
REMARK    4  A    between atoms: C_20  and  C_21 
REMARK    5  A    between atoms: C_21  and  C_22 
REMARK    6  A    between atoms: C_22  and  O_23 
REMARK    7  A    between atoms: C_28  and  N_31 
ROOT
HETATM    1  C   UNK N   1      28.672  18.843   4.344  0.00  0.00     0.019 C 
HETATM    2  C   UNK N   1      27.595  18.207   5.248  0.00  0.00    -0.008 C 
HETATM    3  C   UNK N   1      27.662  16.682   5.161  0.00  0.00     0.026 C 
HETATM    4  C   UNK N   1      28.963  16.080   5.753  0.00  0.00     0.049 C 
HETATM    5  C   UNK N   1      29.732  16.938   6.795  0.00  0.00    -0.060 C 
HETATM    6  C   UNK N   1      30.858  16.487   7.428  0.00  0.00    -0.048 C 
HETATM    7  C   UNK N   1      31.421  15.115   7.128  0.00  0.00     0.047 C 
HETATM    8  C   UNK N   1      32.780  14.756   7.740  0.00  0.00     0.087 C 
HETATM    9  C   UNK N   1      33.470  15.851   8.497  0.00  0.00     0.150 C 
HETATM   10  O   UNK N   1      34.634  15.703   8.830  0.00  0.00    -0.293 OA
HETATM   11  C   UNK N   1      32.761  17.072   8.891  0.00  0.00     0.057 C 
HETATM   12  C   UNK N   1      31.546  17.368   8.430  0.00  0.00    -0.048 C 
HETATM   13  C   UNK N   1      30.893  18.624   8.936  0.00  0.00     0.040 C 
HETATM   14  C   UNK N   1      29.407  18.647   8.611  0.00  0.00     0.014 C 
HETATM   15  C   UNK N   1      29.238  18.345   7.134  0.00  0.00     0.021 C 
HETATM   16  C   UNK N   1      27.801  18.586   6.693  0.00  0.00     0.005 C 
HETATM   17  C   UNK N   1      27.319  20.025   6.810  0.00  0.00     0.009 C 
HETATM   18  C   UNK N   1      26.351  20.212   5.638  0.00  0.00     0.039 C 
HETATM   19  C   UNK N   1      26.219  18.836   4.973  0.00  0.00     0.066 C 
ENDROOT
BRANCH   4  20
HETATM   20  C   UNK N   1      29.733  15.345   4.677  0.00  0.00    -0.050 A 
HETATM   21  C   UNK N   1      29.465  13.983   4.492  0.00  0.00     0.010 A 
HETATM   22  C   UNK N   1      30.211  13.225   3.590  0.00  0.00     0.030 A 
HETATM   23  C   UNK N   1      31.255  13.812   2.857  0.00  0.00     0.029 A 
HETATM   24  C   UNK N   1      31.511  15.186   3.023  0.00  0.00     0.030 A 
HETATM   25  C   UNK N   1      30.753  15.950   3.922  0.00  0.00     0.010 A 
BRANCH  23  26
HETATM   26  N   UNK N   1      32.054  13.015   1.981  0.00  0.00    -0.390 N 
HETATM   27  C   UNK N   1      31.447  12.049   1.099  0.00  0.00     0.149 C 
HETATM   28  C   UNK N   1      33.483  13.201   1.908  0.00  0.00     0.149 C 
ENDBRANCH  23  26
ENDBRANCH   4  20
BRANCH  19  29
HETATM   29  C   UNK N   1      25.896  18.915   3.470  0.00  0.00     0.040 C 
BRANCH  29  30
HETATM   30  C   UNK N   1      25.223  20.211   3.010  0.00  0.00     0.029 C 
BRANCH  30  31
HETATM   31  C   UNK N   1      23.713  20.163   3.123  0.00  0.00     0.164 C 
BRANCH  31  32
HETATM   32  O   UNK N   1      23.186  21.434   2.898  0.00  0.00    -0.401 OA
HETATM   33  H   UNK N   1      22.640  21.872   3.569  0.00  0.00     0.209 HD
ENDBRANCH  31  32
ENDBRANCH  30  31
ENDBRANCH  29  30
ENDBRANCH  19  29
BRANCH  19  34
HETATM   34  O   UNK N   1      25.211  18.119   5.631  0.00  0.00    -0.389 OA
HETATM   35  H   UNK N   1      24.425  17.596   5.851  0.00  0.00     0.210 HD
ENDBRANCH  19  34
TORSDOF 7
ENDMDL
MODEL 3
REMARK VINA RESULT:      -7.4     12.685     14.886
REMARK  7 active torsions:
REMARK  status: ('A' for Active; 'I' for Inactive)
REMARK    1  A    between atoms: C_4  and  C_25 
REMARK    2  A    between atoms: C_19  and  C_20 
REMARK    3  A    between atoms: C_19  and  O_24 
REMARK    4  A    between atoms: C_20  and  C_21 
REMARK    5  A    between atoms: C_21  and  C_22 
REMARK    6  A    between atoms: C_22  and  O_23 
REMARK    7  A    between atoms: C_28  and  N_31 
ROOT
HETATM    1  C   UNK N   1      28.517  24.347  -8.729  0.00  0.00     0.019 C 
HETATM    2  C   UNK N   1      27.181  23.807  -8.177  0.00  0.00    -0.008 C 
HETATM    3  C   UNK N   1      27.222  22.281  -8.090  0.00  0.00     0.026 C 
HETATM    4  C   UNK N   1      28.233  21.744  -7.043  0.00  0.00     0.049 C 
HETATM    5  C   UNK N   1      28.641  22.704  -5.893  0.00  0.00    -0.060 C 
HETATM    6  C   UNK N   1      29.479  22.321  -4.881  0.00  0.00    -0.048 C 
HETATM    7  C   UNK N   1      30.063  20.925  -4.842  0.00  0.00     0.047 C 
HETATM    8  C   UNK N   1      31.129  20.631  -3.781  0.00  0.00     0.087 C 
HETATM    9  C   UNK N   1      31.566  21.798  -2.948  0.00  0.00     0.150 C 
HETATM   10  O   UNK N   1      32.548  21.687  -2.233  0.00  0.00    -0.293 OA
HETATM   11  C   UNK N   1      30.808  23.053  -2.932  0.00  0.00     0.057 C 
HETATM   12  C   UNK N   1      29.825  23.300  -3.797  0.00  0.00    -0.048 C 
HETATM   13  C   UNK N   1      29.083  24.601  -3.661  0.00  0.00     0.040 C 
HETATM   14  C   UNK N   1      27.791  24.590  -4.462  0.00  0.00     0.014 C 
HETATM   15  C   UNK N   1      28.110  24.138  -5.875  0.00  0.00     0.021 C 
HETATM   16  C   UNK N   1      26.910  24.332  -6.790  0.00  0.00     0.005 C 
HETATM   17  C   UNK N   1      26.464  25.775  -6.980  0.00  0.00     0.009 C 
HETATM   18  C   UNK N   1      25.946  25.840  -8.420  0.00  0.00     0.039 C 
HETATM   19  C   UNK N   1      25.995  24.404  -8.955  0.00  0.00     0.066 C 
ENDROOT
BRANCH   4  20
HETATM   20  C   UNK N   1      29.291  20.903  -7.725  0.00  0.00    -0.050 A 
HETATM   21  C   UNK N   1      29.076  19.522  -7.812  0.00  0.00     0.010 A 
HETATM   22  C   UNK N   1      30.057  18.679  -8.335  0.00  0.00     0.030 A 
HETATM   23  C   UNK N   1      31.284  19.199  -8.774  0.00  0.00     0.029 A 
HETATM   24  C   UNK N   1      31.493  20.590  -8.711  0.00  0.00     0.030 A 
HETATM   25  C   UNK N   1      30.502  21.438  -8.195  0.00  0.00     0.010 A 
BRANCH  23  26
HETATM   26  N   UNK N   1      32.307  18.322  -9.251  0.00  0.00    -0.390 N 
HETATM   27  C   UNK N   1      32.084  17.483 -10.403  0.00  0.00     0.149 C 
HETATM   28  C   UNK N   1      33.611  18.301  -8.635  0.00  0.00     0.149 C 
ENDBRANCH  23  26
ENDBRANCH   4  20
BRANCH  19  29
HETATM   29  C   UNK N   1      26.191  24.329 -10.479  0.00  0.00     0.040 C 
BRANCH  29  30
HETATM   30  C   UNK N   1      26.028  25.654 -11.229  0.00  0.00     0.029 C 
BRANCH  30  31
HETATM   31  C   UNK N   1      24.743  25.723 -12.029  0.00  0.00     0.164 C 
BRANCH  31  32
HETATM   32  O   UNK N   1      23.688  26.079 -11.190  0.00  0.00    -0.401 OA
HETATM   33  H   UNK N   1      22.808  25.687 -11.303  0.00  0.00     0.209 HD
ENDBRANCH  31  32
ENDBRANCH  30  31
ENDBRANCH  29  30
ENDBRANCH  19  29
BRANCH  19  34
HETATM   34  O   UNK N   1      24.803  23.758  -8.604  0.00  0.00    -0.389 OA
HETATM   35  H   UNK N   1      24.124  23.105  -8.372  0.00  0.00     0.210 HD
ENDBRANCH  19  34
TORSDOF 7
ENDMDL
MODEL 4
REMARK VINA RESULT:      -7.3      5.928      9.419
REMARK  7 active torsions:
REMARK  status: ('A' for Active; 'I' for Inactive)
REMARK    1  A    between atoms: C_4  and  C_25 
REMARK    2  A    between atoms: C_19  and  C_20 
REMARK    3  A    between atoms: C_19  and  O_24 
REMARK    4  A    between atoms: C_20  and  C_21 
REMARK    5  A    between atoms: C_21  and  C_22 
REMARK    6  A    between atoms: C_22  and  O_23 
REMARK    7  A    between atoms: C_28  and  N_31 
ROOT
HETATM    1  C   UNK N   1      24.902  17.564   4.633  0.00  0.00     0.019 C 
HETATM    2  C   UNK N   1      25.607  16.224   4.932  0.00  0.00    -0.008 C 
HETATM    3  C   UNK N   1      24.818  15.430   5.973  0.00  0.00     0.026 C 
HETATM    4  C   UNK N   1      23.431  14.949   5.471  0.00  0.00     0.049 C 
HETATM    5  C   UNK N   1      23.237  14.825   3.935  0.00  0.00    -0.060 C 
HETATM    6  C   UNK N   1      22.078  14.356   3.378  0.00  0.00    -0.048 C 
HETATM    7  C   UNK N   1      20.912  13.939   4.248  0.00  0.00     0.047 C 
HETATM    8  C   UNK N   1      19.591  13.597   3.548  0.00  0.00     0.087 C 
HETATM    9  C   UNK N   1      19.559  13.812   2.065  0.00  0.00     0.150 C 
HETATM   10  O   UNK N   1      18.491  13.760   1.478  0.00  0.00    -0.293 OA
HETATM   11  C   UNK N   1      20.789  14.031   1.297  0.00  0.00     0.057 C 
HETATM   12  C   UNK N   1      21.963  14.255   1.885  0.00  0.00    -0.048 C 
HETATM   13  C   UNK N   1      23.168  14.421   1.001  0.00  0.00     0.040 C 
HETATM   14  C   UNK N   1      24.459  14.315   1.797  0.00  0.00     0.014 C 
HETATM   15  C   UNK N   1      24.362  15.248   2.990  0.00  0.00     0.021 C 
HETATM   16  C   UNK N   1      25.706  15.371   3.693  0.00  0.00     0.005 C 
HETATM   17  C   UNK N   1      26.822  15.987   2.861  0.00  0.00     0.009 C 
HETATM   18  C   UNK N   1      27.678  16.764   3.865  0.00  0.00     0.039 C 
HETATM   19  C   UNK N   1      27.094  16.455   5.250  0.00  0.00     0.066 C 
ENDROOT
BRANCH   4  20
HETATM   20  C   UNK N   1      22.332  15.556   6.316  0.00  0.00    -0.050 A 
HETATM   21  C   UNK N   1      21.876  16.837   5.978  0.00  0.00     0.010 A 
HETATM   22  C   UNK N   1      20.940  17.495   6.777  0.00  0.00     0.030 A 
HETATM   23  C   UNK N   1      20.446  16.890   7.943  0.00  0.00     0.029 A 
HETATM   24  C   UNK N   1      20.884  15.593   8.271  0.00  0.00     0.030 A 
HETATM   25  C   UNK N   1      21.817  14.928   7.463  0.00  0.00     0.010 A 
BRANCH  23  26
HETATM   26  N   UNK N   1      19.535  17.595   8.788  0.00  0.00    -0.390 N 
HETATM   27  C   UNK N   1      18.273  17.008   9.169  0.00  0.00     0.149 C 
HETATM   28  C   UNK N   1      19.879  18.884   9.335  0.00  0.00     0.149 C 
ENDBRANCH  23  26
ENDBRANCH   4  20
BRANCH  19  29
HETATM   29  C   UNK N   1      27.310  17.590   6.267  0.00  0.00     0.040 C 
BRANCH  29  30
HETATM   30  C   UNK N   1      28.356  17.310   7.350  0.00  0.00     0.029 C 
BRANCH  30  31
HETATM   31  C   UNK N   1      28.365  18.358   8.445  0.00  0.00     0.164 C 
BRANCH  31  32
HETATM   32  O   UNK N   1      27.411  18.034   9.409  0.00  0.00    -0.401 OA
HETATM   33  H   UNK N   1      27.244  18.622  10.162  0.00  0.00     0.209 HD
ENDBRANCH  31  32
ENDBRANCH  30  31
ENDBRANCH  29  30
ENDBRANCH  19  29
BRANCH  19  34
HETATM   34  O   UNK N   1      27.683  15.278   5.728  0.00  0.00    -0.389 OA
HETATM   35  H   UNK N   1      28.295  14.559   5.946  0.00  0.00     0.210 HD
ENDBRANCH  19  34
TORSDOF 7
ENDMDL
MODEL 5
REMARK VINA RESULT:      -7.2      4.337      7.048
REMARK  7 active torsions:
REMARK  status: ('A' for Active; 'I' for Inactive)
REMARK    1  A    between atoms: C_4  and  C_25 
REMARK    2  A    between atoms: C_19  and  C_20 
REMARK    3  A    between atoms: C_19  and  O_24 
REMARK    4  A    between atoms: C_20  and  C_21 
REMARK    5  A    between atoms: C_21  and  C_22 
REMARK    6  A    between atoms: C_22  and  O_23 
REMARK    7  A    between atoms: C_28  and  N_31 
ROOT
HETATM    1  C   UNK N   1      32.756  14.659   8.562  0.00  0.00     0.019 C 
HETATM    2  C   UNK N   1      33.470  16.005   8.319  0.00  0.00    -0.008 C 
HETATM    3  C   UNK N   1      34.375  16.347   9.503  0.00  0.00     0.026 C 
HETATM    4  C   UNK N   1      35.578  15.380   9.668  0.00  0.00     0.049 C 
HETATM    5  C   UNK N   1      36.032  14.593   8.409  0.00  0.00    -0.060 C 
HETATM    6  C   UNK N   1      37.116  13.757   8.420  0.00  0.00    -0.048 C 
HETATM    7  C   UNK N   1      37.926  13.551   9.681  0.00  0.00     0.047 C 
HETATM    8  C   UNK N   1      39.010  12.467   9.660  0.00  0.00     0.087 C 
HETATM    9  C   UNK N   1      39.087  11.640   8.412  0.00  0.00     0.150 C 
HETATM   10  O   UNK N   1      39.778  10.635   8.404  0.00  0.00    -0.293 OA
HETATM   11  C   UNK N   1      38.394  12.042   7.184  0.00  0.00     0.057 C 
HETATM   12  C   UNK N   1      37.503  13.033   7.163  0.00  0.00    -0.048 C 
HETATM   13  C   UNK N   1      36.886  13.391   5.840  0.00  0.00     0.040 C 
HETATM   14  C   UNK N   1      36.179  14.736   5.903  0.00  0.00     0.014 C 
HETATM   15  C   UNK N   1      35.250  14.731   7.102  0.00  0.00     0.021 C 
HETATM   16  C   UNK N   1      34.339  15.949   7.088  0.00  0.00     0.005 C 
HETATM   17  C   UNK N   1      33.381  16.031   5.908  0.00  0.00     0.009 C 
HETATM   18  C   UNK N   1      32.122  16.697   6.470  0.00  0.00     0.039 C 
HETATM   19  C   UNK N   1      32.456  17.089   7.915  0.00  0.00     0.066 C 
ENDROOT
BRANCH   4  20
HETATM   20  C   UNK N   1      35.496  14.672  11.004  0.00  0.00    -0.050 A 
HETATM   21  C   UNK N   1      36.128  15.268  12.102  0.00  0.00     0.010 A 
HETATM   22  C   UNK N   1      36.179  14.618  13.335  0.00  0.00     0.030 A 
HETATM   23  C   UNK N   1      35.607  13.346  13.495  0.00  0.00     0.029 A 
HETATM   24  C   UNK N   1      34.951  12.755  12.399  0.00  0.00     0.030 A 
HETATM   25  C   UNK N   1      34.891  13.414  11.163  0.00  0.00     0.010 A 
BRANCH  23  26
HETATM   26  N   UNK N   1      35.718  12.660  14.744  0.00  0.00    -0.390 N 
HETATM   27  C   UNK N   1      34.738  12.855  15.784  0.00  0.00     0.149 C 
HETATM   28  C   UNK N   1      36.775  11.706  14.974  0.00  0.00     0.149 C 
ENDBRANCH  23  26
ENDBRANCH   4  20
BRANCH  19  29
HETATM   29  C   UNK N   1      31.225  17.119   8.837  0.00  0.00     0.040 C 
BRANCH  29  30
HETATM   30  C   UNK N   1      29.947  17.681   8.209  0.00  0.00     0.029 C 
BRANCH  30  31
HETATM   31  C   UNK N   1      29.167  18.571   9.156  0.00  0.00     0.164 C 
BRANCH  31  32
HETATM   32  O   UNK N   1      29.691  18.456  10.443  0.00  0.00    -0.401 OA
HETATM   33  H   UNK N   1      29.163  18.078  11.164  0.00  0.00     0.209 HD
ENDBRANCH  31  32
ENDBRANCH  30  31
ENDBRANCH  29  30
ENDBRANCH  19  29
BRANCH  19  34
HETATM   34  O   UNK N   1      33.064  18.351   7.904  0.00  0.00    -0.389 OA
HETATM   35  H   UNK N   1      33.282  19.287   8.032  0.00  0.00     0.210 HD
ENDBRANCH  19  34
TORSDOF 7
ENDMDL
MODEL 6
REMARK VINA RESULT:      -7.2     10.332     14.711
REMARK  7 active torsions:
REMARK  status: ('A' for Active; 'I' for Inactive)
REMARK    1  A    between atoms: C_4  and  C_25 
REMARK    2  A    between atoms: C_19  and  C_20 
REMARK    3  A    between atoms: C_19  and  O_24 
REMARK    4  A    between atoms: C_20  and  C_21 
REMARK    5  A    between atoms: C_21  and  C_22 
REMARK    6  A    between atoms: C_22  and  O_23 
REMARK    7  A    between atoms: C_28  and  N_31 
ROOT
HETATM    1  C   UNK N   1      37.729  11.660  14.247  0.00  0.00     0.019 C 
HETATM    2  C   UNK N   1      36.253  11.732  13.801  0.00  0.00    -0.008 C 
HETATM    3  C   UNK N   1      35.601  10.353  13.900  0.00  0.00     0.026 C 
HETATM    4  C   UNK N   1      35.464   9.831  15.354  0.00  0.00     0.049 C 
HETATM    5  C   UNK N   1      35.463  10.889  16.490  0.00  0.00    -0.060 C 
HETATM    6  C   UNK N   1      35.290  10.553  17.806  0.00  0.00    -0.048 C 
HETATM    7  C   UNK N   1      35.097   9.110  18.219  0.00  0.00     0.047 C 
HETATM    8  C   UNK N   1      35.090   8.796  19.720  0.00  0.00     0.087 C 
HETATM    9  C   UNK N   1      35.382   9.949  20.633  0.00  0.00     0.150 C 
HETATM   10  O   UNK N   1      35.596   9.734  21.814  0.00  0.00    -0.293 OA
HETATM   11  C   UNK N   1      35.362  11.332  20.148  0.00  0.00     0.057 C 
HETATM   12  C   UNK N   1      35.293  11.629  18.851  0.00  0.00    -0.048 C 
HETATM   13  C   UNK N   1      35.233  13.082  18.469  0.00  0.00     0.040 C 
HETATM   14  C   UNK N   1      34.805  13.258  17.020  0.00  0.00     0.014 C 
HETATM   15  C   UNK N   1      35.675  12.366  16.154  0.00  0.00     0.021 C 
HETATM   16  C   UNK N   1      35.462  12.670  14.678  0.00  0.00     0.005 C 
HETATM   17  C   UNK N   1      35.859  14.072  14.239  0.00  0.00     0.009 C 
HETATM   18  C   UNK N   1      36.376  13.904  12.808  0.00  0.00     0.039 C 
HETATM   19  C   UNK N   1      36.135  12.435  12.438  0.00  0.00     0.066 C 
ENDROOT
BRANCH   4  20
HETATM   20  C   UNK N   1      36.255   8.552  15.525  0.00  0.00    -0.050 A 
HETATM   21  C   UNK N   1      37.602   8.658  15.894  0.00  0.00     0.010 A 
HETATM   22  C   UNK N   1      38.413   7.525  15.967  0.00  0.00     0.030 A 
HETATM   23  C   UNK N   1      37.896   6.257  15.659  0.00  0.00     0.029 A 
HETATM   24  C   UNK N   1      36.537   6.145  15.311  0.00  0.00     0.030 A 
HETATM   25  C   UNK N   1      35.719   7.282  15.249  0.00  0.00     0.010 A 
BRANCH  23  26
HETATM   26  N   UNK N   1      38.748   5.110  15.676  0.00  0.00    -0.390 N 
HETATM   27  C   UNK N   1      40.061   5.172  16.271  0.00  0.00     0.149 C 
HETATM   28  C   UNK N   1      38.295   3.843  15.158  0.00  0.00     0.149 C 
ENDBRANCH  23  26
ENDBRANCH   4  20
BRANCH  19  29
HETATM   29  C   UNK N   1      37.140  11.895  11.406  0.00  0.00     0.040 C 
BRANCH  29  30
HETATM   30  C   UNK N   1      37.309  12.746  10.145  0.00  0.00     0.029 C 
BRANCH  30  31
HETATM   31  C   UNK N   1      38.667  13.414  10.063  0.00  0.00     0.164 C 
BRANCH  31  32
HETATM   32  O   UNK N   1      38.506  14.798  10.025  0.00  0.00    -0.401 OA
HETATM   33  H   UNK N   1      39.044  15.378  10.586  0.00  0.00     0.209 HD
ENDBRANCH  31  32
ENDBRANCH  30  31
ENDBRANCH  29  30
ENDBRANCH  19  29
BRANCH  19  34
HETATM   34  O   UNK N   1      34.834  12.312  11.933  0.00  0.00    -0.389 OA
HETATM   35  H   UNK N   1      34.027  12.371  11.399  0.00  0.00     0.210 HD
ENDBRANCH  19  34
TORSDOF 7
ENDMDL
MODEL 7
REMARK VINA RESULT:      -7.1     11.945     14.675
REMARK  7 active torsions:
REMARK  status: ('A' for Active; 'I' for Inactive)
REMARK    1  A    between atoms: C_4  and  C_25 
REMARK    2  A    between atoms: C_19  and  C_20 
REMARK    3  A    between atoms: C_19  and  O_24 
REMARK    4  A    between atoms: C_20  and  C_21 
REMARK    5  A    between atoms: C_21  and  C_22 
REMARK    6  A    between atoms: C_22  and  O_23 
REMARK    7  A    between atoms: C_28  and  N_31 
ROOT
HETATM    1  C   UNK N   1      31.784  22.718  -6.162  0.00  0.00     0.019 C 
HETATM    2  C   UNK N   1      31.161  21.474  -5.495  0.00  0.00    -0.008 C 
HETATM    3  C   UNK N   1      30.019  21.886  -4.567  0.00  0.00     0.026 C 
HETATM    4  C   UNK N   1      28.797  22.488  -5.310  0.00  0.00     0.049 C 
HETATM    5  C   UNK N   1      28.625  22.116  -6.808  0.00  0.00    -0.060 C 
HETATM    6  C   UNK N   1      27.555  22.539  -7.549  0.00  0.00    -0.048 C 
HETATM    7  C   UNK N   1      26.481  23.410  -6.936  0.00  0.00     0.047 C 
HETATM    8  C   UNK N   1      25.415  23.989  -7.873  0.00  0.00     0.087 C 
HETATM    9  C   UNK N   1      25.607  23.715  -9.335  0.00  0.00     0.150 C 
HETATM   10  O   UNK N   1      24.922  24.312 -10.148  0.00  0.00    -0.293 OA
HETATM   11  C   UNK N   1      26.562  22.708  -9.805  0.00  0.00     0.057 C 
HETATM   12  C   UNK N   1      27.449  22.135  -8.991  0.00  0.00    -0.048 C 
HETATM   13  C   UNK N   1      28.351  21.081  -9.570  0.00  0.00     0.040 C 
HETATM   14  C   UNK N   1      29.044  20.283  -8.477  0.00  0.00     0.014 C 
HETATM   15  C   UNK N   1      29.681  21.258  -7.505  0.00  0.00     0.021 C 
HETATM   16  C   UNK N   1      30.589  20.531  -6.523  0.00  0.00     0.005 C 
HETATM   17  C   UNK N   1      31.788  19.828  -7.145  0.00  0.00     0.009 C 
HETATM   18  C   UNK N   1      32.898  19.945  -6.097  0.00  0.00     0.039 C 
HETATM   19  C   UNK N   1      32.254  20.594  -4.866  0.00  0.00     0.066 C 
ENDROOT
BRANCH   4  20
HETATM   20  C   UNK N   1      28.568  23.916  -4.863  0.00  0.00    -0.050 A 
HETATM   21  C   UNK N   1      27.553  24.156  -3.928  0.00  0.00     0.010 A 
HETATM   22  C   UNK N   1      27.222  25.459  -3.554  0.00  0.00     0.030 A 
HETATM   23  C   UNK N   1      27.894  26.555  -4.116  0.00  0.00     0.029 A 
HETATM   24  C   UNK N   1      28.931  26.315  -5.037  0.00  0.00     0.030 A 
HETATM   25  C   UNK N   1      29.270  25.005  -5.405  0.00  0.00     0.010 A 
BRANCH  23  26
HETATM   26  N   UNK N   1      27.507  27.887  -3.774  0.00  0.00    -0.390 N 
HETATM   27  C   UNK N   1      26.117  28.273  -3.753  0.00  0.00     0.149 C 
HETATM   28  C   UNK N   1      28.491  28.864  -3.376  0.00  0.00     0.149 C 
ENDBRANCH  23  26
ENDBRANCH   4  20
BRANCH  19  29
HETATM   29  C   UNK N   1      33.248  21.405  -4.016  0.00  0.00     0.040 C 
BRANCH  29  30
HETATM   30  C   UNK N   1      34.560  20.691  -3.678  0.00  0.00     0.029 C 
BRANCH  30  31
HETATM   31  C   UNK N   1      35.778  21.406  -4.227  0.00  0.00     0.164 C 
BRANCH  31  32
HETATM   32  O   UNK N   1      36.909  20.611  -4.044  0.00  0.00    -0.401 OA
HETATM   33  H   UNK N   1      37.602  20.567  -4.720  0.00  0.00     0.209 HD
ENDBRANCH  31  32
ENDBRANCH  30  31
ENDBRANCH  29  30
ENDBRANCH  19  29
BRANCH  19  34
HETATM   34  O   UNK N   1      31.681  19.585  -4.080  0.00  0.00    -0.389 OA
HETATM   35  H   UNK N   1      31.312  18.753  -3.748  0.00  0.00     0.210 HD
ENDBRANCH  19  34
TORSDOF 7
ENDMDL
MODEL 8
REMARK VINA RESULT:      -7.0      1.411      2.082
REMARK  7 active torsions:
REMARK  status: ('A' for Active; 'I' for Inactive)
REMARK    1  A    between atoms: C_4  and  C_25 
REMARK    2  A    between atoms: C_19  and  C_20 
REMARK    3  A    between atoms: C_19  and  O_24 
REMARK    4  A    between atoms: C_20  and  C_21 
REMARK    5  A    between atoms: C_21  and  C_22 
REMARK    6  A    between atoms: C_22  and  O_23 
REMARK    7  A    between atoms: C_28  and  N_31 
ROOT
HETATM    1  C   UNK N   1      26.746  16.965   5.645  0.00  0.00     0.019 C 
HETATM    2  C   UNK N   1      26.705  17.612   4.245  0.00  0.00    -0.008 C 
HETATM    3  C   UNK N   1      28.102  18.075   3.833  0.00  0.00     0.026 C 
HETATM    4  C   UNK N   1      29.105  16.912   3.611  0.00  0.00     0.049 C 
HETATM    5  C   UNK N   1      28.509  15.515   3.289  0.00  0.00    -0.060 C 
HETATM    6  C   UNK N   1      29.295  14.428   3.017  0.00  0.00    -0.048 C 
HETATM    7  C   UNK N   1      30.804  14.540   3.027  0.00  0.00     0.047 C 
HETATM    8  C   UNK N   1      31.613  13.244   2.891  0.00  0.00     0.087 C 
HETATM    9  C   UNK N   1      30.818  11.973   2.866  0.00  0.00     0.150 C 
HETATM   10  O   UNK N   1      31.398  10.905   2.968  0.00  0.00    -0.293 OA
HETATM   11  C   UNK N   1      29.365  11.984   2.668  0.00  0.00     0.057 C 
HETATM   12  C   UNK N   1      28.651  13.109   2.707  0.00  0.00    -0.048 C 
HETATM   13  C   UNK N   1      27.174  13.008   2.446  0.00  0.00     0.040 C 
HETATM   14  C   UNK N   1      26.565  14.375   2.174  0.00  0.00     0.014 C 
HETATM   15  C   UNK N   1      26.993  15.317   3.283  0.00  0.00     0.021 C 
HETATM   16  C   UNK N   1      26.229  16.631   3.203  0.00  0.00     0.005 C 
HETATM   17  C   UNK N   1      24.724  16.521   3.403  0.00  0.00     0.009 C 
HETATM   18  C   UNK N   1      24.326  17.819   4.113  0.00  0.00     0.039 C 
HETATM   19  C   UNK N   1      25.596  18.676   4.174  0.00  0.00     0.066 C 
ENDROOT
BRANCH   4  20
HETATM   20  C   UNK N   1      30.259  17.027   4.583  0.00  0.00    -0.050 A 
HETATM   21  C   UNK N   1      31.477  17.520   4.100  0.00  0.00     0.010 A 
HETATM   22  C   UNK N   1      32.608  17.554   4.917  0.00  0.00     0.030 A 
HETATM   23  C   UNK N   1      32.547  17.082   6.238  0.00  0.00     0.029 A 
HETATM   24  C   UNK N   1      31.318  16.610   6.733  0.00  0.00     0.030 A 
HETATM   25  C   UNK N   1      30.179  16.586   5.915  0.00  0.00     0.010 A 
BRANCH  23  26
HETATM   26  N   UNK N   1      33.724  17.063   7.048  0.00  0.00    -0.390 N 
HETATM   27  C   UNK N   1      34.676  15.985   6.945  0.00  0.00     0.149 C 
HETATM   28  C   UNK N   1      34.024  18.153   7.944  0.00  0.00     0.149 C 
ENDBRANCH  23  26
ENDBRANCH   4  20
BRANCH  19  29
HETATM   29  C   UNK N   1      25.623  19.637   5.376  0.00  0.00     0.040 C 
BRANCH  29  30
HETATM   30  C   UNK N   1      26.583  20.823   5.248  0.00  0.00     0.029 C 
BRANCH  30  31
HETATM   31  C   UNK N   1      27.480  20.989   6.458  0.00  0.00     0.164 C 
BRANCH  31  32
HETATM   32  O   UNK N   1      27.167  20.018   7.408  0.00  0.00    -0.401 OA
HETATM   33  H   UNK N   1      26.385  19.453   7.305  0.00  0.00     0.209 HD
ENDBRANCH  31  32
ENDBRANCH  30  31
ENDBRANCH  29  30
ENDBRANCH  19  29
BRANCH  19  34
HETATM   34  O   UNK N   1      25.695  19.410   2.986  0.00  0.00    -0.389 OA
HETATM   35  H   UNK N   1      25.517  19.867   2.149  0.00  0.00     0.210 HD
ENDBRANCH  19  34
TORSDOF 7
ENDMDL
MODEL 9
REMARK VINA RESULT:      -6.7      2.197      6.647
REMARK  7 active torsions:
REMARK  status: ('A' for Active; 'I' for Inactive)
REMARK    1  A    between atoms: C_4  and  C_25 
REMARK    2  A    between atoms: C_19  and  C_20 
REMARK    3  A    between atoms: C_19  and  O_24 
REMARK    4  A    between atoms: C_20  and  C_21 
REMARK    5  A    between atoms: C_21  and  C_22 
REMARK    6  A    between atoms: C_22  and  O_23 
REMARK    7  A    between atoms: C_28  and  N_31 
ROOT
HETATM    1  C   UNK N   1      28.848  15.257   2.545  0.00  0.00     0.019 C 
HETATM    2  C   UNK N   1      27.830  14.493   3.417  0.00  0.00    -0.008 C 
HETATM    3  C   UNK N   1      28.260  14.524   4.884  0.00  0.00     0.026 C 
HETATM    4  C   UNK N   1      28.216  15.940   5.517  0.00  0.00     0.049 C 
HETATM    5  C   UNK N   1      27.281  16.986   4.851  0.00  0.00    -0.060 C 
HETATM    6  C   UNK N   1      27.116  18.247   5.355  0.00  0.00    -0.048 C 
HETATM    7  C   UNK N   1      27.855  18.689   6.599  0.00  0.00     0.047 C 
HETATM    8  C   UNK N   1      27.756  20.167   6.996  0.00  0.00     0.087 C 
HETATM    9  C   UNK N   1      27.014  21.055   6.043  0.00  0.00     0.150 C 
HETATM   10  O   UNK N   1      27.073  22.264   6.187  0.00  0.00    -0.293 OA
HETATM   11  C   UNK N   1      26.177  20.500   4.976  0.00  0.00     0.057 C 
HETATM   12  C   UNK N   1      26.190  19.204   4.663  0.00  0.00    -0.048 C 
HETATM   13  C   UNK N   1      25.257  18.737   3.581  0.00  0.00     0.040 C 
HETATM   14  C   UNK N   1      25.125  17.222   3.579  0.00  0.00     0.014 C 
HETATM   15  C   UNK N   1      26.518  16.621   3.577  0.00  0.00     0.021 C 
HETATM   16  C   UNK N   1      26.461  15.120   3.335  0.00  0.00     0.005 C 
HETATM   17  C   UNK N   1      25.900  14.700   1.984  0.00  0.00     0.009 C 
HETATM   18  C   UNK N   1      26.672  13.430   1.616  0.00  0.00     0.039 C 
HETATM   19  C   UNK N   1      27.551  13.100   2.828  0.00  0.00     0.066 C 
ENDROOT
BRANCH   4  20
HETATM   20  C   UNK N   1      29.602  16.353   5.965  0.00  0.00    -0.050 A 
HETATM   21  C   UNK N   1      30.516  16.754   4.982  0.00  0.00     0.010 A 
HETATM   22  C   UNK N   1      31.838  17.047   5.316  0.00  0.00     0.030 A 
HETATM   23  C   UNK N   1      32.281  16.935   6.643  0.00  0.00     0.029 A 
HETATM   24  C   UNK N   1      31.358  16.556   7.635  0.00  0.00     0.030 A 
HETATM   25  C   UNK N   1      30.027  16.271   7.301  0.00  0.00     0.010 A 
BRANCH  23  26
HETATM   26  N   UNK N   1      33.652  17.177   6.966  0.00  0.00    -0.390 N 
HETATM   27  C   UNK N   1      34.704  16.398   6.360  0.00  0.00     0.149 C 
HETATM   28  C   UNK N   1      34.024  18.250   7.855  0.00  0.00     0.149 C 
ENDBRANCH  23  26
ENDBRANCH   4  20
BRANCH  19  29
HETATM   29  C   UNK N   1      28.842  12.348   2.457  0.00  0.00     0.040 C 
BRANCH  29  30
HETATM   30  C   UNK N   1      28.903  11.815   1.023  0.00  0.00     0.029 C 
BRANCH  30  31
HETATM   31  C   UNK N   1      30.124  12.296   0.267  0.00  0.00     0.164 C 
BRANCH  31  32
HETATM   32  O   UNK N   1      29.896  12.194  -1.104  0.00  0.00    -0.401 OA
HETATM   33  H   UNK N   1      29.555  12.948  -1.610  0.00  0.00     0.209 HD
ENDBRANCH  31  32
ENDBRANCH  30  31
ENDBRANCH  29  30
ENDBRANCH  19  29
BRANCH  19  34
HETATM   34  O   UNK N   1      26.801  12.329   3.725  0.00  0.00    -0.389 OA
HETATM   35  H   UNK N   1      26.417  11.606   4.245  0.00  0.00     0.210 HD
ENDBRANCH  19  34
TORSDOF 7
ENDMDL
