REMARK  6 active torsions:
REMARK  status: ('A' for Active; 'I' for Inactive)
REMARK    1  A    between atoms: C_3  and  C_18 
REMARK    2  A    between atoms: C_4  and  C_16 
REMARK    3  A    between atoms: C_10  and  N_13 
REMARK    4  A    between atoms: C_16  and  O_17 
REMARK    5  A    between atoms: C_19  and  C_20 
REMARK    6  A    between atoms: C_20  and  O_21 
ROOT
HETATM    1  C   UNK N   1      -0.686   1.700   0.328  0.00  0.00     0.156 C 
HETATM    2  N   UNK N   1      -0.324   0.295   0.190  0.00  0.00    -0.347 N 
HETATM    3  C   UNK N   1      -1.166  -0.758   0.046  0.00  0.00     0.043 A 
HETATM    4  C   UNK N   1      -0.437  -1.938  -0.053  0.00  0.00     0.009 A 
HETATM    5  C   UNK N   1       0.908  -1.564  -0.003  0.00  0.00     0.057 A 
HETATM    6  C   UNK N   1       0.930  -0.198   0.156  0.00  0.00     0.100 A 
HETATM    7  C   UNK N   1       2.201   0.545   0.235  0.00  0.00     0.201 A 
HETATM    8  O   UNK N   1       2.222   1.756   0.387  0.00  0.00    -0.286 OA
HETATM    9  C   UNK N   1       3.467  -0.215   0.095  0.00  0.00     0.085 A 
HETATM   10  C   UNK N   1       3.471  -1.560  -0.073  0.00  0.00     0.066 A 
HETATM   11  C   UNK N   1       2.179  -2.318  -0.128  0.00  0.00     0.206 A 
HETATM   12  O   UNK N   1       2.186  -3.522  -0.317  0.00  0.00    -0.285 OA
ENDROOT
BRANCH   3  13
HETATM   13  C   UNK N   1      -2.640  -0.701  -0.053  0.00  0.00     0.028 C 
HETATM   14  C   UNK N   1      -3.321   0.438  -0.191  0.00  0.00     0.001 C 
BRANCH  14  15
HETATM   15  C   UNK N   1      -4.813   0.458  -0.355  0.00  0.00     0.191 C 
BRANCH  15  16
HETATM   16  O   UNK N   1      -5.354  -0.831  -0.350  0.00  0.00    -0.397 OA
HETATM   17  H   UNK N   1      -6.316  -0.953  -0.347  0.00  0.00     0.209 HD
ENDBRANCH  15  16
ENDBRANCH  14  15
ENDBRANCH   3  13
BRANCH   4  18
HETATM   18  C   UNK N   1      -1.087  -3.287  -0.221  0.00  0.00     0.206 C 
BRANCH  18  19
HETATM   19  O   UNK N   1      -0.194  -4.349  -0.134  0.00  0.00    -0.396 OA
HETATM   20  H   UNK N   1      -0.524  -5.260  -0.073  0.00  0.00     0.209 HD
ENDBRANCH  18  19
ENDBRANCH   4  18
BRANCH  10  21
HETATM   21  N   UNK N   1       4.710  -2.235  -0.260  0.00  0.00    -0.278 NA
HETATM   22  C   UNK N   1       5.826  -2.052   0.555  0.00  0.00     0.110 A 
HETATM   23  C   UNK N   1       5.031  -3.461   0.322  0.00  0.00     0.110 A 
ENDBRANCH  10  21
TORSDOF 6
