MODEL 1
REMARK VINA RESULT:      -7.5      0.000      0.000
REMARK  10 active torsions:
REMARK  status: ('A' for Active; 'I' for Inactive)
REMARK    1  A    between atoms: C_2  and  C_4 
REMARK    2  A    between atoms: C_2  and  N_22 
REMARK    3  A    between atoms: C_4  and  C_5 
REMARK    4  A    between atoms: C_5  and  C_6 
REMARK    5  A    between atoms: C_6  and  C_7 
REMARK    6  A    between atoms: C_6  and  C_13 
REMARK    7  A    between atoms: C_6  and  C_19 
REMARK       I    between atoms: C_19  and  N_21 
REMARK    8  A    between atoms: C_24  and  O_26 
REMARK    9  A    between atoms: O_26  and  C_27 
REMARK   10  A    between atoms: C_31  and  O_33 
ROOT
HETATM    1  C   UNK N   1      23.536  13.943   7.289  0.00  0.00     0.032 C 
ENDROOT
BRANCH   1   2
HETATM    2  C   UNK N   1      23.640  13.540   5.805  0.00  0.00     0.043 C 
BRANCH   2   3
HETATM    3  C   UNK N   1      24.723  14.274   5.004  0.00  0.00     0.153 C 
HETATM    4  C   UNK N   1      24.878  15.682   5.587  0.00  0.00     0.049 C 
HETATM    5  C   UNK N   1      26.057  13.553   5.157  0.00  0.00     0.049 C 
BRANCH   3   6
HETATM    6  N   UNK N   1      24.347  14.250   3.564  0.00  0.00     0.102 N 
HETATM    7  C   UNK N   1      22.927  13.995   3.344  0.00  0.00     0.307 A 
HETATM    8  C   UNK N   1      22.670  15.398   2.813  0.00  0.00     0.185 A 
HETATM    9  C   UNK N   1      24.162  15.587   2.999  0.00  0.00     0.307 A 
BRANCH   8  10
HETATM   10  O   UNK N   1      22.032  16.131   3.789  0.00  0.00    -0.342 OA
BRANCH  10  11
HETATM   11  C   UNK N   1      21.447  17.328   3.563  0.00  0.00     0.072 A 
HETATM   12  C   UNK N   1      22.149  18.535   3.726  0.00  0.00     0.037 A 
HETATM   13  C   UNK N   1      21.524  19.751   3.433  0.00  0.00     0.005 A 
HETATM   14  C   UNK N   1      20.210  19.763   2.953  0.00  0.00     0.037 A 
HETATM   15  C   UNK N   1      19.516  18.562   2.785  0.00  0.00     0.068 A 
HETATM   16  C   UNK N   1      20.130  17.351   3.102  0.00  0.00     0.073 A 
BRANCH  15  17
HETATM   17  O   UNK N   1      18.263  18.569   2.304  0.00  0.00    -0.361 OA
HETATM   18  H   UNK N   1      17.469  18.739   2.771  0.00  0.00     0.217 HD
ENDBRANCH  15  17
ENDBRANCH  10  11
ENDBRANCH   8  10
ENDBRANCH   3   6
ENDBRANCH   2   3
ENDBRANCH   1   2
BRANCH   1  19
HETATM   19  C   UNK N   1      22.156  13.633   7.929  0.00  0.00     0.095 C 
BRANCH  19  20
HETATM   20  C   UNK N   1      22.421  13.031   9.320  0.00  0.00    -0.036 A 
HETATM   21  C   UNK N   1      21.371  12.662  10.185  0.00  0.00     0.009 A 
HETATM   22  C   UNK N   1      21.637  12.097  11.436  0.00  0.00     0.001 A 
HETATM   23  C   UNK N   1      22.956  11.897  11.847  0.00  0.00     0.000 A 
HETATM   24  C   UNK N   1      24.010  12.268  11.009  0.00  0.00     0.001 A 
HETATM   25  C   UNK N   1      23.745  12.831   9.757  0.00  0.00     0.009 A 
ENDBRANCH  19  20
BRANCH  19  26
HETATM   26  C   UNK N   1      21.315  14.922   8.046  0.00  0.00    -0.036 A 
HETATM   27  C   UNK N   1      20.279  15.041   8.992  0.00  0.00     0.009 A 
HETATM   28  C   UNK N   1      19.502  16.202   9.056  0.00  0.00     0.001 A 
HETATM   29  C   UNK N   1      19.747  17.259   8.178  0.00  0.00     0.000 A 
HETATM   30  C   UNK N   1      20.772  17.159   7.235  0.00  0.00     0.001 A 
HETATM   31  C   UNK N   1      21.548  16.000   7.167  0.00  0.00     0.009 A 
ENDBRANCH  19  26
BRANCH  19  32
HETATM   32  C   UNK N   1      21.439  12.578   7.071  0.00  0.00     0.233 C 
HETATM   33  O   UNK N   1      20.365  12.837   6.556  0.00  0.00    -0.272 OA
HETATM   34  N   UNK N   1      21.961  11.341   6.909  0.00  0.00    -0.369 N 
HETATM   35  H   UNK N   1      22.485  10.695   6.383  0.00  0.00     0.159 HD
HETATM   36  H   UNK N   1      21.676  10.842   7.708  0.00  0.00     0.159 HD
ENDBRANCH  19  32
ENDBRANCH   1  19
TORSDOF 10
ENDMDL
MODEL 2
REMARK VINA RESULT:      -7.5     14.763     17.107
REMARK  10 active torsions:
REMARK  status: ('A' for Active; 'I' for Inactive)
REMARK    1  A    between atoms: C_2  and  C_4 
REMARK    2  A    between atoms: C_2  and  N_22 
REMARK    3  A    between atoms: C_4  and  C_5 
REMARK    4  A    between atoms: C_5  and  C_6 
REMARK    5  A    between atoms: C_6  and  C_7 
REMARK    6  A    between atoms: C_6  and  C_13 
REMARK    7  A    between atoms: C_6  and  C_19 
REMARK       I    between atoms: C_19  and  N_21 
REMARK    8  A    between atoms: C_24  and  O_26 
REMARK    9  A    between atoms: O_26  and  C_27 
REMARK   10  A    between atoms: C_31  and  O_33 
ROOT
HETATM    1  C   UNK N   1      28.269  24.566  -4.115  0.00  0.00     0.032 C 
ENDROOT
BRANCH   1   2
HETATM    2  C   UNK N   1      28.343  25.899  -4.883  0.00  0.00     0.043 C 
BRANCH   2   3
HETATM    3  C   UNK N   1      27.208  26.889  -4.585  0.00  0.00     0.153 C 
HETATM    4  C   UNK N   1      26.249  26.231  -3.588  0.00  0.00     0.049 C 
HETATM    5  C   UNK N   1      27.776  28.144  -3.931  0.00  0.00     0.049 C 
BRANCH   3   6
HETATM    6  N   UNK N   1      26.573  27.284  -5.871  0.00  0.00     0.102 N 
HETATM    7  C   UNK N   1      27.017  26.479  -7.004  0.00  0.00     0.307 A 
HETATM    8  C   UNK N   1      25.657  25.819  -7.178  0.00  0.00     0.185 A 
HETATM    9  C   UNK N   1      25.231  26.726  -6.041  0.00  0.00     0.307 A 
BRANCH   8  10
HETATM   10  O   UNK N   1      25.721  24.535  -6.685  0.00  0.00    -0.342 OA
BRANCH  10  11
HETATM   11  C   UNK N   1      25.734  23.433  -7.468  0.00  0.00     0.072 A 
HETATM   12  C   UNK N   1      25.311  22.181  -6.988  0.00  0.00     0.037 A 
HETATM   13  C   UNK N   1      25.290  21.076  -7.845  0.00  0.00     0.005 A 
HETATM   14  C   UNK N   1      25.667  21.224  -9.184  0.00  0.00     0.037 A 
HETATM   15  C   UNK N   1      26.081  22.470  -9.661  0.00  0.00     0.068 A 
HETATM   16  C   UNK N   1      26.126  23.567  -8.801  0.00  0.00     0.073 A 
BRANCH  15  17
HETATM   17  O   UNK N   1      26.420  22.619 -10.951  0.00  0.00    -0.361 OA
HETATM   18  H   UNK N   1      26.090  22.148 -11.690  0.00  0.00     0.217 HD
ENDBRANCH  15  17
ENDBRANCH  10  11
ENDBRANCH   8  10
ENDBRANCH   3   6
ENDBRANCH   2   3
ENDBRANCH   1   2
BRANCH   1  19
HETATM   19  C   UNK N   1      29.648  23.886  -3.902  0.00  0.00     0.095 C 
BRANCH  19  20
HETATM   20  C   UNK N   1      29.729  22.701  -4.880  0.00  0.00    -0.036 A 
HETATM   21  C   UNK N   1      30.544  21.578  -4.626  0.00  0.00     0.009 A 
HETATM   22  C   UNK N   1      30.585  20.505  -5.519  0.00  0.00     0.001 A 
HETATM   23  C   UNK N   1      29.820  20.536  -6.686  0.00  0.00     0.000 A 
HETATM   24  C   UNK N   1      29.017  21.644  -6.962  0.00  0.00     0.001 A 
HETATM   25  C   UNK N   1      28.973  22.718  -6.068  0.00  0.00     0.009 A 
ENDBRANCH  19  20
BRANCH  19  26
HETATM   26  C   UNK N   1      30.789  24.889  -4.166  0.00  0.00    -0.036 A 
HETATM   27  C   UNK N   1      30.817  26.153  -3.545  0.00  0.00     0.009 A 
HETATM   28  C   UNK N   1      31.839  27.065  -3.828  0.00  0.00     0.001 A 
HETATM   29  C   UNK N   1      32.846  26.729  -4.735  0.00  0.00     0.000 A 
HETATM   30  C   UNK N   1      32.836  25.481  -5.358  0.00  0.00     0.001 A 
HETATM   31  C   UNK N   1      31.816  24.569  -5.078  0.00  0.00     0.009 A 
ENDBRANCH  19  26
BRANCH  19  32
HETATM   32  C   UNK N   1      29.712  23.337  -2.467  0.00  0.00     0.233 C 
HETATM   33  O   UNK N   1      30.790  23.181  -1.921  0.00  0.00    -0.272 OA
HETATM   34  N   UNK N   1      28.587  22.980  -1.807  0.00  0.00    -0.369 N 
HETATM   35  H   UNK N   1      27.867  23.185  -1.169  0.00  0.00     0.159 HD
HETATM   36  H   UNK N   1      28.394  22.065  -2.117  0.00  0.00     0.159 HD
ENDBRANCH  19  32
ENDBRANCH   1  19
TORSDOF 10
ENDMDL
MODEL 3
REMARK VINA RESULT:      -7.4     10.537     14.496
REMARK  10 active torsions:
REMARK  status: ('A' for Active; 'I' for Inactive)
REMARK    1  A    between atoms: C_2  and  C_4 
REMARK    2  A    between atoms: C_2  and  N_22 
REMARK    3  A    between atoms: C_4  and  C_5 
REMARK    4  A    between atoms: C_5  and  C_6 
REMARK    5  A    between atoms: C_6  and  C_7 
REMARK    6  A    between atoms: C_6  and  C_13 
REMARK    7  A    between atoms: C_6  and  C_19 
REMARK       I    between atoms: C_19  and  N_21 
REMARK    8  A    between atoms: C_24  and  O_26 
REMARK    9  A    between atoms: O_26  and  C_27 
REMARK   10  A    between atoms: C_31  and  O_33 
ROOT
HETATM    1  C   UNK N   1      32.797  15.227   7.844  0.00  0.00     0.032 C 
ENDROOT
BRANCH   1   2
HETATM    2  C   UNK N   1      34.264  14.805   8.055  0.00  0.00     0.043 C 
BRANCH   2   3
HETATM    3  C   UNK N   1      34.545  14.053   9.364  0.00  0.00     0.153 C 
HETATM    4  C   UNK N   1      33.579  14.574  10.432  0.00  0.00     0.049 C 
HETATM    5  C   UNK N   1      34.276  12.565   9.173  0.00  0.00     0.049 C 
BRANCH   3   6
HETATM    6  N   UNK N   1      35.982  14.222   9.709  0.00  0.00     0.102 N 
HETATM    7  C   UNK N   1      36.193  14.925  10.971  0.00  0.00     0.307 A 
HETATM    8  C   UNK N   1      36.747  13.690  11.665  0.00  0.00     0.185 A 
HETATM    9  C   UNK N   1      36.570  13.027  10.314  0.00  0.00     0.307 A 
BRANCH   8  10
HETATM   10  O   UNK N   1      35.781  13.185  12.508  0.00  0.00    -0.342 OA
BRANCH  10  11
HETATM   11  C   UNK N   1      35.783  13.373  13.846  0.00  0.00     0.072 A 
HETATM   12  C   UNK N   1      34.945  12.633  14.698  0.00  0.00     0.037 A 
HETATM   13  C   UNK N   1      35.015  12.821  16.081  0.00  0.00     0.005 A 
HETATM   14  C   UNK N   1      35.934  13.728  16.618  0.00  0.00     0.037 A 
HETATM   15  C   UNK N   1      36.771  14.459  15.770  0.00  0.00     0.068 A 
HETATM   16  C   UNK N   1      36.685  14.291  14.388  0.00  0.00     0.073 A 
BRANCH  15  17
HETATM   17  O   UNK N   1      37.670  15.313  16.283  0.00  0.00    -0.361 OA
HETATM   18  H   UNK N   1      38.545  15.128  16.563  0.00  0.00     0.217 HD
ENDBRANCH  15  17
ENDBRANCH  10  11
ENDBRANCH   8  10
ENDBRANCH   3   6
ENDBRANCH   2   3
ENDBRANCH   1   2
BRANCH   1  19
HETATM   19  C   UNK N   1      32.633  16.658   7.265  0.00  0.00     0.095 C 
BRANCH  19  20
HETATM   20  C   UNK N   1      32.769  16.551   5.736  0.00  0.00    -0.036 A 
HETATM   21  C   UNK N   1      32.400  17.607   4.878  0.00  0.00     0.009 A 
HETATM   22  C   UNK N   1      32.552  17.494   3.494  0.00  0.00     0.001 A 
HETATM   23  C   UNK N   1      33.069  16.322   2.941  0.00  0.00     0.000 A 
HETATM   24  C   UNK N   1      33.429  15.260   3.772  0.00  0.00     0.001 A 
HETATM   25  C   UNK N   1      33.280  15.372   5.157  0.00  0.00     0.009 A 
ENDBRANCH  19  20
BRANCH  19  26
HETATM   26  C   UNK N   1      31.257  17.240   7.649  0.00  0.00    -0.036 A 
HETATM   27  C   UNK N   1      31.122  18.197   8.673  0.00  0.00     0.009 A 
HETATM   28  C   UNK N   1      29.862  18.684   9.034  0.00  0.00     0.001 A 
HETATM   29  C   UNK N   1      28.719  18.221   8.379  0.00  0.00     0.000 A 
HETATM   30  C   UNK N   1      28.833  17.275   7.360  0.00  0.00     0.001 A 
HETATM   31  C   UNK N   1      30.091  16.786   6.999  0.00  0.00     0.009 A 
ENDBRANCH  19  26
BRANCH  19  32
HETATM   32  C   UNK N   1      33.777  17.539   7.794  0.00  0.00     0.233 C 
HETATM   33  O   UNK N   1      34.529  18.096   7.013  0.00  0.00    -0.272 OA
HETATM   34  N   UNK N   1      33.993  17.677   9.121  0.00  0.00    -0.369 N 
HETATM   35  H   UNK N   1      33.880  18.179   9.960  0.00  0.00     0.159 HD
HETATM   36  H   UNK N   1      34.525  16.888   9.372  0.00  0.00     0.159 HD
ENDBRANCH  19  32
ENDBRANCH   1  19
TORSDOF 10
ENDMDL
MODEL 4
REMARK VINA RESULT:      -7.3      4.362      8.238
REMARK  10 active torsions:
REMARK  status: ('A' for Active; 'I' for Inactive)
REMARK    1  A    between atoms: C_2  and  C_4 
REMARK    2  A    between atoms: C_2  and  N_22 
REMARK    3  A    between atoms: C_4  and  C_5 
REMARK    4  A    between atoms: C_5  and  C_6 
REMARK    5  A    between atoms: C_6  and  C_7 
REMARK    6  A    between atoms: C_6  and  C_13 
REMARK    7  A    between atoms: C_6  and  C_19 
REMARK       I    between atoms: C_19  and  N_21 
REMARK    8  A    between atoms: C_24  and  O_26 
REMARK    9  A    between atoms: O_26  and  C_27 
REMARK   10  A    between atoms: C_31  and  O_33 
ROOT
HETATM    1  C   UNK N   1      27.280  16.346   6.928  0.00  0.00     0.032 C 
ENDROOT
BRANCH   1   2
HETATM    2  C   UNK N   1      26.237  16.504   5.805  0.00  0.00     0.043 C 
BRANCH   2   3
HETATM    3  C   UNK N   1      26.162  15.335   4.814  0.00  0.00     0.153 C 
HETATM    4  C   UNK N   1      26.865  15.758   3.520  0.00  0.00     0.049 C 
HETATM    5  C   UNK N   1      26.906  14.130   5.379  0.00  0.00     0.049 C 
BRANCH   3   6
HETATM    6  N   UNK N   1      24.735  14.955   4.634  0.00  0.00     0.102 N 
HETATM    7  C   UNK N   1      24.427  13.620   5.137  0.00  0.00     0.307 A 
HETATM    8  C   UNK N   1      23.562  14.153   6.270  0.00  0.00     0.185 A 
HETATM    9  C   UNK N   1      23.860  15.511   5.666  0.00  0.00     0.307 A 
BRANCH   8  10
HETATM   10  O   UNK N   1      24.268  14.057   7.448  0.00  0.00    -0.342 OA
BRANCH  10  11
HETATM   11  C   UNK N   1      23.813  13.403   8.541  0.00  0.00     0.072 A 
HETATM   12  C   UNK N   1      22.468  13.015   8.664  0.00  0.00     0.037 A 
HETATM   13  C   UNK N   1      22.049  12.294   9.786  0.00  0.00     0.005 A 
HETATM   14  C   UNK N   1      22.974  11.939  10.773  0.00  0.00     0.037 A 
HETATM   15  C   UNK N   1      24.313  12.320  10.646  0.00  0.00     0.068 A 
HETATM   16  C   UNK N   1      24.726  13.060   9.540  0.00  0.00     0.073 A 
BRANCH  15  17
HETATM   17  O   UNK N   1      25.207  11.960  11.581  0.00  0.00    -0.361 OA
HETATM   18  H   UNK N   1      25.221  11.174  12.090  0.00  0.00     0.217 HD
ENDBRANCH  15  17
ENDBRANCH  10  11
ENDBRANCH   8  10
ENDBRANCH   3   6
ENDBRANCH   2   3
ENDBRANCH   1   2
BRANCH   1  19
HETATM   19  C   UNK N   1      28.371  17.451   6.931  0.00  0.00     0.095 C 
BRANCH  19  20
HETATM   20  C   UNK N   1      29.569  16.914   6.129  0.00  0.00    -0.036 A 
HETATM   21  C   UNK N   1      30.243  17.705   5.176  0.00  0.00     0.009 A 
HETATM   22  C   UNK N   1      31.341  17.202   4.474  0.00  0.00     0.001 A 
HETATM   23  C   UNK N   1      31.782  15.898   4.706  0.00  0.00     0.000 A 
HETATM   24  C   UNK N   1      31.120  15.094   5.636  0.00  0.00     0.001 A 
HETATM   25  C   UNK N   1      30.022  15.597   6.340  0.00  0.00     0.009 A 
ENDBRANCH  19  20
BRANCH  19  26
HETATM   26  C   UNK N   1      27.827  18.747   6.294  0.00  0.00    -0.036 A 
HETATM   27  C   UNK N   1      27.728  18.895   4.897  0.00  0.00     0.009 A 
HETATM   28  C   UNK N   1      27.270  20.091   4.336  0.00  0.00     0.001 A 
HETATM   29  C   UNK N   1      26.905  21.156   5.161  0.00  0.00     0.000 A 
HETATM   30  C   UNK N   1      26.993  21.027   6.548  0.00  0.00     0.001 A 
HETATM   31  C   UNK N   1      27.453  19.834   7.110  0.00  0.00     0.009 A 
ENDBRANCH  19  26
BRANCH  19  32
HETATM   32  C   UNK N   1      28.825  17.692   8.380  0.00  0.00     0.233 C 
HETATM   33  O   UNK N   1      28.085  17.410   9.306  0.00  0.00    -0.272 OA
HETATM   34  N   UNK N   1      30.024  18.256   8.649  0.00  0.00    -0.369 N 
HETATM   35  H   UNK N   1      30.976  18.173   8.887  0.00  0.00     0.159 HD
HETATM   36  H   UNK N   1      29.870  19.225   8.567  0.00  0.00     0.159 HD
ENDBRANCH  19  32
ENDBRANCH   1  19
TORSDOF 10
ENDMDL
MODEL 5
REMARK VINA RESULT:      -7.3      4.125      6.793
REMARK  10 active torsions:
REMARK  status: ('A' for Active; 'I' for Inactive)
REMARK    1  A    between atoms: C_2  and  C_4 
REMARK    2  A    between atoms: C_2  and  N_22 
REMARK    3  A    between atoms: C_4  and  C_5 
REMARK    4  A    between atoms: C_5  and  C_6 
REMARK    5  A    between atoms: C_6  and  C_7 
REMARK    6  A    between atoms: C_6  and  C_13 
REMARK    7  A    between atoms: C_6  and  C_19 
REMARK       I    between atoms: C_19  and  N_21 
REMARK    8  A    between atoms: C_24  and  O_26 
REMARK    9  A    between atoms: O_26  and  C_27 
REMARK   10  A    between atoms: C_31  and  O_33 
ROOT
HETATM    1  C   UNK N   1      27.214  16.341   6.726  0.00  0.00     0.032 C 
ENDROOT
BRANCH   1   2
HETATM    2  C   UNK N   1      26.054  16.546   5.733  0.00  0.00     0.043 C 
BRANCH   2   3
HETATM    3  C   UNK N   1      25.634  15.294   4.952  0.00  0.00     0.153 C 
HETATM    4  C   UNK N   1      25.800  15.583   3.457  0.00  0.00     0.049 C 
HETATM    5  C   UNK N   1      26.552  14.130   5.310  0.00  0.00     0.049 C 
BRANCH   3   6
HETATM    6  N   UNK N   1      24.247  14.929   5.350  0.00  0.00     0.102 N 
HETATM    7  C   UNK N   1      23.537  16.012   6.021  0.00  0.00     0.307 A 
HETATM    8  C   UNK N   1      22.560  16.201   4.870  0.00  0.00     0.185 A 
HETATM    9  C   UNK N   1      23.290  15.028   4.247  0.00  0.00     0.307 A 
BRANCH   8  10
HETATM   10  O   UNK N   1      22.914  17.332   4.170  0.00  0.00    -0.342 OA
BRANCH  10  11
HETATM   11  C   UNK N   1      22.020  18.162   3.587  0.00  0.00     0.072 A 
HETATM   12  C   UNK N   1      20.727  17.731   3.243  0.00  0.00     0.037 A 
HETATM   13  C   UNK N   1      19.814  18.633   2.689  0.00  0.00     0.005 A 
HETATM   14  C   UNK N   1      20.181  19.969   2.500  0.00  0.00     0.037 A 
HETATM   15  C   UNK N   1      21.465  20.398   2.847  0.00  0.00     0.068 A 
HETATM   16  C   UNK N   1      22.384  19.493   3.377  0.00  0.00     0.073 A 
BRANCH  15  17
HETATM   17  O   UNK N   1      21.812  21.685   2.688  0.00  0.00    -0.361 OA
HETATM   18  H   UNK N   1      22.302  22.225   3.276  0.00  0.00     0.217 HD
ENDBRANCH  15  17
ENDBRANCH  10  11
ENDBRANCH   8  10
ENDBRANCH   3   6
ENDBRANCH   2   3
ENDBRANCH   1   2
BRANCH   1  19
HETATM   19  C   UNK N   1      28.288  17.461   6.678  0.00  0.00     0.095 C 
BRANCH  19  20
HETATM   20  C   UNK N   1      29.524  16.878   5.970  0.00  0.00    -0.036 A 
HETATM   21  C   UNK N   1      29.847  15.507   6.042  0.00  0.00     0.009 A 
HETATM   22  C   UNK N   1      30.962  14.997   5.373  0.00  0.00     0.001 A 
HETATM   23  C   UNK N   1      31.780  15.847   4.627  0.00  0.00     0.000 A 
HETATM   24  C   UNK N   1      31.484  17.210   4.553  0.00  0.00     0.001 A 
HETATM   25  C   UNK N   1      30.367  17.721   5.220  0.00  0.00     0.009 A 
ENDBRANCH  19  20
BRANCH  19  26
HETATM   26  C   UNK N   1      27.752  18.689   5.913  0.00  0.00    -0.036 A 
HETATM   27  C   UNK N   1      27.379  19.869   6.584  0.00  0.00     0.009 A 
HETATM   28  C   UNK N   1      26.857  20.958   5.879  0.00  0.00     0.001 A 
HETATM   29  C   UNK N   1      26.699  20.883   4.494  0.00  0.00     0.000 A 
HETATM   30  C   UNK N   1      27.066  19.722   3.810  0.00  0.00     0.001 A 
HETATM   31  C   UNK N   1      27.585  18.633   4.514  0.00  0.00     0.009 A 
ENDBRANCH  19  26
BRANCH  19  32
HETATM   32  C   UNK N   1      28.682  17.831   8.117  0.00  0.00     0.233 C 
HETATM   33  O   UNK N   1      29.790  18.282   8.350  0.00  0.00    -0.272 OA
HETATM   34  N   UNK N   1      27.830  17.624   9.147  0.00  0.00    -0.369 N 
HETATM   35  H   UNK N   1      27.148  17.956   9.774  0.00  0.00     0.159 HD
HETATM   36  H   UNK N   1      27.953  16.678   9.388  0.00  0.00     0.159 HD
ENDBRANCH  19  32
ENDBRANCH   1  19
TORSDOF 10
ENDMDL
MODEL 6
REMARK VINA RESULT:      -7.2      7.633     10.961
REMARK  10 active torsions:
REMARK  status: ('A' for Active; 'I' for Inactive)
REMARK    1  A    between atoms: C_2  and  C_4 
REMARK    2  A    between atoms: C_2  and  N_22 
REMARK    3  A    between atoms: C_4  and  C_5 
REMARK    4  A    between atoms: C_5  and  C_6 
REMARK    5  A    between atoms: C_6  and  C_7 
REMARK    6  A    between atoms: C_6  and  C_13 
REMARK    7  A    between atoms: C_6  and  C_19 
REMARK       I    between atoms: C_19  and  N_21 
REMARK    8  A    between atoms: C_24  and  O_26 
REMARK    9  A    between atoms: O_26  and  C_27 
REMARK   10  A    between atoms: C_31  and  O_33 
ROOT
HETATM    1  C   UNK N   1      30.259  17.330   4.587  0.00  0.00     0.032 C 
ENDROOT
BRANCH   1   2
HETATM    2  C   UNK N   1      31.303  16.313   5.089  0.00  0.00     0.043 C 
BRANCH   2   3
HETATM    3  C   UNK N   1      32.717  16.494   4.520  0.00  0.00     0.153 C 
HETATM    4  C   UNK N   1      32.592  16.900   3.048  0.00  0.00     0.049 C 
HETATM    5  C   UNK N   1      33.430  17.621   5.259  0.00  0.00     0.049 C 
BRANCH   3   6
HETATM    6  N   UNK N   1      33.482  15.238   4.742  0.00  0.00     0.102 N 
HETATM    7  C   UNK N   1      34.597  15.399   5.669  0.00  0.00     0.307 A 
HETATM    8  C   UNK N   1      33.945  14.532   6.737  0.00  0.00     0.185 A 
HETATM    9  C   UNK N   1      32.847  14.344   5.710  0.00  0.00     0.307 A 
BRANCH   8  10
HETATM   10  O   UNK N   1      33.453  15.348   7.731  0.00  0.00    -0.342 OA
BRANCH  10  11
HETATM   11  C   UNK N   1      34.054  15.513   8.930  0.00  0.00     0.072 A 
HETATM   12  C   UNK N   1      34.741  16.695   9.255  0.00  0.00     0.037 A 
HETATM   13  C   UNK N   1      35.305  16.847  10.525  0.00  0.00     0.005 A 
HETATM   14  C   UNK N   1      35.164  15.834  11.479  0.00  0.00     0.037 A 
HETATM   15  C   UNK N   1      34.475  14.661  11.156  0.00  0.00     0.068 A 
HETATM   16  C   UNK N   1      33.934  14.498   9.881  0.00  0.00     0.073 A 
BRANCH  15  17
HETATM   17  O   UNK N   1      34.318  13.697  12.076  0.00  0.00    -0.361 OA
HETATM   18  H   UNK N   1      34.766  13.604  12.893  0.00  0.00     0.217 HD
ENDBRANCH  15  17
ENDBRANCH  10  11
ENDBRANCH   8  10
ENDBRANCH   3   6
ENDBRANCH   2   3
ENDBRANCH   1   2
BRANCH   1  19
HETATM   19  C   UNK N   1      28.882  17.218   5.295  0.00  0.00     0.095 C 
BRANCH  19  20
HETATM   20  C   UNK N   1      29.097  17.590   6.773  0.00  0.00    -0.036 A 
HETATM   21  C   UNK N   1      28.090  18.212   7.539  0.00  0.00     0.009 A 
HETATM   22  C   UNK N   1      28.300  18.522   8.885  0.00  0.00     0.001 A 
HETATM   23  C   UNK N   1      29.523  18.222   9.488  0.00  0.00     0.000 A 
HETATM   24  C   UNK N   1      30.537  17.617   8.743  0.00  0.00     0.001 A 
HETATM   25  C   UNK N   1      30.327  17.305   7.397  0.00  0.00     0.009 A 
ENDBRANCH  19  20
BRANCH  19  26
HETATM   26  C   UNK N   1      27.860  18.168   4.638  0.00  0.00    -0.036 A 
HETATM   27  C   UNK N   1      28.111  19.548   4.514  0.00  0.00     0.009 A 
HETATM   28  C   UNK N   1      27.156  20.400   3.952  0.00  0.00     0.001 A 
HETATM   29  C   UNK N   1      25.937  19.888   3.506  0.00  0.00     0.000 A 
HETATM   30  C   UNK N   1      25.670  18.522   3.618  0.00  0.00     0.001 A 
HETATM   31  C   UNK N   1      26.622  17.669   4.181  0.00  0.00     0.009 A 
ENDBRANCH  19  26
BRANCH  19  32
HETATM   32  C   UNK N   1      28.408  15.757   5.226  0.00  0.00     0.233 C 
HETATM   33  O   UNK N   1      27.806  15.265   6.165  0.00  0.00    -0.272 OA
HETATM   34  N   UNK N   1      28.684  14.985   4.150  0.00  0.00    -0.369 N 
HETATM   35  H   UNK N   1      28.422  14.593   3.287  0.00  0.00     0.159 HD
HETATM   36  H   UNK N   1      29.597  14.651   4.310  0.00  0.00     0.159 HD
ENDBRANCH  19  32
ENDBRANCH   1  19
TORSDOF 10
ENDMDL
MODEL 7
REMARK VINA RESULT:      -7.2      6.681      9.754
REMARK  10 active torsions:
REMARK  status: ('A' for Active; 'I' for Inactive)
REMARK    1  A    between atoms: C_2  and  C_4 
REMARK    2  A    between atoms: C_2  and  N_22 
REMARK    3  A    between atoms: C_4  and  C_5 
REMARK    4  A    between atoms: C_5  and  C_6 
REMARK    5  A    between atoms: C_6  and  C_7 
REMARK    6  A    between atoms: C_6  and  C_13 
REMARK    7  A    between atoms: C_6  and  C_19 
REMARK       I    between atoms: C_19  and  N_21 
REMARK    8  A    between atoms: C_24  and  O_26 
REMARK    9  A    between atoms: O_26  and  C_27 
REMARK   10  A    between atoms: C_31  and  O_33 
ROOT
HETATM    1  C   UNK N   1      29.334  17.022   5.065  0.00  0.00     0.032 C 
ENDROOT
BRANCH   1   2
HETATM    2  C   UNK N   1      29.390  15.510   4.773  0.00  0.00     0.043 C 
BRANCH   2   3
HETATM    3  C   UNK N   1      30.025  15.127   3.429  0.00  0.00     0.153 C 
HETATM    4  C   UNK N   1      28.939  14.504   2.546  0.00  0.00     0.049 C 
HETATM    5  C   UNK N   1      30.540  16.379   2.727  0.00  0.00     0.049 C 
BRANCH   3   6
HETATM    6  N   UNK N   1      31.185  14.233   3.689  0.00  0.00     0.102 N 
HETATM    7  C   UNK N   1      32.473  14.907   3.559  0.00  0.00     0.307 A 
HETATM    8  C   UNK N   1      32.773  14.805   5.047  0.00  0.00     0.185 A 
HETATM    9  C   UNK N   1      31.460  14.052   5.115  0.00  0.00     0.307 A 
BRANCH   8  10
HETATM   10  O   UNK N   1      32.577  16.040   5.624  0.00  0.00    -0.342 OA
BRANCH  10  11
HETATM   11  C   UNK N   1      33.073  16.389   6.832  0.00  0.00     0.072 A 
HETATM   12  C   UNK N   1      32.980  15.534   7.944  0.00  0.00     0.037 A 
HETATM   13  C   UNK N   1      33.552  15.910   9.163  0.00  0.00     0.005 A 
HETATM   14  C   UNK N   1      34.238  17.125   9.268  0.00  0.00     0.037 A 
HETATM   15  C   UNK N   1      34.335  17.970   8.159  0.00  0.00     0.068 A 
HETATM   16  C   UNK N   1      33.743  17.608   6.950  0.00  0.00     0.073 A 
BRANCH  15  17
HETATM   17  O   UNK N   1      35.012  19.126   8.251  0.00  0.00    -0.361 OA
HETATM   18  H   UNK N   1      34.989  19.854   7.662  0.00  0.00     0.217 HD
ENDBRANCH  15  17
ENDBRANCH  10  11
ENDBRANCH   8  10
ENDBRANCH   3   6
ENDBRANCH   2   3
ENDBRANCH   1   2
BRANCH   1  19
HETATM   19  C   UNK N   1      28.149  17.442   5.977  0.00  0.00     0.095 C 
BRANCH  19  20
HETATM   20  C   UNK N   1      28.704  17.601   7.403  0.00  0.00    -0.036 A 
HETATM   21  C   UNK N   1      27.938  17.278   8.542  0.00  0.00     0.009 A 
HETATM   22  C   UNK N   1      28.471  17.412   9.827  0.00  0.00     0.001 A 
HETATM   23  C   UNK N   1      29.776  17.876   9.997  0.00  0.00     0.000 A 
HETATM   24  C   UNK N   1      30.547  18.213   8.883  0.00  0.00     0.001 A 
HETATM   25  C   UNK N   1      30.015  18.078   7.597  0.00  0.00     0.009 A 
ENDBRANCH  19  20
BRANCH  19  26
HETATM   26  C   UNK N   1      27.532  18.766   5.482  0.00  0.00    -0.036 A 
HETATM   27  C   UNK N   1      27.176  19.793   6.378  0.00  0.00     0.009 A 
HETATM   28  C   UNK N   1      26.582  20.970   5.915  0.00  0.00     0.001 A 
HETATM   29  C   UNK N   1      26.333  21.140   4.552  0.00  0.00     0.000 A 
HETATM   30  C   UNK N   1      26.682  20.135   3.648  0.00  0.00     0.001 A 
HETATM   31  C   UNK N   1      27.274  18.957   4.109  0.00  0.00     0.009 A 
ENDBRANCH  19  26
BRANCH  19  32
HETATM   32  C   UNK N   1      27.107  16.312   5.984  0.00  0.00     0.233 C 
HETATM   33  O   UNK N   1      27.465  15.152   6.106  0.00  0.00    -0.272 OA
HETATM   34  N   UNK N   1      25.792  16.576   5.815  0.00  0.00    -0.369 N 
HETATM   35  H   UNK N   1      24.895  16.735   6.188  0.00  0.00     0.159 HD
HETATM   36  H   UNK N   1      25.672  16.639   4.840  0.00  0.00     0.159 HD
ENDBRANCH  19  32
ENDBRANCH   1  19
TORSDOF 10
ENDMDL
MODEL 8
REMARK VINA RESULT:      -7.2     14.947     17.825
REMARK  10 active torsions:
REMARK  status: ('A' for Active; 'I' for Inactive)
REMARK    1  A    between atoms: C_2  and  C_4 
REMARK    2  A    between atoms: C_2  and  N_22 
REMARK    3  A    between atoms: C_4  and  C_5 
REMARK    4  A    between atoms: C_5  and  C_6 
REMARK    5  A    between atoms: C_6  and  C_7 
REMARK    6  A    between atoms: C_6  and  C_13 
REMARK    7  A    between atoms: C_6  and  C_19 
REMARK       I    between atoms: C_19  and  N_21 
REMARK    8  A    between atoms: C_24  and  O_26 
REMARK    9  A    between atoms: O_26  and  C_27 
REMARK   10  A    between atoms: C_31  and  O_33 
ROOT
HETATM    1  C   UNK N   1      26.266  26.057  -7.136  0.00  0.00     0.032 C 
ENDROOT
BRANCH   1   2
HETATM    2  C   UNK N   1      27.127  24.787  -7.281  0.00  0.00     0.043 C 
BRANCH   2   3
HETATM    3  C   UNK N   1      26.392  23.560  -7.837  0.00  0.00     0.153 C 
HETATM    4  C   UNK N   1      25.817  22.772  -6.656  0.00  0.00     0.049 C 
HETATM    5  C   UNK N   1      25.228  24.008  -8.713  0.00  0.00     0.049 C 
BRANCH   3   6
HETATM    6  N   UNK N   1      27.337  22.783  -8.683  0.00  0.00     0.102 N 
HETATM    7  C   UNK N   1      28.738  23.072  -8.396  0.00  0.00     0.307 A 
HETATM    8  C   UNK N   1      28.993  21.687  -7.818  0.00  0.00     0.185 A 
HETATM    9  C   UNK N   1      27.552  21.419  -8.199  0.00  0.00     0.307 A 
BRANCH   8  10
HETATM   10  O   UNK N   1      29.052  21.784  -6.446  0.00  0.00    -0.342 OA
BRANCH  10  11
HETATM   11  C   UNK N   1      30.087  21.327  -5.707  0.00  0.00     0.072 A 
HETATM   12  C   UNK N   1      31.039  20.439  -6.238  0.00  0.00     0.037 A 
HETATM   13  C   UNK N   1      32.124  20.031  -5.457  0.00  0.00     0.005 A 
HETATM   14  C   UNK N   1      32.275  20.524  -4.157  0.00  0.00     0.037 A 
HETATM   15  C   UNK N   1      31.331  21.412  -3.633  0.00  0.00     0.068 A 
HETATM   16  C   UNK N   1      30.235  21.800  -4.402  0.00  0.00     0.073 A 
BRANCH  15  17
HETATM   17  O   UNK N   1      31.486  21.905  -2.394  0.00  0.00    -0.361 OA
HETATM   18  H   UNK N   1      31.122  22.692  -2.039  0.00  0.00     0.217 HD
ENDBRANCH  15  17
ENDBRANCH  10  11
ENDBRANCH   8  10
ENDBRANCH   3   6
ENDBRANCH   2   3
ENDBRANCH   1   2
BRANCH   1  19
HETATM   19  C   UNK N   1      26.614  26.912  -5.888  0.00  0.00     0.095 C 
BRANCH  19  20
HETATM   20  C   UNK N   1      27.311  25.984  -4.878  0.00  0.00    -0.036 A 
HETATM   21  C   UNK N   1      28.710  25.989  -4.703  0.00  0.00     0.009 A 
HETATM   22  C   UNK N   1      29.319  25.152  -3.765  0.00  0.00     0.001 A 
HETATM   23  C   UNK N   1      28.543  24.290  -2.989  0.00  0.00     0.000 A 
HETATM   24  C   UNK N   1      27.157  24.261  -3.155  0.00  0.00     0.001 A 
HETATM   25  C   UNK N   1      26.546  25.100  -4.092  0.00  0.00     0.009 A 
ENDBRANCH  19  20
BRANCH  19  26
HETATM   26  C   UNK N   1      27.539  28.083  -6.279  0.00  0.00    -0.036 A 
HETATM   27  C   UNK N   1      27.712  29.199  -5.436  0.00  0.00     0.009 A 
HETATM   28  C   UNK N   1      28.523  30.269  -5.825  0.00  0.00     0.001 A 
HETATM   29  C   UNK N   1      29.173  30.241  -7.060  0.00  0.00     0.000 A 
HETATM   30  C   UNK N   1      29.017  29.143  -7.908  0.00  0.00     0.001 A 
HETATM   31  C   UNK N   1      28.205  28.074  -7.522  0.00  0.00     0.009 A 
ENDBRANCH  19  26
BRANCH  19  32
HETATM   32  C   UNK N   1      25.308  27.422  -5.258  0.00  0.00     0.233 C 
HETATM   33  O   UNK N   1      24.246  27.251  -5.833  0.00  0.00    -0.272 OA
HETATM   34  N   UNK N   1      25.316  28.101  -4.089  0.00  0.00    -0.369 N 
HETATM   35  H   UNK N   1      25.216  28.122  -3.110  0.00  0.00     0.159 HD
HETATM   36  H   UNK N   1      25.523  29.030  -4.340  0.00  0.00     0.159 HD
ENDBRANCH  19  32
ENDBRANCH   1  19
TORSDOF 10
ENDMDL
MODEL 9
REMARK VINA RESULT:      -7.2     15.349     18.009
REMARK  10 active torsions:
REMARK  status: ('A' for Active; 'I' for Inactive)
REMARK    1  A    between atoms: C_2  and  C_4 
REMARK    2  A    between atoms: C_2  and  N_22 
REMARK    3  A    between atoms: C_4  and  C_5 
REMARK    4  A    between atoms: C_5  and  C_6 
REMARK    5  A    between atoms: C_6  and  C_7 
REMARK    6  A    between atoms: C_6  and  C_13 
REMARK    7  A    between atoms: C_6  and  C_19 
REMARK       I    between atoms: C_19  and  N_21 
REMARK    8  A    between atoms: C_24  and  O_26 
REMARK    9  A    between atoms: O_26  and  C_27 
REMARK   10  A    between atoms: C_31  and  O_33 
ROOT
HETATM    1  C   UNK N   1      26.274  23.683  -6.337  0.00  0.00     0.032 C 
ENDROOT
BRANCH   1   2
HETATM    2  C   UNK N   1      26.846  25.103  -6.510  0.00  0.00     0.043 C 
BRANCH   2   3
HETATM    3  C   UNK N   1      26.464  26.099  -5.406  0.00  0.00     0.153 C 
HETATM    4  C   UNK N   1      25.198  26.840  -5.847  0.00  0.00     0.049 C 
HETATM    5  C   UNK N   1      26.144  25.347  -4.119  0.00  0.00     0.049 C 
BRANCH   3   6
HETATM    6  N   UNK N   1      27.628  26.988  -5.145  0.00  0.00     0.102 N 
HETATM    7  C   UNK N   1      28.200  26.812  -3.814  0.00  0.00     0.307 A 
HETATM    8  C   UNK N   1      29.490  26.212  -4.354  0.00  0.00     0.185 A 
HETATM    9  C   UNK N   1      28.877  26.479  -5.713  0.00  0.00     0.307 A 
BRANCH   8  10
HETATM   10  O   UNK N   1      29.467  24.851  -4.145  0.00  0.00    -0.342 OA
BRANCH  10  11
HETATM   11  C   UNK N   1      30.568  24.068  -4.189  0.00  0.00     0.072 A 
HETATM   12  C   UNK N   1      31.562  24.246  -5.167  0.00  0.00     0.037 A 
HETATM   13  C   UNK N   1      32.711  23.449  -5.147  0.00  0.00     0.005 A 
HETATM   14  C   UNK N   1      32.881  22.494  -4.140  0.00  0.00     0.037 A 
HETATM   15  C   UNK N   1      31.895  22.322  -3.165  0.00  0.00     0.068 A 
HETATM   16  C   UNK N   1      30.737  23.099  -3.199  0.00  0.00     0.073 A 
BRANCH  15  17
HETATM   17  O   UNK N   1      32.066  21.422  -2.184  0.00  0.00    -0.361 OA
HETATM   18  H   UNK N   1      32.842  21.254  -1.687  0.00  0.00     0.217 HD
ENDBRANCH  15  17
ENDBRANCH  10  11
ENDBRANCH   8  10
ENDBRANCH   3   6
ENDBRANCH   2   3
ENDBRANCH   1   2
BRANCH   1  19
HETATM   19  C   UNK N   1      26.405  22.795  -7.605  0.00  0.00     0.095 C 
BRANCH  19  20
HETATM   20  C   UNK N   1      26.574  23.739  -8.808  0.00  0.00    -0.036 A 
HETATM   21  C   UNK N   1      25.564  24.646  -9.192  0.00  0.00     0.009 A 
HETATM   22  C   UNK N   1      25.749  25.508 -10.276  0.00  0.00     0.001 A 
HETATM   23  C   UNK N   1      26.942  25.476 -11.000  0.00  0.00     0.000 A 
HETATM   24  C   UNK N   1      27.949  24.578 -10.643  0.00  0.00     0.001 A 
HETATM   25  C   UNK N   1      27.766  23.716  -9.557  0.00  0.00     0.009 A 
ENDBRANCH  19  20
BRANCH  19  26
HETATM   26  C   UNK N   1      27.619  21.852  -7.478  0.00  0.00    -0.036 A 
HETATM   27  C   UNK N   1      27.698  20.652  -8.211  0.00  0.00     0.009 A 
HETATM   28  C   UNK N   1      28.788  19.790  -8.053  0.00  0.00     0.001 A 
HETATM   29  C   UNK N   1      29.813  20.114  -7.162  0.00  0.00     0.000 A 
HETATM   30  C   UNK N   1      29.754  21.300  -6.430  0.00  0.00     0.001 A 
HETATM   31  C   UNK N   1      28.665  22.162  -6.584  0.00  0.00     0.009 A 
ENDBRANCH  19  26
BRANCH  19  32
HETATM   32  C   UNK N   1      25.101  22.002  -7.789  0.00  0.00     0.233 C 
HETATM   33  O   UNK N   1      24.716  21.712  -8.908  0.00  0.00    -0.272 OA
HETATM   34  N   UNK N   1      24.343  21.652  -6.726  0.00  0.00    -0.369 N 
HETATM   35  H   UNK N   1      24.068  20.992  -6.049  0.00  0.00     0.159 HD
HETATM   36  H   UNK N   1      23.796  22.449  -6.534  0.00  0.00     0.159 HD
ENDBRANCH  19  32
ENDBRANCH   1  19
TORSDOF 10
ENDMDL
