MODEL 1
REMARK VINA RESULT:      -7.6      0.000      0.000
REMARK  4 active torsions:
REMARK  status: ('A' for Active; 'I' for Inactive)
REMARK       I    between atoms: C_2  and  N_4 
REMARK    1  A    between atoms: N_4  and  C_6 
REMARK    2  A    between atoms: C_10  and  C_12 
REMARK    3  A    between atoms: C_22  and  C_23 
REMARK    4  A    between atoms: C_23  and  C_25 
ROOT
HETATM    1  C   UNK N   1      30.540  17.527   8.319  0.00  0.00     0.070 A 
HETATM    2  C   UNK N   1      29.759  17.783   9.458  0.00  0.00     0.049 A 
HETATM    3  C   UNK N   1      28.357  17.902   9.309  0.00  0.00     0.092 A 
HETATM    4  N   UNK N   1      27.769  17.752   8.082  0.00  0.00    -0.350 N 
ATOM      5  HN  UNK N   1      26.756  17.824   7.977  1.00  0.00     0.166 HD
HETATM    6  C   UNK N   1      28.559  17.506   7.007  0.00  0.00     0.143 A 
HETATM    7  N   UNK N   1      29.882  17.410   7.127  0.00  0.00    -0.239 N 
HETATM    8  N   UNK N   1      30.413  17.161   5.939  0.00  0.00    -0.302 N 
ATOM      9  HN  UNK N   1      31.407  17.046   5.743  1.00  0.00     0.186 HD
HETATM   10  C   UNK N   1      29.421  17.084   5.034  0.00  0.00     0.127 A 
HETATM   11  C   UNK N   1      28.214  17.294   5.685  0.00  0.00     0.078 A 
ENDROOT
BRANCH   1  12
HETATM   12  C   UNK N   1      32.018  17.341   8.390  0.00  0.00    -0.005 A 
HETATM   13  C   UNK N   1      32.948  18.364   8.154  0.00  0.00     0.014 A 
HETATM   14  C   UNK N   1      34.323  18.094   8.290  0.00  0.00     0.003 A 
HETATM   15  C   UNK N   1      34.767  16.808   8.658  0.00  0.00     0.030 A 
HETATM   16  C   UNK N   1      33.832  15.783   8.895  0.00  0.00     0.037 A 
HETATM   17  C   UNK N   1      32.493  16.092   8.755  0.00  0.00     0.043 A 
BRANCH  16  18
HETATM   18  N   UNK N   1      34.180  14.438   9.283  0.00  0.00    -0.323 N 
HETATM   19  C   UNK N   1      34.375  14.048  10.580  0.00  0.00     0.220 C 
HETATM   20  C   UNK N   1      34.741  12.629  10.904  0.00  0.00     0.117 C 
HETATM   21  O   UNK N   1      34.273  14.845  11.499  0.00  0.00    -0.274 OA
HETATM   22  C   UNK N   1      34.348  13.446   8.235  0.00  0.00     0.159 C 
ENDBRANCH  16  18
ENDBRANCH   1  12
BRANCH  11  23
HETATM   23  C   UNK N   1      26.879  17.263   5.050  0.00  0.00     0.204 C 
HETATM   24  O   UNK N   1      26.213  16.243   5.115  0.00  0.00    -0.286 OA
BRANCH  23  25
HETATM   25  C   UNK N   1      26.333  18.444   4.326  0.00  0.00     0.056 A 
HETATM   26  C   UNK N   1      27.075  19.545   3.899  0.00  0.00     0.023 A 
HETATM   27  C   UNK N   1      26.287  20.524   3.227  0.00  0.00     0.009 A 
HETATM   28  C   UNK N   1      24.927  20.199   3.125  0.00  0.00     0.050 A 
HETATM   29  S   UNK N   1      24.761  18.727   3.864  0.00  0.00    -0.098 SA
ENDBRANCH  23  25
ENDBRANCH  11  23
TORSDOF 4
ENDMDL
MODEL 2
REMARK VINA RESULT:      -7.5      2.952      8.758
REMARK  4 active torsions:
REMARK  status: ('A' for Active; 'I' for Inactive)
REMARK       I    between atoms: C_2  and  N_4 
REMARK    1  A    between atoms: N_4  and  C_6 
REMARK    2  A    between atoms: C_10  and  C_12 
REMARK    3  A    between atoms: C_22  and  C_23 
REMARK    4  A    between atoms: C_23  and  C_25 
ROOT
HETATM    1  C   UNK N   1      28.943  17.522   7.468  0.00  0.00     0.070 A 
HETATM    2  C   UNK N   1      28.498  18.101   8.669  0.00  0.00     0.049 A 
HETATM    3  C   UNK N   1      29.455  18.465   9.644  0.00  0.00     0.092 A 
HETATM    4  N   UNK N   1      30.792  18.275   9.417  0.00  0.00    -0.350 N 
ATOM      5  HN  UNK N   1      31.483  18.550  10.116  1.00  0.00     0.166 HD
HETATM    6  C   UNK N   1      31.179  17.713   8.245  0.00  0.00     0.143 A 
HETATM    7  N   UNK N   1      30.290  17.346   7.325  0.00  0.00    -0.239 N 
HETATM    8  N   UNK N   1      30.925  16.835   6.281  0.00  0.00    -0.302 N 
ATOM      9  HN  UNK N   1      30.485  16.471   5.436  1.00  0.00     0.186 HD
HETATM   10  C   UNK N   1      32.248  16.876   6.521  0.00  0.00     0.127 A 
HETATM   11  C   UNK N   1      32.450  17.441   7.772  0.00  0.00     0.078 A 
ENDROOT
BRANCH   1  12
HETATM   12  C   UNK N   1      28.008  17.150   6.368  0.00  0.00    -0.005 A 
HETATM   13  C   UNK N   1      27.670  15.829   6.039  0.00  0.00     0.014 A 
HETATM   14  C   UNK N   1      26.742  15.588   5.009  0.00  0.00     0.003 A 
HETATM   15  C   UNK N   1      26.156  16.660   4.307  0.00  0.00     0.030 A 
HETATM   16  C   UNK N   1      26.496  17.985   4.638  0.00  0.00     0.037 A 
HETATM   17  C   UNK N   1      27.407  18.178   5.659  0.00  0.00     0.043 A 
BRANCH  16  18
HETATM   18  N   UNK N   1      25.950  19.152   3.989  0.00  0.00    -0.323 N 
HETATM   19  C   UNK N   1      24.615  19.333   3.749  0.00  0.00     0.220 C 
HETATM   20  C   UNK N   1      24.123  20.573   3.063  0.00  0.00     0.117 C 
HETATM   21  O   UNK N   1      23.798  18.485   4.071  0.00  0.00    -0.274 OA
HETATM   22  C   UNK N   1      26.872  20.186   3.551  0.00  0.00     0.159 C 
ENDBRANCH  16  18
ENDBRANCH   1  12
BRANCH  11  23
HETATM   23  C   UNK N   1      33.766  17.691   8.399  0.00  0.00     0.204 C 
HETATM   24  O   UNK N   1      34.422  18.656   8.041  0.00  0.00    -0.286 OA
BRANCH  23  25
HETATM   25  C   UNK N   1      34.313  16.788   9.449  0.00  0.00     0.056 A 
HETATM   26  C   UNK N   1      35.313  17.123  10.362  0.00  0.00     0.023 A 
HETATM   27  C   UNK N   1      35.633  16.059  11.255  0.00  0.00     0.009 A 
HETATM   28  C   UNK N   1      34.892  14.888  11.047  0.00  0.00     0.050 A 
HETATM   29  S   UNK N   1      33.880  15.217   9.778  0.00  0.00    -0.098 SA
ENDBRANCH  23  25
ENDBRANCH  11  23
TORSDOF 4
ENDMDL
MODEL 3
REMARK VINA RESULT:      -7.5      3.676      6.119
REMARK  4 active torsions:
REMARK  status: ('A' for Active; 'I' for Inactive)
REMARK       I    between atoms: C_2  and  N_4 
REMARK    1  A    between atoms: N_4  and  C_6 
REMARK    2  A    between atoms: C_10  and  C_12 
REMARK    3  A    between atoms: C_22  and  C_23 
REMARK    4  A    between atoms: C_23  and  C_25 
ROOT
HETATM    1  C   UNK N   1      35.123  15.213  10.633  0.00  0.00     0.070 A 
HETATM    2  C   UNK N   1      35.711  16.486  10.717  0.00  0.00     0.049 A 
HETATM    3  C   UNK N   1      35.157  17.542   9.955  0.00  0.00     0.092 A 
HETATM    4  N   UNK N   1      34.059  17.333   9.164  0.00  0.00    -0.350 N 
ATOM      5  HN  UNK N   1      33.652  18.098   8.625  1.00  0.00     0.166 HD
HETATM    6  C   UNK N   1      33.523  16.088   9.111  0.00  0.00     0.143 A 
HETATM    7  N   UNK N   1      34.044  15.079   9.807  0.00  0.00    -0.239 N 
HETATM    8  N   UNK N   1      33.334  13.982   9.586  0.00  0.00    -0.302 N 
ATOM      9  HN  UNK N   1      33.516  13.064   9.989  1.00  0.00     0.186 HD
HETATM   10  C   UNK N   1      32.332  14.283   8.740  0.00  0.00     0.127 A 
HETATM   11  C   UNK N   1      32.417  15.630   8.419  0.00  0.00     0.078 A 
ENDROOT
BRANCH   1  12
HETATM   12  C   UNK N   1      35.612  14.054  11.434  0.00  0.00    -0.005 A 
HETATM   13  C   UNK N   1      36.132  12.878  10.875  0.00  0.00     0.014 A 
HETATM   14  C   UNK N   1      36.608  11.860  11.723  0.00  0.00     0.003 A 
HETATM   15  C   UNK N   1      36.563  12.015  13.123  0.00  0.00     0.030 A 
HETATM   16  C   UNK N   1      36.042  13.197  13.683  0.00  0.00     0.037 A 
HETATM   17  C   UNK N   1      35.591  14.172  12.815  0.00  0.00     0.043 A 
BRANCH  16  18
HETATM   18  N   UNK N   1      35.958  13.459  15.099  0.00  0.00    -0.323 N 
HETATM   19  C   UNK N   1      34.927  13.032  15.890  0.00  0.00     0.220 C 
HETATM   20  C   UNK N   1      34.908  13.350  17.357  0.00  0.00     0.117 C 
HETATM   21  O   UNK N   1      33.994  12.400  15.422  0.00  0.00    -0.274 OA
HETATM   22  C   UNK N   1      37.021  14.234  15.715  0.00  0.00     0.159 C 
ENDBRANCH  16  18
ENDBRANCH   1  12
BRANCH  11  23
HETATM   23  C   UNK N   1      31.483  16.363   7.537  0.00  0.00     0.204 C 
HETATM   24  O   UNK N   1      31.638  16.305   6.328  0.00  0.00    -0.286 OA
BRANCH  23  25
HETATM   25  C   UNK N   1      30.366  17.177   8.090  0.00  0.00     0.056 A 
HETATM   26  C   UNK N   1      30.456  18.038   9.183  0.00  0.00     0.023 A 
HETATM   27  C   UNK N   1      29.225  18.691   9.484  0.00  0.00     0.009 A 
HETATM   28  C   UNK N   1      28.166  18.345   8.633  0.00  0.00     0.050 A 
HETATM   29  S   UNK N   1      28.794  17.257   7.555  0.00  0.00    -0.098 SA
ENDBRANCH  23  25
ENDBRANCH  11  23
TORSDOF 4
ENDMDL
MODEL 4
REMARK VINA RESULT:      -7.5      2.723      4.411
REMARK  4 active torsions:
REMARK  status: ('A' for Active; 'I' for Inactive)
REMARK       I    between atoms: C_2  and  N_4 
REMARK    1  A    between atoms: N_4  and  C_6 
REMARK    2  A    between atoms: C_10  and  C_12 
REMARK    3  A    between atoms: C_22  and  C_23 
REMARK    4  A    between atoms: C_23  and  C_25 
ROOT
HETATM    1  C   UNK N   1      27.909  17.569   5.602  0.00  0.00     0.070 A 
HETATM    2  C   UNK N   1      27.724  16.353   4.924  0.00  0.00     0.049 A 
HETATM    3  C   UNK N   1      26.762  16.290   3.889  0.00  0.00     0.092 A 
HETATM    4  N   UNK N   1      26.036  17.398   3.541  0.00  0.00    -0.350 N 
ATOM      5  HN  UNK N   1      25.352  17.355   2.785  1.00  0.00     0.166 HD
HETATM    6  C   UNK N   1      26.245  18.552   4.222  0.00  0.00     0.143 A 
HETATM    7  N   UNK N   1      27.133  18.623   5.211  0.00  0.00    -0.239 N 
HETATM    8  N   UNK N   1      27.147  19.854   5.700  0.00  0.00    -0.302 N 
ATOM      9  HN  UNK N   1      27.731  20.183   6.468  1.00  0.00     0.186 HD
HETATM   10  C   UNK N   1      26.261  20.598   5.014  0.00  0.00     0.127 A 
HETATM   11  C   UNK N   1      25.667  19.797   4.050  0.00  0.00     0.078 A 
ENDROOT
BRANCH   1  12
HETATM   12  C   UNK N   1      28.932  17.738   6.674  0.00  0.00    -0.005 A 
HETATM   13  C   UNK N   1      28.741  18.519   7.823  0.00  0.00     0.014 A 
HETATM   14  C   UNK N   1      29.756  18.576   8.797  0.00  0.00     0.003 A 
HETATM   15  C   UNK N   1      30.956  17.858   8.624  0.00  0.00     0.030 A 
HETATM   16  C   UNK N   1      31.146  17.074   7.470  0.00  0.00     0.037 A 
HETATM   17  C   UNK N   1      30.123  17.042   6.542  0.00  0.00     0.043 A 
BRANCH  16  18
HETATM   18  N   UNK N   1      32.330  16.297   7.200  0.00  0.00    -0.323 N 
HETATM   19  C   UNK N   1      33.461  16.811   6.626  0.00  0.00     0.220 C 
HETATM   20  C   UNK N   1      34.653  15.936   6.370  0.00  0.00     0.117 C 
HETATM   21  O   UNK N   1      33.521  17.984   6.294  0.00  0.00    -0.274 OA
HETATM   22  C   UNK N   1      32.314  14.885   7.541  0.00  0.00     0.159 C 
ENDBRANCH  16  18
ENDBRANCH   1  12
BRANCH  11  23
HETATM   23  C   UNK N   1      24.656  20.242   3.068  0.00  0.00     0.204 C 
HETATM   24  O   UNK N   1      25.013  20.896   2.101  0.00  0.00    -0.286 OA
BRANCH  23  25
HETATM   25  C   UNK N   1      23.212  19.920   3.234  0.00  0.00     0.056 A 
HETATM   26  C   UNK N   1      22.155  20.611   2.640  0.00  0.00     0.023 A 
HETATM   27  C   UNK N   1      20.878  20.075   2.976  0.00  0.00     0.009 A 
HETATM   28  C   UNK N   1      20.924  18.967   3.834  0.00  0.00     0.050 A 
HETATM   29  S   UNK N   1      22.530  18.701   4.136  0.00  0.00    -0.098 SA
ENDBRANCH  23  25
ENDBRANCH  11  23
TORSDOF 4
ENDMDL
MODEL 5
REMARK VINA RESULT:      -7.4      6.912     10.955
REMARK  4 active torsions:
REMARK  status: ('A' for Active; 'I' for Inactive)
REMARK       I    between atoms: C_2  and  N_4 
REMARK    1  A    between atoms: N_4  and  C_6 
REMARK    2  A    between atoms: C_10  and  C_12 
REMARK    3  A    between atoms: C_22  and  C_23 
REMARK    4  A    between atoms: C_23  and  C_25 
ROOT
HETATM    1  C   UNK N   1      34.710  11.903  15.333  0.00  0.00     0.070 A 
HETATM    2  C   UNK N   1      33.957  10.809  14.877  0.00  0.00     0.049 A 
HETATM    3  C   UNK N   1      33.796  10.628  13.484  0.00  0.00     0.092 A 
HETATM    4  N   UNK N   1      34.379  11.490  12.594  0.00  0.00    -0.350 N 
ATOM      5  HN  UNK N   1      34.273  11.351  11.588  1.00  0.00     0.166 HD
HETATM    6  C   UNK N   1      35.098  12.534  13.077  0.00  0.00     0.143 A 
HETATM    7  N   UNK N   1      35.242  12.730  14.386  0.00  0.00    -0.239 N 
HETATM    8  N   UNK N   1      35.990  13.805  14.587  0.00  0.00    -0.302 N 
ATOM      9  HN  UNK N   1      36.253  14.185  15.496  1.00  0.00     0.186 HD
HETATM   10  C   UNK N   1      36.343  14.312  13.393  0.00  0.00     0.127 A 
HETATM   11  C   UNK N   1      35.795  13.517  12.398  0.00  0.00     0.078 A 
ENDROOT
BRANCH   1  12
HETATM   12  C   UNK N   1      34.969  12.145  16.782  0.00  0.00    -0.005 A 
HETATM   13  C   UNK N   1      34.902  13.407  17.390  0.00  0.00     0.014 A 
HETATM   14  C   UNK N   1      35.121  13.520  18.776  0.00  0.00     0.003 A 
HETATM   15  C   UNK N   1      35.409  12.379  19.551  0.00  0.00     0.030 A 
HETATM   16  C   UNK N   1      35.475  11.113  18.940  0.00  0.00     0.037 A 
HETATM   17  C   UNK N   1      35.248  11.046  17.578  0.00  0.00     0.043 A 
BRANCH  16  18
HETATM   18  N   UNK N   1      35.753   9.884  19.641  0.00  0.00    -0.323 N 
HETATM   19  C   UNK N   1      34.784   9.073  20.166  0.00  0.00     0.220 C 
HETATM   20  C   UNK N   1      35.153   7.811  20.889  0.00  0.00     0.117 C 
HETATM   21  O   UNK N   1      33.602   9.365  20.075  0.00  0.00    -0.274 OA
HETATM   22  C   UNK N   1      37.142   9.494  19.813  0.00  0.00     0.159 C 
ENDBRANCH  16  18
ENDBRANCH   1  12
BRANCH  11  23
HETATM   23  C   UNK N   1      35.970  13.718  10.943  0.00  0.00     0.204 C 
HETATM   24  O   UNK N   1      36.713  12.972  10.325  0.00  0.00    -0.286 OA
BRANCH  23  25
HETATM   25  C   UNK N   1      35.270  14.813  10.217  0.00  0.00     0.056 A 
HETATM   26  C   UNK N   1      34.401  14.642   9.140  0.00  0.00     0.023 A 
HETATM   27  C   UNK N   1      33.874  15.872   8.647  0.00  0.00     0.009 A 
HETATM   28  C   UNK N   1      34.328  17.009   9.329  0.00  0.00     0.050 A 
HETATM   29  S   UNK N   1      35.351  16.449  10.503  0.00  0.00    -0.098 SA
ENDBRANCH  23  25
ENDBRANCH  11  23
TORSDOF 4
ENDMDL
MODEL 6
REMARK VINA RESULT:      -7.4      4.440      7.557
REMARK  4 active torsions:
REMARK  status: ('A' for Active; 'I' for Inactive)
REMARK       I    between atoms: C_2  and  N_4 
REMARK    1  A    between atoms: N_4  and  C_6 
REMARK    2  A    between atoms: C_10  and  C_12 
REMARK    3  A    between atoms: C_22  and  C_23 
REMARK    4  A    between atoms: C_23  and  C_25 
ROOT
HETATM    1  C   UNK N   1      35.229  13.307  10.929  0.00  0.00     0.070 A 
HETATM    2  C   UNK N   1      34.469  12.510  10.057  0.00  0.00     0.049 A 
HETATM    3  C   UNK N   1      33.787  13.134   8.987  0.00  0.00     0.092 A 
HETATM    4  N   UNK N   1      33.879  14.486   8.791  0.00  0.00    -0.350 N 
ATOM      5  HN  UNK N   1      33.397  14.933   8.010  1.00  0.00     0.166 HD
HETATM    6  C   UNK N   1      34.623  15.219   9.657  0.00  0.00     0.143 A 
HETATM    7  N   UNK N   1      35.255  14.650  10.681  0.00  0.00    -0.239 N 
HETATM    8  N   UNK N   1      35.910  15.579  11.362  0.00  0.00    -0.302 N 
ATOM      9  HN  UNK N   1      36.473  15.419  12.197  1.00  0.00     0.186 HD
HETATM   10  C   UNK N   1      35.708  16.769  10.768  0.00  0.00     0.127 A 
HETATM   11  C   UNK N   1      34.891  16.576   9.664  0.00  0.00     0.078 A 
ENDROOT
BRANCH   1  12
HETATM   12  C   UNK N   1      36.016  12.730  12.057  0.00  0.00    -0.005 A 
HETATM   13  C   UNK N   1      36.898  11.647  11.923  0.00  0.00     0.014 A 
HETATM   14  C   UNK N   1      37.627  11.206  13.044  0.00  0.00     0.003 A 
HETATM   15  C   UNK N   1      37.475  11.842  14.292  0.00  0.00     0.030 A 
HETATM   16  C   UNK N   1      36.590  12.928  14.425  0.00  0.00     0.037 A 
HETATM   17  C   UNK N   1      35.898  13.332  13.299  0.00  0.00     0.043 A 
BRANCH  16  18
HETATM   18  N   UNK N   1      36.368  13.652  15.652  0.00  0.00    -0.323 N 
HETATM   19  C   UNK N   1      35.498  13.244  16.627  0.00  0.00     0.220 C 
HETATM   20  C   UNK N   1      35.316  14.056  17.876  0.00  0.00     0.117 C 
HETATM   21  O   UNK N   1      34.840  12.224  16.497  0.00  0.00    -0.274 OA
HETATM   22  C   UNK N   1      37.095  14.892  15.856  0.00  0.00     0.159 C 
ENDBRANCH  16  18
ENDBRANCH   1  12
BRANCH  11  23
HETATM   23  C   UNK N   1      34.454  17.630   8.724  0.00  0.00     0.204 C 
HETATM   24  O   UNK N   1      35.087  18.672   8.662  0.00  0.00    -0.286 OA
BRANCH  23  25
HETATM   25  C   UNK N   1      33.254  17.456   7.859  0.00  0.00     0.056 A 
HETATM   26  C   UNK N   1      33.271  17.321   6.472  0.00  0.00     0.023 A 
HETATM   27  C   UNK N   1      31.970  17.164   5.909  0.00  0.00     0.009 A 
HETATM   28  C   UNK N   1      30.930  17.178   6.849  0.00  0.00     0.050 A 
HETATM   29  S   UNK N   1      31.659  17.381   8.322  0.00  0.00    -0.098 SA
ENDBRANCH  23  25
ENDBRANCH  11  23
TORSDOF 4
ENDMDL
MODEL 7
REMARK VINA RESULT:      -7.4      3.201      8.968
REMARK  4 active torsions:
REMARK  status: ('A' for Active; 'I' for Inactive)
REMARK       I    between atoms: C_2  and  N_4 
REMARK    1  A    between atoms: N_4  and  C_6 
REMARK    2  A    between atoms: C_10  and  C_12 
REMARK    3  A    between atoms: C_22  and  C_23 
REMARK    4  A    between atoms: C_23  and  C_25 
ROOT
HETATM    1  C   UNK N   1      30.679  17.115   5.356  0.00  0.00     0.070 A 
HETATM    2  C   UNK N   1      31.444  17.117   4.178  0.00  0.00     0.049 A 
HETATM    3  C   UNK N   1      32.839  17.329   4.273  0.00  0.00     0.092 A 
HETATM    4  N   UNK N   1      33.438  17.511   5.491  0.00  0.00    -0.350 N 
ATOM      5  HN  UNK N   1      34.447  17.651   5.559  1.00  0.00     0.166 HD
HETATM    6  C   UNK N   1      32.663  17.503   6.604  0.00  0.00     0.143 A 
HETATM    7  N   UNK N   1      31.345  17.324   6.530  0.00  0.00    -0.239 N 
HETATM    8  N   UNK N   1      30.831  17.351   7.751  0.00  0.00    -0.302 N 
ATOM      9  HN  UNK N   1      29.844  17.245   7.983  1.00  0.00     0.186 HD
HETATM   10  C   UNK N   1      31.828  17.543   8.633  0.00  0.00     0.127 A 
HETATM   11  C   UNK N   1      33.022  17.638   7.933  0.00  0.00     0.078 A 
ENDROOT
BRANCH   1  12
HETATM   12  C   UNK N   1      29.211  16.854   5.354  0.00  0.00    -0.005 A 
HETATM   13  C   UNK N   1      28.636  15.609   5.649  0.00  0.00     0.014 A 
HETATM   14  C   UNK N   1      27.234  15.481   5.663  0.00  0.00     0.003 A 
HETATM   15  C   UNK N   1      26.410  16.589   5.381  0.00  0.00     0.030 A 
HETATM   16  C   UNK N   1      26.989  17.837   5.085  0.00  0.00     0.037 A 
HETATM   17  C   UNK N   1      28.369  17.921   5.088  0.00  0.00     0.043 A 
BRANCH  16  18
HETATM   18  N   UNK N   1      26.239  19.033   4.791  0.00  0.00    -0.323 N 
HETATM   19  C   UNK N   1      25.410  19.163   3.710  0.00  0.00     0.220 C 
HETATM   20  C   UNK N   1      24.666  20.444   3.467  0.00  0.00     0.117 C 
HETATM   21  O   UNK N   1      25.270  18.251   2.911  0.00  0.00    -0.274 OA
HETATM   22  C   UNK N   1      26.385  20.169   5.685  0.00  0.00     0.159 C 
ENDBRANCH  16  18
ENDBRANCH   1  12
BRANCH  11  23
HETATM   23  C   UNK N   1      34.359  17.823   8.536  0.00  0.00     0.204 C 
HETATM   24  O   UNK N   1      34.968  18.860   8.328  0.00  0.00    -0.286 OA
BRANCH  23  25
HETATM   25  C   UNK N   1      34.984  16.771   9.385  0.00  0.00     0.056 A 
HETATM   26  C   UNK N   1      35.402  16.939  10.704  0.00  0.00     0.023 A 
HETATM   27  C   UNK N   1      35.962  15.755  11.269  0.00  0.00     0.009 A 
HETATM   28  C   UNK N   1      35.988  14.657  10.398  0.00  0.00     0.050 A 
HETATM   29  S   UNK N   1      35.322  15.194   8.980  0.00  0.00    -0.098 SA
ENDBRANCH  23  25
ENDBRANCH  11  23
TORSDOF 4
ENDMDL
MODEL 8
REMARK VINA RESULT:      -7.3      4.129      6.459
REMARK  4 active torsions:
REMARK  status: ('A' for Active; 'I' for Inactive)
REMARK       I    between atoms: C_2  and  N_4 
REMARK    1  A    between atoms: N_4  and  C_6 
REMARK    2  A    between atoms: C_10  and  C_12 
REMARK    3  A    between atoms: C_22  and  C_23 
REMARK    4  A    between atoms: C_23  and  C_25 
ROOT
HETATM    1  C   UNK N   1      35.099  14.426  10.819  0.00  0.00     0.070 A 
HETATM    2  C   UNK N   1      35.850  15.535  11.244  0.00  0.00     0.049 A 
HETATM    3  C   UNK N   1      35.491  16.820  10.775  0.00  0.00     0.092 A 
HETATM    4  N   UNK N   1      34.420  16.985   9.938  0.00  0.00    -0.350 N 
ATOM      5  HN  UNK N   1      34.153  17.914   9.612  1.00  0.00     0.166 HD
HETATM    6  C   UNK N   1      33.722  15.888   9.552  0.00  0.00     0.143 A 
HETATM    7  N   UNK N   1      34.059  14.669   9.968  0.00  0.00    -0.239 N 
HETATM    8  N   UNK N   1      33.218  13.783   9.455  0.00  0.00    -0.302 N 
ATOM      9  HN  UNK N   1      33.249  12.776   9.607  1.00  0.00     0.186 HD
HETATM   10  C   UNK N   1      32.315  14.435   8.700  0.00  0.00     0.127 A 
HETATM   11  C   UNK N   1      32.603  15.791   8.744  0.00  0.00     0.078 A 
ENDROOT
BRANCH   1  12
HETATM   12  C   UNK N   1      35.378  13.042  11.298  0.00  0.00    -0.005 A 
HETATM   13  C   UNK N   1      35.985  12.049  10.515  0.00  0.00     0.014 A 
HETATM   14  C   UNK N   1      36.244  10.785  11.079  0.00  0.00     0.003 A 
HETATM   15  C   UNK N   1      35.897  10.513  12.417  0.00  0.00     0.030 A 
HETATM   16  C   UNK N   1      35.289  11.511  13.202  0.00  0.00     0.037 A 
HETATM   17  C   UNK N   1      35.057  12.739  12.612  0.00  0.00     0.043 A 
BRANCH  16  18
HETATM   18  N   UNK N   1      34.903  11.339  14.581  0.00  0.00    -0.323 N 
HETATM   19  C   UNK N   1      35.705  11.665  15.640  0.00  0.00     0.220 C 
HETATM   20  C   UNK N   1      35.234  11.451  17.049  0.00  0.00     0.117 C 
HETATM   21  O   UNK N   1      36.825  12.118  15.466  0.00  0.00    -0.274 OA
HETATM   22  C   UNK N   1      33.594  10.773  14.859  0.00  0.00     0.159 C 
ENDBRANCH  16  18
ENDBRANCH   1  12
BRANCH  11  23
HETATM   23  C   UNK N   1      31.830  16.855   8.069  0.00  0.00     0.204 C 
HETATM   24  O   UNK N   1      31.068  17.547   8.727  0.00  0.00    -0.286 OA
BRANCH  23  25
HETATM   25  C   UNK N   1      31.950  17.097   6.605  0.00  0.00     0.056 A 
HETATM   26  C   UNK N   1      33.126  17.435   5.935  0.00  0.00     0.023 A 
HETATM   27  C   UNK N   1      32.942  17.601   4.531  0.00  0.00     0.009 A 
HETATM   28  C   UNK N   1      31.626  17.399   4.094  0.00  0.00     0.050 A 
HETATM   29  S   UNK N   1      30.755  17.025   5.452  0.00  0.00    -0.098 SA
ENDBRANCH  23  25
ENDBRANCH  11  23
TORSDOF 4
ENDMDL
MODEL 9
REMARK VINA RESULT:      -7.2      6.898     12.119
REMARK  4 active torsions:
REMARK  status: ('A' for Active; 'I' for Inactive)
REMARK       I    between atoms: C_2  and  N_4 
REMARK    1  A    between atoms: N_4  and  C_6 
REMARK    2  A    between atoms: C_10  and  C_12 
REMARK    3  A    between atoms: C_22  and  C_23 
REMARK    4  A    between atoms: C_23  and  C_25 
ROOT
HETATM    1  C   UNK N   1      35.597  12.474  12.855  0.00  0.00     0.070 A 
HETATM    2  C   UNK N   1      34.633  11.463  12.707  0.00  0.00     0.049 A 
HETATM    3  C   UNK N   1      33.998  10.955  13.864  0.00  0.00     0.092 A 
HETATM    4  N   UNK N   1      34.302  11.450  15.104  0.00  0.00    -0.350 N 
ATOM      5  HN  UNK N   1      33.833  11.092  15.937  1.00  0.00     0.166 HD
HETATM    6  C   UNK N   1      35.239  12.425  15.202  0.00  0.00     0.143 A 
HETATM    7  N   UNK N   1      35.861  12.901  14.125  0.00  0.00    -0.239 N 
HETATM    8  N   UNK N   1      36.716  13.844  14.494  0.00  0.00    -0.302 N 
ATOM      9  HN  UNK N   1      37.326  14.371  13.869  1.00  0.00     0.186 HD
HETATM   10  C   UNK N   1      36.645  13.989  15.829  0.00  0.00     0.127 A 
HETATM   11  C   UNK N   1      35.701  13.099  16.319  0.00  0.00     0.078 A 
ENDROOT
BRANCH   1  12
HETATM   12  C   UNK N   1      36.283  13.099  11.688  0.00  0.00    -0.005 A 
HETATM   13  C   UNK N   1      37.606  12.820  11.314  0.00  0.00     0.014 A 
HETATM   14  C   UNK N   1      38.145  13.432  10.166  0.00  0.00     0.003 A 
HETATM   15  C   UNK N   1      37.368  14.322   9.398  0.00  0.00     0.030 A 
HETATM   16  C   UNK N   1      36.041  14.602   9.774  0.00  0.00     0.037 A 
HETATM   17  C   UNK N   1      35.549  13.975  10.904  0.00  0.00     0.043 A 
BRANCH  16  18
HETATM   18  N   UNK N   1      35.160  15.489   9.055  0.00  0.00    -0.323 N 
HETATM   19  C   UNK N   1      34.983  16.807   9.375  0.00  0.00     0.220 C 
HETATM   20  C   UNK N   1      34.042  17.666   8.582  0.00  0.00     0.117 C 
HETATM   21  O   UNK N   1      35.568  17.309  10.321  0.00  0.00    -0.274 OA
HETATM   22  C   UNK N   1      34.408  14.946   7.937  0.00  0.00     0.159 C 
ENDBRANCH  16  18
ENDBRANCH   1  12
BRANCH  11  23
HETATM   23  C   UNK N   1      35.303  12.963  17.736  0.00  0.00     0.204 C 
HETATM   24  O   UNK N   1      34.760  13.903  18.295  0.00  0.00    -0.286 OA
BRANCH  23  25
HETATM   25  C   UNK N   1      35.558  11.711  18.501  0.00  0.00     0.056 A 
HETATM   26  C   UNK N   1      35.285  11.521  19.855  0.00  0.00     0.023 A 
HETATM   27  C   UNK N   1      35.629  10.217  20.317  0.00  0.00     0.009 A 
HETATM   28  C   UNK N   1      36.175   9.381  19.332  0.00  0.00     0.050 A 
HETATM   29  S   UNK N   1      36.206  10.284  17.945  0.00  0.00    -0.098 SA
ENDBRANCH  23  25
ENDBRANCH  11  23
TORSDOF 4
ENDMDL
