REMARK  7 active torsions:
REMARK  status: ('A' for Active; 'I' for Inactive)
REMARK    1  A    between atoms: C_3  and  O_8 
REMARK    2  A    between atoms: C_6  and  O_7 
REMARK    3  A    between atoms: O_8  and  C_9 
REMARK    4  A    between atoms: C_12  and  C_16 
REMARK    5  A    between atoms: C_16  and  C_17 
REMARK    6  A    between atoms: C_17  and  C_18 
REMARK    7  A    between atoms: C_18  and  O_20 
ROOT
HETATM    1  C   UNK N   1       1.758  -4.154   0.004  0.00  0.00     0.109 A 
HETATM    2  C   UNK N   1       1.966  -5.562  -0.004  0.00  0.00     0.042 A 
HETATM    3  C   UNK N   1       0.885  -6.464  -0.007  0.00  0.00     0.028 A 
HETATM    4  C   UNK N   1      -0.420  -5.972  -0.003  0.00  0.00    -0.055 A 
HETATM    5  C   UNK N   1      -0.628  -4.616   0.006  0.00  0.00     0.028 A 
HETATM    6  C   UNK N   1       0.392  -3.683   0.010  0.00  0.00     0.042 A 
HETATM    7  I   UNK N   1      -0.551  -1.780   0.033  0.00  0.00    -0.042 I 
HETATM    8  I   UNK N   1       3.926  -6.368  -0.009  0.00  0.00    -0.042 I 
ENDROOT
BRANCH   1   9
HETATM    9  O   UNK N   1       2.904  -3.386   0.007  0.00  0.00    -0.308 OA
BRANCH   9  10
HETATM   10  C   UNK N   1       3.242  -2.068   0.001  0.00  0.00     0.076 A 
HETATM   11  C   UNK N   1       4.602  -1.717   0.023  0.00  0.00     0.040 A 
HETATM   12  C   UNK N   1       4.992  -0.369   0.020  0.00  0.00     0.039 A 
HETATM   13  C   UNK N   1       4.022   0.639  -0.005  0.00  0.00     0.065 A 
HETATM   14  C   UNK N   1       2.675   0.296  -0.030  0.00  0.00     0.039 A 
HETATM   15  C   UNK N   1       2.306  -1.046  -0.028  0.00  0.00     0.040 A 
BRANCH  13  16
HETATM   16  O   UNK N   1       4.381   1.932  -0.006  0.00  0.00    -0.361 OA
HETATM   17  H   UNK N   1       5.289   2.166  -0.006  0.00  0.00     0.217 HD
ENDBRANCH  13  16
ENDBRANCH   9  10
ENDBRANCH   1   9
BRANCH   4  18
HETATM   18  C   UNK N   1      -1.666  -6.790  -0.005  0.00  0.00     0.049 C 
BRANCH  18  19
HETATM   19  C   UNK N   1      -1.607  -8.302  -0.005  0.00  0.00     0.114 C 
BRANCH  19  20
HETATM   20  C   UNK N   1      -3.024  -8.820  -0.001  0.00  0.00     0.139 C 
HETATM   21  O   UNK N   1      -3.229 -10.021   0.000  0.00  0.00    -0.650 OA
BRANCH  20  22
HETATM   22  O   UNK N   1      -4.076  -7.970   0.000  0.00  0.00    -0.776 OA
HETATM   23  H   UNK N   1      -3.930  -7.044   0.001  0.00  0.00     0.167 HD
ENDBRANCH  20  22
ENDBRANCH  19  20
ENDBRANCH  18  19
ENDBRANCH   4  18
TORSDOF 7
