MODEL 1
REMARK VINA RESULT:      -7.1      0.000      0.000
REMARK  0 active torsions:
REMARK  status: ('A' for Active; 'I' for Inactive)
ROOT
HETATM    1  C   UNK N   1      30.490  22.816  -2.194  0.00  0.00     0.001 A 
HETATM    2  C   UNK N   1      31.180  23.057  -3.396  0.00  0.00     0.001 A 
HETATM    3  C   UNK N   1      30.502  23.588  -4.504  0.00  0.00     0.007 A 
HETATM    4  C   UNK N   1      29.141  23.869  -4.383  0.00  0.00    -0.049 A 
HETATM    5  C   UNK N   1      28.466  23.619  -3.219  0.00  0.00    -0.049 A 
HETATM    6  C   UNK N   1      29.116  23.089  -2.105  0.00  0.00     0.007 A 
HETATM    7  C   UNK N   1      27.028  23.937  -3.313  0.00  0.00     0.081 C 
HETATM    8  C   UNK N   1      26.974  24.709  -4.647  0.00  0.00     0.127 A 
HETATM    9  C   UNK N   1      28.272  24.431  -5.438  0.00  0.00     0.081 C 
HETATM   10  C   UNK N   1      25.717  24.487  -5.445  0.00  0.00     0.252 A 
HETATM   11  O   UNK N   1      25.366  23.422  -5.928  0.00  0.00    -0.270 OA
HETATM   12  N   UNK N   1      25.002  25.620  -5.567  0.00  0.00    -0.311 N 
ATOM     13  HN  UNK N   1      24.115  25.720  -6.062  1.00  0.00     0.170 HD
HETATM   14  C   UNK N   1      25.627  26.543  -4.956  0.00  0.00     0.111 A 
HETATM   15  N   UNK N   1      26.784  26.138  -4.393  0.00  0.00    -0.324 N 
HETATM   16  C   UNK N   1      27.585  26.980  -3.686  0.00  0.00     0.094 A 
HETATM   17  C   UNK N   1      27.191  28.318  -3.537  0.00  0.00     0.017 A 
HETATM   18  C   UNK N   1      25.987  28.754  -4.118  0.00  0.00     0.005 A 
HETATM   19  C   UNK N   1      25.188  27.859  -4.843  0.00  0.00     0.049 A 
ENDROOT
TORSDOF 0
ENDMDL
MODEL 2
REMARK VINA RESULT:      -6.9     13.273     16.304
REMARK  0 active torsions:
REMARK  status: ('A' for Active; 'I' for Inactive)
ROOT
HETATM    1  C   UNK N   1      30.512  16.936   4.143  0.00  0.00     0.001 A 
HETATM    2  C   UNK N   1      31.665  16.679   3.378  0.00  0.00     0.001 A 
HETATM    3  C   UNK N   1      32.931  16.697   3.984  0.00  0.00     0.007 A 
HETATM    4  C   UNK N   1      33.015  16.971   5.350  0.00  0.00    -0.049 A 
HETATM    5  C   UNK N   1      31.894  17.237   6.090  0.00  0.00    -0.049 A 
HETATM    6  C   UNK N   1      30.625  17.228   5.511  0.00  0.00     0.007 A 
HETATM    7  C   UNK N   1      32.201  17.550   7.499  0.00  0.00     0.081 C 
HETATM    8  C   UNK N   1      33.687  17.147   7.583  0.00  0.00     0.127 A 
HETATM    9  C   UNK N   1      34.255  17.027   6.151  0.00  0.00     0.081 C 
HETATM   10  C   UNK N   1      34.517  18.009   8.495  0.00  0.00     0.252 A 
HETATM   11  O   UNK N   1      34.743  19.198   8.332  0.00  0.00    -0.270 OA
HETATM   12  N   UNK N   1      34.991  17.309   9.543  0.00  0.00    -0.311 N 
ATOM     13  HN  UNK N   1      35.576  17.675  10.294  1.00  0.00     0.170 HD
HETATM   14  C   UNK N   1      34.580  16.112   9.428  0.00  0.00     0.111 A 
HETATM   15  N   UNK N   1      33.825  15.896   8.332  0.00  0.00    -0.324 N 
HETATM   16  C   UNK N   1      33.285  14.681   8.046  0.00  0.00     0.094 A 
HETATM   17  C   UNK N   1      33.519  13.615   8.926  0.00  0.00     0.017 A 
HETATM   18  C   UNK N   1      34.304  13.825  10.075  0.00  0.00     0.005 A 
HETATM   19  C   UNK N   1      34.848  15.091  10.336  0.00  0.00     0.049 A 
ENDROOT
TORSDOF 0
ENDMDL
MODEL 3
REMARK VINA RESULT:      -6.8      2.534      3.978
REMARK  0 active torsions:
REMARK  status: ('A' for Active; 'I' for Inactive)
ROOT
HETATM    1  C   UNK N   1      27.428  21.041  -8.331  0.00  0.00     0.001 A 
HETATM    2  C   UNK N   1      26.026  21.143  -8.373  0.00  0.00     0.001 A 
HETATM    3  C   UNK N   1      25.358  22.037  -7.522  0.00  0.00     0.007 A 
HETATM    4  C   UNK N   1      26.113  22.815  -6.644  0.00  0.00    -0.049 A 
HETATM    5  C   UNK N   1      27.477  22.704  -6.592  0.00  0.00    -0.049 A 
HETATM    6  C   UNK N   1      28.163  21.820  -7.425  0.00  0.00     0.007 A 
HETATM    7  C   UNK N   1      28.082  23.573  -5.565  0.00  0.00     0.081 C 
HETATM    8  C   UNK N   1      26.886  24.469  -5.182  0.00  0.00     0.127 A 
HETATM    9  C   UNK N   1      25.584  23.806  -5.685  0.00  0.00     0.081 C 
HETATM   10  C   UNK N   1      26.844  24.867  -3.731  0.00  0.00     0.252 A 
HETATM   11  O   UNK N   1      26.702  24.100  -2.792  0.00  0.00    -0.270 OA
HETATM   12  N   UNK N   1      26.989  26.196  -3.578  0.00  0.00    -0.311 N 
ATOM     13  HN  UNK N   1      26.995  26.702  -2.692  1.00  0.00     0.170 HD
HETATM   14  C   UNK N   1      27.118  26.709  -4.734  0.00  0.00     0.111 A 
HETATM   15  N   UNK N   1      27.066  25.811  -5.739  0.00  0.00    -0.324 N 
HETATM   16  C   UNK N   1      27.199  26.169  -7.045  0.00  0.00     0.094 A 
HETATM   17  C   UNK N   1      27.398  27.521  -7.356  0.00  0.00     0.017 A 
HETATM   18  C   UNK N   1      27.455  28.470  -6.318  0.00  0.00     0.005 A 
HETATM   19  C   UNK N   1      27.311  28.065  -4.983  0.00  0.00     0.049 A 
ENDROOT
TORSDOF 0
ENDMDL
MODEL 4
REMARK VINA RESULT:      -6.6     21.558     24.441
REMARK  0 active torsions:
REMARK  status: ('A' for Active; 'I' for Inactive)
ROOT
HETATM    1  C   UNK N   1      36.342   8.736  16.490  0.00  0.00     0.001 A 
HETATM    2  C   UNK N   1      35.150   9.185  17.087  0.00  0.00     0.001 A 
HETATM    3  C   UNK N   1      34.756  10.525  16.953  0.00  0.00     0.007 A 
HETATM    4  C   UNK N   1      35.567  11.391  16.217  0.00  0.00    -0.049 A 
HETATM    5  C   UNK N   1      36.735  10.957  15.650  0.00  0.00    -0.049 A 
HETATM    6  C   UNK N   1      37.150   9.631  15.772  0.00  0.00     0.007 A 
HETATM    7  C   UNK N   1      37.469  12.035  14.960  0.00  0.00     0.081 C 
HETATM    8  C   UNK N   1      36.413  13.158  14.942  0.00  0.00     0.127 A 
HETATM    9  C   UNK N   1      35.310  12.824  15.970  0.00  0.00     0.081 C 
HETATM   10  C   UNK N   1      36.977  14.547  15.086  0.00  0.00     0.252 A 
HETATM   11  O   UNK N   1      37.562  14.973  16.069  0.00  0.00    -0.270 OA
HETATM   12  N   UNK N   1      36.764  15.285  13.982  0.00  0.00    -0.311 N 
ATOM     13  HN  UNK N   1      37.053  16.254  13.841  1.00  0.00     0.170 HD
HETATM   14  C   UNK N   1      36.138  14.561  13.145  0.00  0.00     0.111 A 
HETATM   15  N   UNK N   1      35.873  13.316  13.590  0.00  0.00    -0.324 N 
HETATM   16  C   UNK N   1      35.223  12.393  12.832  0.00  0.00     0.094 A 
HETATM   17  C   UNK N   1      34.816  12.749  11.538  0.00  0.00     0.017 A 
HETATM   18  C   UNK N   1      35.087  14.044  11.059  0.00  0.00     0.005 A 
HETATM   19  C   UNK N   1      35.756  14.971  11.871  0.00  0.00     0.049 A 
ENDROOT
TORSDOF 0
ENDMDL
MODEL 5
REMARK VINA RESULT:      -6.3     13.384     15.409
REMARK  0 active torsions:
REMARK  status: ('A' for Active; 'I' for Inactive)
ROOT
HETATM    1  C   UNK N   1      34.590  15.171  10.590  0.00  0.00     0.001 A 
HETATM    2  C   UNK N   1      35.221  16.410  10.374  0.00  0.00     0.001 A 
HETATM    3  C   UNK N   1      34.738  17.285   9.389  0.00  0.00     0.007 A 
HETATM    4  C   UNK N   1      33.625  16.900   8.640  0.00  0.00    -0.049 A 
HETATM    5  C   UNK N   1      33.021  15.688   8.840  0.00  0.00    -0.049 A 
HETATM    6  C   UNK N   1      33.484  14.799   9.809  0.00  0.00     0.007 A 
HETATM    7  C   UNK N   1      31.896  15.451   7.914  0.00  0.00     0.081 C 
HETATM    8  C   UNK N   1      31.713  16.851   7.294  0.00  0.00     0.127 A 
HETATM    9  C   UNK N   1      32.980  17.690   7.571  0.00  0.00     0.081 C 
HETATM   10  C   UNK N   1      31.294  16.843   5.848  0.00  0.00     0.252 A 
HETATM   11  O   UNK N   1      31.960  16.408   4.922  0.00  0.00    -0.270 OA
HETATM   12  N   UNK N   1      30.070  17.378   5.684  0.00  0.00    -0.311 N 
ATOM     13  HN  UNK N   1      29.573  17.482   4.799  1.00  0.00     0.170 HD
HETATM   14  C   UNK N   1      29.644  17.731   6.829  0.00  0.00     0.111 A 
HETATM   15  N   UNK N   1      30.508  17.485   7.834  0.00  0.00    -0.324 N 
HETATM   16  C   UNK N   1      30.223  17.781   9.130  0.00  0.00     0.094 A 
HETATM   17  C   UNK N   1      28.984  18.362   9.432  0.00  0.00     0.017 A 
HETATM   18  C   UNK N   1      28.071  18.624   8.395  0.00  0.00     0.005 A 
HETATM   19  C   UNK N   1      28.400  18.308   7.068  0.00  0.00     0.049 A 
ENDROOT
TORSDOF 0
ENDMDL
MODEL 6
REMARK VINA RESULT:      -6.3     14.540     15.970
REMARK  0 active torsions:
REMARK  status: ('A' for Active; 'I' for Inactive)
ROOT
HETATM    1  C   UNK N   1      21.654  13.477   9.957  0.00  0.00     0.001 A 
HETATM    2  C   UNK N   1      21.889  12.398   9.084  0.00  0.00     0.001 A 
HETATM    3  C   UNK N   1      21.501  12.483   7.738  0.00  0.00     0.007 A 
HETATM    4  C   UNK N   1      20.885  13.654   7.292  0.00  0.00    -0.049 A 
HETATM    5  C   UNK N   1      20.642  14.696   8.145  0.00  0.00    -0.049 A 
HETATM    6  C   UNK N   1      21.015  14.635   9.488  0.00  0.00     0.007 A 
HETATM    7  C   UNK N   1      19.939  15.817   7.492  0.00  0.00     0.081 C 
HETATM    8  C   UNK N   1      20.045  15.417   6.006  0.00  0.00     0.127 A 
HETATM    9  C   UNK N   1      20.416  13.920   5.917  0.00  0.00     0.081 C 
HETATM   10  C   UNK N   1      18.851  15.797   5.171  0.00  0.00     0.252 A 
HETATM   11  O   UNK N   1      17.720  15.360   5.315  0.00  0.00    -0.270 OA
HETATM   12  N   UNK N   1      19.175  16.701   4.228  0.00  0.00    -0.311 N 
ATOM     13  HN  UNK N   1      18.537  17.109   3.543  1.00  0.00     0.170 HD
HETATM   14  C   UNK N   1      20.416  16.953   4.340  0.00  0.00     0.111 A 
HETATM   15  N   UNK N   1      21.026  16.266   5.327  0.00  0.00    -0.324 N 
HETATM   16  C   UNK N   1      22.349  16.412   5.608  0.00  0.00     0.094 A 
HETATM   17  C   UNK N   1      23.104  17.313   4.845  0.00  0.00     0.017 A 
HETATM   18  C   UNK N   1      22.481  18.038   3.812  0.00  0.00     0.005 A 
HETATM   19  C   UNK N   1      21.116  17.859   3.548  0.00  0.00     0.049 A 
ENDROOT
TORSDOF 0
ENDMDL
MODEL 7
REMARK VINA RESULT:      -6.1      2.976      4.713
REMARK  0 active torsions:
REMARK  status: ('A' for Active; 'I' for Inactive)
ROOT
HETATM    1  C   UNK N   1      33.477  21.637  -6.890  0.00  0.00     0.001 A 
HETATM    2  C   UNK N   1      32.960  20.348  -6.665  0.00  0.00     0.001 A 
HETATM    3  C   UNK N   1      31.938  20.153  -5.723  0.00  0.00     0.007 A 
HETATM    4  C   UNK N   1      31.452  21.260  -5.025  0.00  0.00    -0.049 A 
HETATM    5  C   UNK N   1      31.968  22.511  -5.233  0.00  0.00    -0.049 A 
HETATM    6  C   UNK N   1      32.985  22.730  -6.161  0.00  0.00     0.007 A 
HETATM    7  C   UNK N   1      31.355  23.533  -4.362  0.00  0.00     0.081 C 
HETATM    8  C   UNK N   1      30.158  22.756  -3.778  0.00  0.00     0.127 A 
HETATM    9  C   UNK N   1      30.383  21.245  -4.005  0.00  0.00     0.081 C 
HETATM   10  C   UNK N   1      29.817  23.112  -2.355  0.00  0.00     0.252 A 
HETATM   11  O   UNK N   1      30.539  22.928  -1.389  0.00  0.00    -0.270 OA
HETATM   12  N   UNK N   1      28.598  23.675  -2.264  0.00  0.00    -0.311 N 
ATOM     13  HN  UNK N   1      28.149  24.000  -1.407  1.00  0.00     0.170 HD
HETATM   14  C   UNK N   1      28.107  23.730  -3.435  0.00  0.00     0.111 A 
HETATM   15  N   UNK N   1      28.912  23.221  -4.390  0.00  0.00    -0.324 N 
HETATM   16  C   UNK N   1      28.563  23.204  -5.705  0.00  0.00     0.094 A 
HETATM   17  C   UNK N   1      27.322  23.736  -6.080  0.00  0.00     0.017 A 
HETATM   18  C   UNK N   1      26.471  24.271  -5.096  0.00  0.00     0.005 A 
HETATM   19  C   UNK N   1      26.862  24.270  -3.748  0.00  0.00     0.049 A 
ENDROOT
TORSDOF 0
ENDMDL
MODEL 8
REMARK VINA RESULT:      -6.1     24.522     26.264
REMARK  0 active torsions:
REMARK  status: ('A' for Active; 'I' for Inactive)
ROOT
HETATM    1  C   UNK N   1      36.668   7.377  13.541  0.00  0.00     0.001 A 
HETATM    2  C   UNK N   1      37.934   7.983  13.441  0.00  0.00     0.001 A 
HETATM    3  C   UNK N   1      38.121   9.301  13.888  0.00  0.00     0.007 A 
HETATM    4  C   UNK N   1      37.031   9.985  14.429  0.00  0.00    -0.049 A 
HETATM    5  C   UNK N   1      35.797   9.399  14.511  0.00  0.00    -0.049 A 
HETATM    6  C   UNK N   1      35.584   8.093  14.071  0.00  0.00     0.007 A 
HETATM    7  C   UNK N   1      34.771  10.304  15.065  0.00  0.00     0.081 C 
HETATM    8  C   UNK N   1      35.642  11.463  15.592  0.00  0.00     0.127 A 
HETATM    9  C   UNK N   1      37.044  11.367  14.950  0.00  0.00     0.081 C 
HETATM   10  C   UNK N   1      35.010  12.824  15.469  0.00  0.00     0.252 A 
HETATM   11  O   UNK N   1      34.725  13.378  14.419  0.00  0.00    -0.270 OA
HETATM   12  N   UNK N   1      34.782  13.374  16.675  0.00  0.00    -0.311 N 
ATOM     13  HN  UNK N   1      34.362  14.288  16.849  1.00  0.00     0.170 HD
HETATM   14  C   UNK N   1      35.182  12.554  17.559  0.00  0.00     0.111 A 
HETATM   15  N   UNK N   1      35.705  11.419  17.054  0.00  0.00    -0.324 N 
HETATM   16  C   UNK N   1      36.175  10.416  17.845  0.00  0.00     0.094 A 
HETATM   17  C   UNK N   1      36.109  10.569  19.237  0.00  0.00     0.017 A 
HETATM   18  C   UNK N   1      35.565  11.748  19.779  0.00  0.00     0.005 A 
HETATM   19  C   UNK N   1      35.094  12.762  18.933  0.00  0.00     0.049 A 
ENDROOT
TORSDOF 0
ENDMDL
MODEL 9
REMARK VINA RESULT:      -6.0     10.572     11.977
REMARK  0 active torsions:
REMARK  status: ('A' for Active; 'I' for Inactive)
ROOT
HETATM    1  C   UNK N   1      32.910  17.413   6.838  0.00  0.00     0.001 A 
HETATM    2  C   UNK N   1      33.422  17.562   5.536  0.00  0.00     0.001 A 
HETATM    3  C   UNK N   1      32.585  17.376   4.425  0.00  0.00     0.007 A 
HETATM    4  C   UNK N   1      31.247  17.045   4.643  0.00  0.00    -0.049 A 
HETATM    5  C   UNK N   1      30.754  16.884   5.910  0.00  0.00    -0.049 A 
HETATM    6  C   UNK N   1      31.566  17.060   7.030  0.00  0.00     0.007 A 
HETATM    7  C   UNK N   1      29.333  16.485   5.923  0.00  0.00     0.081 C 
HETATM    8  C   UNK N   1      28.941  16.711   4.449  0.00  0.00     0.127 A 
HETATM    9  C   UNK N   1      30.226  16.816   3.599  0.00  0.00     0.081 C 
HETATM   10  C   UNK N   1      27.937  15.726   3.913  0.00  0.00     0.252 A 
HETATM   11  O   UNK N   1      28.123  14.526   3.786  0.00  0.00    -0.270 OA
HETATM   12  N   UNK N   1      26.779  16.328   3.585  0.00  0.00    -0.311 N 
ATOM     13  HN  UNK N   1      25.951  15.870   3.202  1.00  0.00     0.170 HD
HETATM   14  C   UNK N   1      26.900  17.568   3.835  0.00  0.00     0.111 A 
HETATM   15  N   UNK N   1      28.107  17.910   4.330  0.00  0.00    -0.324 N 
HETATM   16  C   UNK N   1      28.420  19.189   4.671  0.00  0.00     0.094 A 
HETATM   17  C   UNK N   1      27.451  20.187   4.504  0.00  0.00     0.017 A 
HETATM   18  C   UNK N   1      26.187  19.846   3.989  0.00  0.00     0.005 A 
HETATM   19  C   UNK N   1      25.900  18.517   3.645  0.00  0.00     0.049 A 
ENDROOT
TORSDOF 0
ENDMDL
