REMARK  7 active torsions:
REMARK  status: ('A' for Active; 'I' for Inactive)
REMARK    1  A    between atoms: N_2  and  C_4 
REMARK    2  A    between atoms: C_4  and  C_5 
REMARK    3  A    between atoms: C_8  and  S_11 
REMARK    4  A    between atoms: S_11  and  N_14 
REMARK    5  A    between atoms: C_17  and  C_19 
REMARK    6  A    between atoms: C_20  and  C_21 
REMARK       I    between atoms: C_21  and  N_23 
REMARK    7  A    between atoms: N_23  and  O_24 
ROOT
HETATM    1  N   UNK N   1       1.975   3.420   0.123  0.00  0.00    -0.257 N 
HETATM    2  C   UNK N   1       2.475   2.211  -0.208  0.00  0.00     0.109 A 
HETATM    3  C   UNK N   1       1.501   1.241  -0.009  0.00  0.00     0.031 A 
HETATM    4  C   UNK N   1       0.395   1.919   0.475  0.00  0.00    -0.018 A 
HETATM    5  C   UNK N   1       0.703   3.245   0.545  0.00  0.00     0.120 A 
ENDROOT
BRANCH   1   6
HETATM    6  S   UNK N   1       2.801   4.983  -0.194  0.00  0.00     0.268 S 
HETATM    7  O   UNK N   1       1.595   5.016  -1.155  0.00  0.00    -0.200 OA
HETATM    8  O   UNK N   1       2.310   5.201   1.248  0.00  0.00    -0.200 OA
BRANCH   6   9
HETATM    9  C   UNK N   1       1.949   6.640  -0.162  0.00  0.00     0.080 A 
HETATM   10  C   UNK N   1       2.668   7.738  -0.656  0.00  0.00     0.026 A 
HETATM   11  C   UNK N   1       2.124   9.027  -0.625  0.00  0.00     0.010 A 
HETATM   12  C   UNK N   1       0.849   9.251  -0.093  0.00  0.00    -0.030 A 
HETATM   13  C   UNK N   1       0.108   8.172   0.398  0.00  0.00     0.010 A 
HETATM   14  C   UNK N   1       0.634   6.880   0.356  0.00  0.00     0.026 A 
BRANCH  12  15
HETATM   15  C   UNK N   1       0.347  10.670   0.032  0.00  0.00     0.309 C 
BRANCH  15  16
HETATM   16  N   UNK N   1      -1.047  10.907  -0.366  0.00  0.00     0.084 N 
HETATM   17  C   UNK N   1      -1.948  10.424   0.670  0.00  0.00     0.309 C 
HETATM   18  C   UNK N   1      -1.381  10.270  -1.632  0.00  0.00     0.309 C 
ENDBRANCH  15  16
ENDBRANCH  12  15
ENDBRANCH   6   9
ENDBRANCH   1   6
BRANCH   4  19
HETATM   19  C   UNK N   1      -0.979   1.452   0.613  0.00  0.00     0.018 C 
HETATM   20  C   UNK N   1      -1.414   0.319   0.067  0.00  0.00     0.077 C 
BRANCH  20  21
HETATM   21  C   UNK N   1      -2.858   0.048   0.030  0.00  0.00     0.264 C 
HETATM   22  O   UNK N   1      -3.269  -0.949  -0.549  0.00  0.00    -0.266 OA
HETATM   23  N   UNK N   1      -3.733   0.932   0.566  0.00  0.00    -0.234 N 
HETATM   24  H   UNK N   1      -3.391   1.733   1.024  0.00  0.00     0.197 HD
BRANCH  23  25
HETATM   25  O   UNK N   1      -5.055   0.737   0.484  0.00  0.00    -0.287 OA
HETATM   26  H   UNK N   1      -5.656   1.496   0.425  0.00  0.00     0.244 HD
ENDBRANCH  23  25
ENDBRANCH  20  21
ENDBRANCH   4  19
TORSDOF 7
