MODEL 1
REMARK VINA RESULT:      -7.6      0.000      0.000
REMARK  6 active torsions:
REMARK  status: ('A' for Active; 'I' for Inactive)
REMARK    1  A    between atoms: S_2  and  N_5 
REMARK    2  A    between atoms: N_5  and  C_6 
REMARK    3  A    between atoms: C_13  and  C_23 
REMARK    4  A    between atoms: C_16  and  O_19 
REMARK    5  A    between atoms: O_19  and  C_20 
REMARK       I    between atoms: C_23  and  N_25 
REMARK    6  A    between atoms: N_25  and  C_26 
ROOT
HETATM    1  C   UNK N   1      20.870  16.803   3.762  0.00  0.00     0.043 A 
HETATM    2  C   UNK N   1      19.595  16.268   4.071  0.00  0.00     0.033 A 
HETATM    3  C   UNK N   1      19.456  15.334   5.124  0.00  0.00     0.040 A 
HETATM    4  C   UNK N   1      20.610  14.949   5.811  0.00  0.00     0.087 A 
HETATM    5  C   UNK N   1      21.849  15.443   5.478  0.00  0.00     0.014 A 
HETATM    6  C   UNK N   1      21.993  16.379   4.473  0.00  0.00     0.045 A 
HETATM    7  C   UNK N   1      22.759  14.843   6.330  0.00  0.00     0.029 A 
HETATM    8  C   UNK N   1      24.174  14.902   6.480  0.00  0.00     0.046 A 
HETATM    9  C   UNK N   1      24.730  14.148   7.535  0.00  0.00     0.021 A 
HETATM   10  C   UNK N   1      23.926  13.389   8.404  0.00  0.00     0.041 A 
HETATM   11  C   UNK N   1      22.531  13.325   8.221  0.00  0.00     0.109 A 
HETATM   12  C   UNK N   1      21.986  14.046   7.164  0.00  0.00     0.121 A 
HETATM   13  O   UNK N   1      20.709  14.121   6.828  0.00  0.00    -0.306 OA
ENDROOT
BRANCH   8  14
HETATM   14  C   UNK N   1      25.112  15.677   5.607  0.00  0.00     0.257 C 
HETATM   15  O   UNK N   1      25.535  15.151   4.586  0.00  0.00    -0.267 OA
HETATM   16  N   UNK N   1      25.434  16.963   5.890  0.00  0.00    -0.320 N 
HETATM   17  H   UNK N   1      24.964  17.366   6.655  0.00  0.00     0.169 HD
BRANCH  16  18
HETATM   18  C   UNK N   1      26.370  17.811   5.217  0.00  0.00     0.081 A 
HETATM   19  C   UNK N   1      25.870  18.865   4.427  0.00  0.00     0.077 A 
HETATM   20  C   UNK N   1      26.750  19.734   3.785  0.00  0.00     0.113 A 
HETATM   21 Cl   UNK N   1      24.147  19.108   4.200  0.00  0.00    -0.080 Cl
HETATM   22  N   UNK N   1      28.090  19.578   3.921  0.00  0.00    -0.372 N 
HETATM   23  C   UNK N   1      28.612  18.587   4.689  0.00  0.00     0.113 A 
ATOM     24  HN  UNK N   1      28.719  20.218   3.437  1.00  0.00     0.164 HD
HETATM   25  C   UNK N   1      27.780  17.684   5.355  0.00  0.00     0.077 A 
HETATM   26 Cl   UNK N   1      28.565  16.505   6.396  0.00  0.00    -0.080 Cl
ENDBRANCH  16  18
ENDBRANCH   8  14
BRANCH  11  27
HETATM   27  O   UNK N   1      21.725  12.621   9.053  0.00  0.00    -0.287 OA
BRANCH  27  28
HETATM   28  C   UNK N   1      21.323  13.071  10.297  0.00  0.00     0.505 C 
HETATM   29  F   UNK N   1      20.358  12.249  10.852  0.00  0.00    -0.184 F 
HETATM   30  F   UNK N   1      20.823  14.354  10.183  0.00  0.00    -0.184 F 
ENDBRANCH  27  28
ENDBRANCH  11  27
BRANCH   1  31
HETATM   31  N   UNK N   1      21.065  17.757   2.736  0.00  0.00    -0.285 N 
HETATM   32  H   UNK N   1      21.548  17.472   1.927  0.00  0.00     0.178 HD
BRANCH  31  33
HETATM   33  S   UNK N   1      20.502  19.410   2.816  0.00  0.00     0.227 S 
HETATM   34  C   UNK N   1      21.091  20.612   1.594  0.00  0.00     0.186 C 
HETATM   35  O   UNK N   1      20.742  19.826   4.275  0.00  0.00    -0.206 OA
HETATM   36  O   UNK N   1      18.974  19.259   2.793  0.00  0.00    -0.206 OA
ENDBRANCH  31  33
ENDBRANCH   1  31
TORSDOF 6
ENDMDL
MODEL 2
REMARK VINA RESULT:      -7.6      4.220      7.854
REMARK  6 active torsions:
REMARK  status: ('A' for Active; 'I' for Inactive)
REMARK    1  A    between atoms: S_2  and  N_5 
REMARK    2  A    between atoms: N_5  and  C_6 
REMARK    3  A    between atoms: C_13  and  C_23 
REMARK    4  A    between atoms: C_16  and  O_19 
REMARK    5  A    between atoms: O_19  and  C_20 
REMARK       I    between atoms: C_23  and  N_25 
REMARK    6  A    between atoms: N_25  and  C_26 
ROOT
HETATM    1  C   UNK N   1      27.245  18.471   4.889  0.00  0.00     0.043 A 
HETATM    2  C   UNK N   1      27.585  19.701   4.274  0.00  0.00     0.033 A 
HETATM    3  C   UNK N   1      26.589  20.469   3.628  0.00  0.00     0.040 A 
HETATM    4  C   UNK N   1      25.289  19.958   3.598  0.00  0.00     0.087 A 
HETATM    5  C   UNK N   1      24.976  18.743   4.162  0.00  0.00     0.014 A 
HETATM    6  C   UNK N   1      25.933  18.000   4.823  0.00  0.00     0.045 A 
HETATM    7  C   UNK N   1      23.628  18.535   3.932  0.00  0.00     0.029 A 
HETATM    8  C   UNK N   1      22.717  17.480   4.228  0.00  0.00     0.046 A 
HETATM    9  C   UNK N   1      21.372  17.682   3.853  0.00  0.00     0.021 A 
HETATM   10  C   UNK N   1      20.949  18.871   3.232  0.00  0.00     0.041 A 
HETATM   11  C   UNK N   1      21.872  19.890   2.927  0.00  0.00     0.109 A 
HETATM   12  C   UNK N   1      23.202  19.680   3.272  0.00  0.00     0.121 A 
HETATM   13  O   UNK N   1      24.215  20.508   3.077  0.00  0.00    -0.306 OA
ENDROOT
BRANCH   8  14
HETATM   14  C   UNK N   1      23.071  16.180   4.881  0.00  0.00     0.257 C 
HETATM   15  O   UNK N   1      23.241  15.194   4.176  0.00  0.00    -0.267 OA
HETATM   16  N   UNK N   1      23.277  16.099   6.219  0.00  0.00    -0.320 N 
HETATM   17  H   UNK N   1      23.246  16.950   6.711  0.00  0.00     0.169 HD
BRANCH  16  18
HETATM   18  C   UNK N   1      23.535  14.933   7.007  0.00  0.00     0.081 A 
HETATM   19  C   UNK N   1      22.480  14.393   7.769  0.00  0.00     0.077 A 
HETATM   20  C   UNK N   1      22.682  13.239   8.522  0.00  0.00     0.113 A 
HETATM   21 Cl   UNK N   1      20.899  15.155   7.821  0.00  0.00    -0.080 Cl
HETATM   22  N   UNK N   1      23.889  12.622   8.521  0.00  0.00    -0.372 N 
HETATM   23  C   UNK N   1      24.926  13.099   7.786  0.00  0.00     0.113 A 
ATOM     24  HN  UNK N   1      24.022  11.782   9.085  1.00  0.00     0.164 HD
HETATM   25  C   UNK N   1      24.785  14.254   7.013  0.00  0.00     0.077 A 
HETATM   26 Cl   UNK N   1      26.164  14.722   6.029  0.00  0.00    -0.080 Cl
ENDBRANCH  16  18
ENDBRANCH   8  14
BRANCH  11  27
HETATM   27  O   UNK N   1      21.493  21.057   2.350  0.00  0.00    -0.287 OA
BRANCH  27  28
HETATM   28  C   UNK N   1      20.568  21.145   1.326  0.00  0.00     0.505 C 
HETATM   29  F   UNK N   1      20.966  20.427   0.213  0.00  0.00    -0.184 F 
HETATM   30  F   UNK N   1      20.390  22.471   0.979  0.00  0.00    -0.184 F 
ENDBRANCH  27  28
ENDBRANCH  11  27
BRANCH   1  31
HETATM   31  N   UNK N   1      28.194  17.673   5.569  0.00  0.00    -0.285 N 
HETATM   32  H   UNK N   1      28.653  16.967   5.059  0.00  0.00     0.178 HD
BRANCH  31  33
HETATM   33  S   UNK N   1      28.602  17.862   7.258  0.00  0.00     0.227 S 
HETATM   34  C   UNK N   1      30.317  17.621   7.793  0.00  0.00     0.186 C 
HETATM   35  O   UNK N   1      27.582  16.986   8.000  0.00  0.00    -0.206 OA
HETATM   36  O   UNK N   1      28.084  19.271   7.586  0.00  0.00    -0.206 OA
ENDBRANCH  31  33
ENDBRANCH   1  31
TORSDOF 6
ENDMDL
MODEL 3
REMARK VINA RESULT:      -7.4      6.754      9.616
REMARK  6 active torsions:
REMARK  status: ('A' for Active; 'I' for Inactive)
REMARK    1  A    between atoms: S_2  and  N_5 
REMARK    2  A    between atoms: N_5  and  C_6 
REMARK    3  A    between atoms: C_13  and  C_23 
REMARK    4  A    between atoms: C_16  and  O_19 
REMARK    5  A    between atoms: O_19  and  C_20 
REMARK       I    between atoms: C_23  and  N_25 
REMARK    6  A    between atoms: N_25  and  C_26 
ROOT
HETATM    1  C   UNK N   1      31.055  17.330   8.538  0.00  0.00     0.043 A 
HETATM    2  C   UNK N   1      30.453  18.440   9.181  0.00  0.00     0.033 A 
HETATM    3  C   UNK N   1      29.283  19.021   8.640  0.00  0.00     0.040 A 
HETATM    4  C   UNK N   1      28.775  18.483   7.455  0.00  0.00     0.087 A 
HETATM    5  C   UNK N   1      29.390  17.432   6.816  0.00  0.00     0.014 A 
HETATM    6  C   UNK N   1      30.514  16.835   7.351  0.00  0.00     0.045 A 
HETATM    7  C   UNK N   1      28.649  17.172   5.677  0.00  0.00     0.029 A 
HETATM    8  C   UNK N   1      28.769  16.248   4.598  0.00  0.00     0.046 A 
HETATM    9  C   UNK N   1      27.747  16.274   3.626  0.00  0.00     0.021 A 
HETATM   10  C   UNK N   1      26.656  17.157   3.725  0.00  0.00     0.041 A 
HETATM   11  C   UNK N   1      26.572  18.079   4.787  0.00  0.00     0.109 A 
HETATM   12  C   UNK N   1      27.593  18.071   5.731  0.00  0.00     0.121 A 
HETATM   13  O   UNK N   1      27.697  18.848   6.796  0.00  0.00    -0.306 OA
ENDROOT
BRANCH   8  14
HETATM   14  C   UNK N   1      29.890  15.274   4.405  0.00  0.00     0.257 C 
HETATM   15  O   UNK N   1      29.951  14.295   5.136  0.00  0.00    -0.267 OA
HETATM   16  N   UNK N   1      30.785  15.423   3.397  0.00  0.00    -0.320 N 
HETATM   17  H   UNK N   1      30.608  16.162   2.771  0.00  0.00     0.169 HD
BRANCH  16  18
HETATM   18  C   UNK N   1      31.953  14.642   3.126  0.00  0.00     0.081 A 
HETATM   19  C   UNK N   1      33.196  15.112   3.593  0.00  0.00     0.077 A 
HETATM   20  C   UNK N   1      34.350  14.363   3.379  0.00  0.00     0.113 A 
HETATM   21 Cl   UNK N   1      33.343  16.649   4.428  0.00  0.00    -0.080 Cl
HETATM   22  N   UNK N   1      34.287  13.175   2.728  0.00  0.00    -0.372 N 
HETATM   23  C   UNK N   1      33.106  12.677   2.279  0.00  0.00     0.113 A 
ATOM     24  HN  UNK N   1      35.144  12.643   2.573  1.00  0.00     0.164 HD
HETATM   25  C   UNK N   1      31.915  13.384   2.462  0.00  0.00     0.077 A 
HETATM   26 Cl   UNK N   1      30.437  12.598   1.925  0.00  0.00    -0.080 Cl
ENDBRANCH  16  18
ENDBRANCH   8  14
BRANCH  11  27
HETATM   27  O   UNK N   1      25.523  18.927   4.924  0.00  0.00    -0.287 OA
BRANCH  27  28
HETATM   28  C   UNK N   1      25.510  20.220   4.433  0.00  0.00     0.505 C 
HETATM   29  F   UNK N   1      26.287  20.345   3.296  0.00  0.00    -0.184 F 
HETATM   30  F   UNK N   1      25.974  21.086   5.404  0.00  0.00    -0.184 F 
ENDBRANCH  27  28
ENDBRANCH  11  27
BRANCH   1  31
HETATM   31  N   UNK N   1      32.212  16.694   9.046  0.00  0.00    -0.285 N 
HETATM   32  H   UNK N   1      32.099  16.051   9.783  0.00  0.00     0.178 HD
BRANCH  31  33
HETATM   33  S   UNK N   1      33.829  16.979   8.447  0.00  0.00     0.227 S 
HETATM   34  C   UNK N   1      34.684  15.670   7.530  0.00  0.00     0.186 C 
HETATM   35  O   UNK N   1      34.603  17.503   9.666  0.00  0.00    -0.206 OA
HETATM   36  O   UNK N   1      33.672  18.262   7.616  0.00  0.00    -0.206 OA
ENDBRANCH  31  33
ENDBRANCH   1  31
TORSDOF 6
ENDMDL
MODEL 4
REMARK VINA RESULT:      -7.4      6.884      9.323
REMARK  6 active torsions:
REMARK  status: ('A' for Active; 'I' for Inactive)
REMARK    1  A    between atoms: S_2  and  N_5 
REMARK    2  A    between atoms: N_5  and  C_6 
REMARK    3  A    between atoms: C_13  and  C_23 
REMARK    4  A    between atoms: C_16  and  O_19 
REMARK    5  A    between atoms: O_19  and  C_20 
REMARK       I    between atoms: C_23  and  N_25 
REMARK    6  A    between atoms: N_25  and  C_26 
ROOT
HETATM    1  C   UNK N   1      28.239  18.136   7.206  0.00  0.00     0.043 A 
HETATM    2  C   UNK N   1      28.318  18.645   8.526  0.00  0.00     0.033 A 
HETATM    3  C   UNK N   1      29.541  18.589   9.234  0.00  0.00     0.040 A 
HETATM    4  C   UNK N   1      30.636  17.997   8.600  0.00  0.00     0.087 A 
HETATM    5  C   UNK N   1      30.539  17.469   7.334  0.00  0.00     0.014 A 
HETATM    6  C   UNK N   1      29.360  17.546   6.620  0.00  0.00     0.045 A 
HETATM    7  C   UNK N   1      31.783  16.947   7.026  0.00  0.00     0.029 A 
HETATM    8  C   UNK N   1      32.324  16.253   5.905  0.00  0.00     0.046 A 
HETATM    9  C   UNK N   1      33.694  15.924   5.966  0.00  0.00     0.021 A 
HETATM   10  C   UNK N   1      34.490  16.278   7.070  0.00  0.00     0.041 A 
HETATM   11  C   UNK N   1      33.928  16.942   8.178  0.00  0.00     0.109 A 
HETATM   12  C   UNK N   1      32.571  17.242   8.130  0.00  0.00     0.121 A 
HETATM   13  O   UNK N   1      31.860  17.860   9.058  0.00  0.00    -0.306 OA
ENDROOT
BRANCH   8  14
HETATM   14  C   UNK N   1      31.559  15.832   4.688  0.00  0.00     0.257 C 
HETATM   15  O   UNK N   1      31.498  16.600   3.737  0.00  0.00    -0.267 OA
HETATM   16  N   UNK N   1      31.002  14.599   4.600  0.00  0.00    -0.320 N 
HETATM   17  H   UNK N   1      31.191  13.987   5.347  0.00  0.00     0.169 HD
BRANCH  16  18
HETATM   18  C   UNK N   1      30.175  14.072   3.557  0.00  0.00     0.081 A 
HETATM   19  C   UNK N   1      30.789  13.339   2.522  0.00  0.00     0.077 A 
HETATM   20  C   UNK N   1      30.013  12.780   1.509  0.00  0.00     0.113 A 
HETATM   21 Cl   UNK N   1      32.529  13.125   2.453  0.00  0.00    -0.080 Cl
HETATM   22  N   UNK N   1      28.666  12.929   1.514  0.00  0.00    -0.372 N 
HETATM   23  C   UNK N   1      28.034  13.612   2.504  0.00  0.00     0.113 A 
ATOM     24  HN  UNK N   1      28.114  12.521   0.759  1.00  0.00     0.164 HD
HETATM   25  C   UNK N   1      28.758  14.196   3.546  0.00  0.00     0.077 A 
HETATM   26 Cl   UNK N   1      27.827  14.972   4.819  0.00  0.00    -0.080 Cl
ENDBRANCH  16  18
ENDBRANCH   8  14
BRANCH  11  27
HETATM   27  O   UNK N   1      34.672  17.317   9.248  0.00  0.00    -0.287 OA
BRANCH  27  28
HETATM   28  C   UNK N   1      35.134  16.438  10.210  0.00  0.00     0.505 C 
HETATM   29  F   UNK N   1      34.296  15.346  10.353  0.00  0.00    -0.184 F 
HETATM   30  F   UNK N   1      35.243  17.095  11.420  0.00  0.00    -0.184 F 
ENDBRANCH  27  28
ENDBRANCH  11  27
BRANCH   1  31
HETATM   31  N   UNK N   1      27.050  18.186   6.442  0.00  0.00    -0.285 N 
HETATM   32  H   UNK N   1      26.407  17.447   6.541  0.00  0.00     0.178 HD
BRANCH  31  33
HETATM   33  S   UNK N   1      26.651  19.478   5.334  0.00  0.00     0.227 S 
HETATM   34  C   UNK N   1      27.019  21.192   5.795  0.00  0.00     0.186 C 
HETATM   35  O   UNK N   1      25.182  19.227   4.966  0.00  0.00    -0.206 OA
HETATM   36  O   UNK N   1      27.363  19.059   4.039  0.00  0.00    -0.206 OA
ENDBRANCH  31  33
ENDBRANCH   1  31
TORSDOF 6
ENDMDL
MODEL 5
REMARK VINA RESULT:      -7.3      6.887      9.342
REMARK  6 active torsions:
REMARK  status: ('A' for Active; 'I' for Inactive)
REMARK    1  A    between atoms: S_2  and  N_5 
REMARK    2  A    between atoms: N_5  and  C_6 
REMARK    3  A    between atoms: C_13  and  C_23 
REMARK    4  A    between atoms: C_16  and  O_19 
REMARK    5  A    between atoms: O_19  and  C_20 
REMARK       I    between atoms: C_23  and  N_25 
REMARK    6  A    between atoms: N_25  and  C_26 
ROOT
HETATM    1  C   UNK N   1      28.304  18.077   7.182  0.00  0.00     0.043 A 
HETATM    2  C   UNK N   1      28.358  18.647   8.478  0.00  0.00     0.033 A 
HETATM    3  C   UNK N   1      29.568  18.629   9.210  0.00  0.00     0.040 A 
HETATM    4  C   UNK N   1      30.675  18.012   8.623  0.00  0.00     0.087 A 
HETATM    5  C   UNK N   1      30.603  17.424   7.382  0.00  0.00     0.014 A 
HETATM    6  C   UNK N   1      29.437  17.464   6.644  0.00  0.00     0.045 A 
HETATM    7  C   UNK N   1      31.853  16.893   7.120  0.00  0.00     0.029 A 
HETATM    8  C   UNK N   1      32.416  16.149   6.043  0.00  0.00     0.046 A 
HETATM    9  C   UNK N   1      33.786  15.828   6.143  0.00  0.00     0.021 A 
HETATM   10  C   UNK N   1      34.561  16.236   7.244  0.00  0.00     0.041 A 
HETATM   11  C   UNK N   1      33.978  16.949   8.310  0.00  0.00     0.109 A 
HETATM   12  C   UNK N   1      32.621  17.242   8.223  0.00  0.00     0.121 A 
HETATM   13  O   UNK N   1      31.892  17.900   9.109  0.00  0.00    -0.306 OA
ENDROOT
BRANCH   8  14
HETATM   14  C   UNK N   1      31.674  15.670   4.834  0.00  0.00     0.257 C 
HETATM   15  O   UNK N   1      31.572  16.419   3.871  0.00  0.00    -0.267 OA
HETATM   16  N   UNK N   1      31.185  14.408   4.765  0.00  0.00    -0.320 N 
HETATM   17  H   UNK N   1      31.407  13.818   5.521  0.00  0.00     0.169 HD
BRANCH  16  18
HETATM   18  C   UNK N   1      30.386  13.821   3.731  0.00  0.00     0.081 A 
HETATM   19  C   UNK N   1      28.985  13.851   3.871  0.00  0.00     0.077 A 
HETATM   20  C   UNK N   1      28.173  13.322   2.870  0.00  0.00     0.113 A 
HETATM   21 Cl   UNK N   1      28.216  14.521   5.299  0.00  0.00    -0.080 Cl
HETATM   22  N   UNK N   1      28.722  12.784   1.753  0.00  0.00    -0.372 N 
HETATM   23  C   UNK N   1      30.067  12.753   1.572  0.00  0.00     0.113 A 
ATOM     24  HN  UNK N   1      28.113  12.393   1.035  1.00  0.00     0.164 HD
HETATM   25  C   UNK N   1      30.933  13.266   2.542  0.00  0.00     0.077 A 
HETATM   26 Cl   UNK N   1      32.648  13.259   2.155  0.00  0.00    -0.080 Cl
ENDBRANCH  16  18
ENDBRANCH   8  14
BRANCH  11  27
HETATM   27  O   UNK N   1      34.701  17.376   9.374  0.00  0.00    -0.287 OA
BRANCH  27  28
HETATM   28  C   UNK N   1      35.063  16.565  10.434  0.00  0.00     0.505 C 
HETATM   29  F   UNK N   1      36.310  15.997  10.243  0.00  0.00    -0.184 F 
HETATM   30  F   UNK N   1      34.122  15.565  10.590  0.00  0.00    -0.184 F 
ENDBRANCH  27  28
ENDBRANCH  11  27
BRANCH   1  31
HETATM   31  N   UNK N   1      27.129  18.088   6.395  0.00  0.00    -0.285 N 
HETATM   32  H   UNK N   1      26.528  17.309   6.454  0.00  0.00     0.178 HD
BRANCH  31  33
HETATM   33  S   UNK N   1      26.677  19.395   5.327  0.00  0.00     0.227 S 
HETATM   34  C   UNK N   1      26.936  21.109   5.856  0.00  0.00     0.186 C 
HETATM   35  O   UNK N   1      25.232  19.073   4.918  0.00  0.00    -0.206 OA
HETATM   36  O   UNK N   1      27.436  19.065   4.033  0.00  0.00    -0.206 OA
ENDBRANCH  31  33
ENDBRANCH   1  31
TORSDOF 6
ENDMDL
MODEL 6
REMARK VINA RESULT:      -7.2      7.690     10.127
REMARK  6 active torsions:
REMARK  status: ('A' for Active; 'I' for Inactive)
REMARK    1  A    between atoms: S_2  and  N_5 
REMARK    2  A    between atoms: N_5  and  C_6 
REMARK    3  A    between atoms: C_13  and  C_23 
REMARK    4  A    between atoms: C_16  and  O_19 
REMARK    5  A    between atoms: O_19  and  C_20 
REMARK       I    between atoms: C_23  and  N_25 
REMARK    6  A    between atoms: N_25  and  C_26 
ROOT
HETATM    1  C   UNK N   1      30.863  14.930   3.903  0.00  0.00     0.043 A 
HETATM    2  C   UNK N   1      29.546  15.033   3.390  0.00  0.00     0.033 A 
HETATM    3  C   UNK N   1      28.594  15.850   4.043  0.00  0.00     0.040 A 
HETATM    4  C   UNK N   1      28.993  16.514   5.206  0.00  0.00     0.087 A 
HETATM    5  C   UNK N   1      30.261  16.376   5.719  0.00  0.00     0.014 A 
HETATM    6  C   UNK N   1      31.208  15.606   5.073  0.00  0.00     0.045 A 
HETATM    7  C   UNK N   1      30.308  17.138   6.873  0.00  0.00     0.029 A 
HETATM    8  C   UNK N   1      31.301  17.390   7.862  0.00  0.00     0.046 A 
HETATM    9  C   UNK N   1      30.956  18.294   8.890  0.00  0.00     0.021 A 
HETATM   10  C   UNK N   1      29.700  18.925   8.926  0.00  0.00     0.041 A 
HETATM   11  C   UNK N   1      28.724  18.641   7.951  0.00  0.00     0.109 A 
HETATM   12  C   UNK N   1      29.054  17.730   6.954  0.00  0.00     0.121 A 
HETATM   13  O   UNK N   1      28.287  17.334   5.952  0.00  0.00    -0.306 OA
ENDROOT
BRANCH   8  14
HETATM   14  C   UNK N   1      32.662  16.766   7.910  0.00  0.00     0.257 C 
HETATM   15  O   UNK N   1      33.566  17.276   7.261  0.00  0.00    -0.267 OA
HETATM   16  N   UNK N   1      32.920  15.703   8.710  0.00  0.00    -0.320 N 
HETATM   17  H   UNK N   1      32.184  15.418   9.298  0.00  0.00     0.169 HD
BRANCH  16  18
HETATM   18  C   UNK N   1      34.127  14.941   8.810  0.00  0.00     0.081 A 
HETATM   19  C   UNK N   1      34.241  13.765   8.043  0.00  0.00     0.077 A 
HETATM   20  C   UNK N   1      35.414  13.014   8.087  0.00  0.00     0.113 A 
HETATM   21 Cl   UNK N   1      32.923  13.191   7.036  0.00  0.00    -0.080 Cl
HETATM   22  N   UNK N   1      36.456  13.413   8.859  0.00  0.00    -0.372 N 
HETATM   23  C   UNK N   1      36.392  14.550   9.598  0.00  0.00     0.113 A 
ATOM     24  HN  UNK N   1      37.304  12.847   8.885  1.00  0.00     0.164 HD
HETATM   25  C   UNK N   1      35.242  15.342   9.597  0.00  0.00     0.077 A 
HETATM   26 Cl   UNK N   1      35.311  16.839  10.515  0.00  0.00    -0.080 Cl
ENDBRANCH  16  18
ENDBRANCH   8  14
BRANCH  11  27
HETATM   27  O   UNK N   1      27.512  19.250   7.945  0.00  0.00    -0.287 OA
BRANCH  27  28
HETATM   28  C   UNK N   1      27.160  20.253   7.061  0.00  0.00     0.505 C 
HETATM   29  F   UNK N   1      28.269  20.920   6.574  0.00  0.00    -0.184 F 
HETATM   30  F   UNK N   1      26.324  21.152   7.695  0.00  0.00    -0.184 F 
ENDBRANCH  27  28
ENDBRANCH  11  27
BRANCH   1  31
HETATM   31  N   UNK N   1      31.862  14.147   3.279  0.00  0.00    -0.285 N 
HETATM   32  H   UNK N   1      31.621  13.237   2.990  0.00  0.00     0.178 HD
BRANCH  31  33
HETATM   33  S   UNK N   1      33.497  14.693   2.991  0.00  0.00     0.227 S 
HETATM   34  C   UNK N   1      34.750  14.477   4.282  0.00  0.00     0.186 C 
HETATM   35  O   UNK N   1      33.337  16.141   2.505  0.00  0.00    -0.206 OA
HETATM   36  O   UNK N   1      33.878  13.978   1.686  0.00  0.00    -0.206 OA
ENDBRANCH  31  33
ENDBRANCH   1  31
TORSDOF 6
ENDMDL
MODEL 7
REMARK VINA RESULT:      -7.2      4.564      7.541
REMARK  6 active torsions:
REMARK  status: ('A' for Active; 'I' for Inactive)
REMARK    1  A    between atoms: S_2  and  N_5 
REMARK    2  A    between atoms: N_5  and  C_6 
REMARK    3  A    between atoms: C_13  and  C_23 
REMARK    4  A    between atoms: C_16  and  O_19 
REMARK    5  A    between atoms: O_19  and  C_20 
REMARK       I    between atoms: C_23  and  N_25 
REMARK    6  A    between atoms: N_25  and  C_26 
ROOT
HETATM    1  C   UNK N   1      27.986  18.599   4.365  0.00  0.00     0.043 A 
HETATM    2  C   UNK N   1      27.821  20.004   4.435  0.00  0.00     0.033 A 
HETATM    3  C   UNK N   1      26.527  20.570   4.365  0.00  0.00     0.040 A 
HETATM    4  C   UNK N   1      25.444  19.703   4.197  0.00  0.00     0.087 A 
HETATM    5  C   UNK N   1      25.617  18.343   4.088  0.00  0.00     0.014 A 
HETATM    6  C   UNK N   1      26.872  17.776   4.188  0.00  0.00     0.045 A 
HETATM    7  C   UNK N   1      24.359  17.796   3.908  0.00  0.00     0.029 A 
HETATM    8  C   UNK N   1      23.865  16.475   3.706  0.00  0.00     0.046 A 
HETATM    9  C   UNK N   1      22.465  16.330   3.610  0.00  0.00     0.021 A 
HETATM   10  C   UNK N   1      21.600  17.433   3.725  0.00  0.00     0.041 A 
HETATM   11  C   UNK N   1      22.112  18.733   3.899  0.00  0.00     0.109 A 
HETATM   12  C   UNK N   1      23.493  18.879   3.967  0.00  0.00     0.121 A 
HETATM   13  O   UNK N   1      24.167  20.006   4.130  0.00  0.00    -0.306 OA
ENDROOT
BRANCH   8  14
HETATM   14  C   UNK N   1      24.705  15.242   3.570  0.00  0.00     0.257 C 
HETATM   15  O   UNK N   1      24.987  14.608   4.578  0.00  0.00    -0.267 OA
HETATM   16  N   UNK N   1      25.089  14.784   2.353  0.00  0.00    -0.320 N 
HETATM   17  H   UNK N   1      24.727  15.269   1.577  0.00  0.00     0.169 HD
BRANCH  16  18
HETATM   18  C   UNK N   1      25.953  13.684   2.052  0.00  0.00     0.081 A 
HETATM   19  C   UNK N   1      25.371  12.466   1.648  0.00  0.00     0.077 A 
HETATM   20  C   UNK N   1      26.180  11.383   1.312  0.00  0.00     0.113 A 
HETATM   21 Cl   UNK N   1      23.629  12.258   1.577  0.00  0.00    -0.080 Cl
HETATM   22  N   UNK N   1      27.530  11.494   1.362  0.00  0.00    -0.372 N 
HETATM   23  C   UNK N   1      28.131  12.655   1.728  0.00  0.00     0.113 A 
ATOM     24  HN  UNK N   1      28.107  10.688   1.121  1.00  0.00     0.164 HD
HETATM   25  C   UNK N   1      27.372  13.775   2.078  0.00  0.00     0.077 A 
HETATM   26 Cl   UNK N   1      28.258  15.249   2.441  0.00  0.00    -0.080 Cl
ENDBRANCH  16  18
ENDBRANCH   8  14
BRANCH  11  27
HETATM   27  O   UNK N   1      21.304  19.814   4.036  0.00  0.00    -0.287 OA
BRANCH  27  28
HETATM   28  C   UNK N   1      20.585  20.373   2.996  0.00  0.00     0.505 C 
HETATM   29  F   UNK N   1      19.386  19.714   2.789  0.00  0.00    -0.184 F 
HETATM   30  F   UNK N   1      21.338  20.329   1.839  0.00  0.00    -0.184 F 
ENDBRANCH  27  28
ENDBRANCH  11  27
BRANCH   1  31
HETATM   31  N   UNK N   1      29.253  17.977   4.454  0.00  0.00    -0.285 N 
HETATM   32  H   UNK N   1      29.826  17.982   3.653  0.00  0.00     0.178 HD
BRANCH  31  33
HETATM   33  S   UNK N   1      29.864  17.201   5.896  0.00  0.00     0.227 S 
HETATM   34  C   UNK N   1      31.654  17.105   6.165  0.00  0.00     0.186 C 
HETATM   35  O   UNK N   1      29.148  15.843   5.932  0.00  0.00    -0.206 OA
HETATM   36  O   UNK N   1      29.145  17.951   7.027  0.00  0.00    -0.206 OA
ENDBRANCH  31  33
ENDBRANCH   1  31
TORSDOF 6
ENDMDL
MODEL 8
REMARK VINA RESULT:      -6.9      8.203     10.842
REMARK  6 active torsions:
REMARK  status: ('A' for Active; 'I' for Inactive)
REMARK    1  A    between atoms: S_2  and  N_5 
REMARK    2  A    between atoms: N_5  and  C_6 
REMARK    3  A    between atoms: C_13  and  C_23 
REMARK    4  A    between atoms: C_16  and  O_19 
REMARK    5  A    between atoms: O_19  and  C_20 
REMARK       I    between atoms: C_23  and  N_25 
REMARK    6  A    between atoms: N_25  and  C_26 
ROOT
HETATM    1  C   UNK N   1      32.007  13.985   4.128  0.00  0.00     0.043 A 
HETATM    2  C   UNK N   1      30.684  13.876   3.632  0.00  0.00     0.033 A 
HETATM    3  C   UNK N   1      29.650  14.658   4.196  0.00  0.00     0.040 A 
HETATM    4  C   UNK N   1      29.978  15.505   5.258  0.00  0.00     0.087 A 
HETATM    5  C   UNK N   1      31.257  15.574   5.760  0.00  0.00     0.014 A 
HETATM    6  C   UNK N   1      32.281  14.838   5.197  0.00  0.00     0.045 A 
HETATM    7  C   UNK N   1      31.224  16.476   6.808  0.00  0.00     0.029 A 
HETATM    8  C   UNK N   1      32.188  16.961   7.738  0.00  0.00     0.046 A 
HETATM    9  C   UNK N   1      31.749  17.943   8.650  0.00  0.00     0.021 A 
HETATM   10  C   UNK N   1      30.430  18.432   8.632  0.00  0.00     0.041 A 
HETATM   11  C   UNK N   1      29.487  17.920   7.720  0.00  0.00     0.109 A 
HETATM   12  C   UNK N   1      29.912  16.932   6.838  0.00  0.00     0.121 A 
HETATM   13  O   UNK N   1      29.188  16.329   5.910  0.00  0.00    -0.306 OA
ENDROOT
BRANCH   8  14
HETATM   14  C   UNK N   1      33.610  16.503   7.836  0.00  0.00     0.257 C 
HETATM   15  O   UNK N   1      34.459  17.067   7.158  0.00  0.00    -0.267 OA
HETATM   16  N   UNK N   1      33.978  15.533   8.710  0.00  0.00    -0.320 N 
HETATM   17  H   UNK N   1      33.271  15.206   9.312  0.00  0.00     0.169 HD
BRANCH  16  18
HETATM   18  C   UNK N   1      35.263  14.924   8.870  0.00  0.00     0.081 A 
HETATM   19  C   UNK N   1      36.028  15.265  10.002  0.00  0.00     0.077 A 
HETATM   20  C   UNK N   1      37.269  14.667  10.211  0.00  0.00     0.113 A 
HETATM   21 Cl   UNK N   1      35.473  16.458  11.163  0.00  0.00    -0.080 Cl
HETATM   22  N   UNK N   1      37.745  13.748   9.335  0.00  0.00    -0.372 N 
HETATM   23  C   UNK N   1      37.029  13.377   8.242  0.00  0.00     0.113 A 
ATOM     24  HN  UNK N   1      38.659  13.326   9.499  1.00  0.00     0.164 HD
HETATM   25  C   UNK N   1      35.780  13.944   7.978  0.00  0.00     0.077 A 
HETATM   26 Cl   UNK N   1      34.904  13.317   6.588  0.00  0.00    -0.080 Cl
ENDBRANCH  16  18
ENDBRANCH   8  14
BRANCH  11  27
HETATM   27  O   UNK N   1      28.215  18.384   7.661  0.00  0.00    -0.287 OA
BRANCH  27  28
HETATM   28  C   UNK N   1      27.820  19.450   6.873  0.00  0.00     0.505 C 
HETATM   29  F   UNK N   1      27.066  20.364   7.586  0.00  0.00    -0.184 F 
HETATM   30  F   UNK N   1      27.083  18.982   5.802  0.00  0.00    -0.184 F 
ENDBRANCH  27  28
ENDBRANCH  11  27
BRANCH   1  31
HETATM   31  N   UNK N   1      33.084  13.245   3.588  0.00  0.00    -0.285 N 
HETATM   32  H   UNK N   1      33.269  12.355   3.968  0.00  0.00     0.178 HD
BRANCH  31  33
HETATM   33  S   UNK N   1      34.108  13.810   2.289  0.00  0.00     0.227 S 
HETATM   34  C   UNK N   1      35.880  13.432   2.321  0.00  0.00     0.186 C 
HETATM   35  O   UNK N   1      33.786  15.307   2.171  0.00  0.00    -0.206 OA
HETATM   36  O   UNK N   1      33.418  13.254   1.034  0.00  0.00    -0.206 OA
ENDBRANCH  31  33
ENDBRANCH   1  31
TORSDOF 6
ENDMDL
MODEL 9
REMARK VINA RESULT:      -6.8     11.338     13.558
REMARK  6 active torsions:
REMARK  status: ('A' for Active; 'I' for Inactive)
REMARK    1  A    between atoms: S_2  and  N_5 
REMARK    2  A    between atoms: N_5  and  C_6 
REMARK    3  A    between atoms: C_13  and  C_23 
REMARK    4  A    between atoms: C_16  and  O_19 
REMARK    5  A    between atoms: O_19  and  C_20 
REMARK       I    between atoms: C_23  and  N_25 
REMARK    6  A    between atoms: N_25  and  C_26 
ROOT
HETATM    1  C   UNK N   1      34.062  10.096   8.970  0.00  0.00     0.043 A 
HETATM    2  C   UNK N   1      34.658   9.094   9.774  0.00  0.00     0.033 A 
HETATM    3  C   UNK N   1      35.344   9.451  10.958  0.00  0.00     0.040 A 
HETATM    4  C   UNK N   1      35.431  10.809  11.276  0.00  0.00     0.087 A 
HETATM    5  C   UNK N   1      34.885  11.778  10.468  0.00  0.00     0.014 A 
HETATM    6  C   UNK N   1      34.185  11.439   9.327  0.00  0.00     0.045 A 
HETATM    7  C   UNK N   1      35.173  12.996  11.058  0.00  0.00     0.029 A 
HETATM    8  C   UNK N   1      34.920  14.355  10.715  0.00  0.00     0.046 A 
HETATM    9  C   UNK N   1      35.352  15.332  11.637  0.00  0.00     0.021 A 
HETATM   10  C   UNK N   1      35.986  14.980  12.842  0.00  0.00     0.041 A 
HETATM   11  C   UNK N   1      36.249  13.630  13.149  0.00  0.00     0.109 A 
HETATM   12  C   UNK N   1      35.847  12.669  12.227  0.00  0.00     0.121 A 
HETATM   13  O   UNK N   1      35.996  11.359  12.328  0.00  0.00    -0.306 OA
ENDROOT
BRANCH   8  14
HETATM   14  C   UNK N   1      34.256  14.828   9.458  0.00  0.00     0.257 C 
HETATM   15  O   UNK N   1      33.034  14.812   9.398  0.00  0.00    -0.267 OA
HETATM   16  N   UNK N   1      34.978  15.334   8.429  0.00  0.00    -0.320 N 
HETATM   17  H   UNK N   1      35.945  15.433   8.589  0.00  0.00     0.169 HD
BRANCH  16  18
HETATM   18  C   UNK N   1      34.516  15.746   7.139  0.00  0.00     0.081 A 
HETATM   19  C   UNK N   1      34.496  14.795   6.100  0.00  0.00     0.077 A 
HETATM   20  C   UNK N   1      34.020  15.148   4.840  0.00  0.00     0.113 A 
HETATM   21 Cl   UNK N   1      35.084  13.158   6.340  0.00  0.00    -0.080 Cl
HETATM   22  N   UNK N   1      33.565  16.404   4.604  0.00  0.00    -0.372 N 
HETATM   23  C   UNK N   1      33.550  17.344   5.583  0.00  0.00     0.113 A 
ATOM     24  HN  UNK N   1      33.228  16.647   3.673  1.00  0.00     0.164 HD
HETATM   25  C   UNK N   1      34.017  17.050   6.867  0.00  0.00     0.077 A 
HETATM   26 Cl   UNK N   1      33.860  18.316   8.076  0.00  0.00    -0.080 Cl
ENDBRANCH  16  18
ENDBRANCH   8  14
BRANCH  11  27
HETATM   27  O   UNK N   1      36.838  13.256  14.311  0.00  0.00    -0.287 OA
BRANCH  27  28
HETATM   28  C   UNK N   1      36.228  13.352  15.548  0.00  0.00     0.505 C 
HETATM   29  F   UNK N   1      34.850  13.404  15.438  0.00  0.00    -0.184 F 
HETATM   30  F   UNK N   1      36.680  14.485  16.197  0.00  0.00    -0.184 F 
ENDBRANCH  27  28
ENDBRANCH  11  27
BRANCH   1  31
HETATM   31  N   UNK N   1      33.344   9.795   7.789  0.00  0.00    -0.285 N 
HETATM   32  H   UNK N   1      33.690  10.147   6.936  0.00  0.00     0.178 HD
BRANCH  31  33
HETATM   33  S   UNK N   1      31.882   8.838   7.749  0.00  0.00     0.227 S 
HETATM   34  C   UNK N   1      32.001   7.030   7.702  0.00  0.00     0.186 C 
HETATM   35  O   UNK N   1      31.059   9.445   6.603  0.00  0.00    -0.206 OA
HETATM   36  O   UNK N   1      31.105   9.338   8.976  0.00  0.00    -0.206 OA
ENDBRANCH  31  33
ENDBRANCH   1  31
TORSDOF 6
ENDMDL
