REMARK  5 active torsions:
REMARK  status: ('A' for Active; 'I' for Inactive)
REMARK    1  A    between atoms: C_4  and  N_8 
REMARK    2  A    between atoms: N_8  and  C_9 
REMARK    3  A    between atoms: C_18  and  C_21 
REMARK    4  A    between atoms: C_21  and  C_22 
REMARK    5  A    between atoms: C_21  and  O_29 
ROOT
HETATM    1  C   UNK N   1       1.874  -0.094   0.000  0.00  0.00     0.120 A 
HETATM    2  C   UNK N   1       3.034  -0.912   0.000  0.00  0.00     0.035 A 
HETATM    3  C   UNK N   1       4.336  -0.408   0.000  0.00  0.00     0.017 A 
HETATM    4  C   UNK N   1       5.440  -1.263   0.000  0.00  0.00     0.001 A 
HETATM    5  C   UNK N   1       5.254  -2.646   0.000  0.00  0.00     0.002 A 
HETATM    6  C   UNK N   1       3.963  -3.175   0.000  0.00  0.00     0.030 A 
HETATM    7  C   UNK N   1       2.853  -2.324   0.000  0.00  0.00     0.047 A 
HETATM    8  N   UNK N   1       1.602  -2.856  -0.000  0.00  0.00    -0.343 N 
ATOM      9  HN  UNK N   1       1.483  -3.869  -0.000  1.00  0.00     0.167 HD
HETATM   10  C   UNK N   1       0.511  -2.050  -0.000  0.00  0.00     0.117 A 
HETATM   11  N   UNK N   1       0.672  -0.708  -0.000  0.00  0.00    -0.329 N 
ATOM     12  HN  UNK N   1      -0.164  -0.125  -0.000  1.00  0.00     0.168 HD
ENDROOT
BRANCH   1  13
HETATM   13  N   UNK N   1       1.832   1.336   0.000  0.00  0.00    -0.327 N 
HETATM   14  H   UNK N   1       0.907   1.672   0.000  0.00  0.00     0.169 HD
BRANCH  13  15
HETATM   15  C   UNK N   1       2.773   2.400   0.000  0.00  0.00     0.123 A 
HETATM   16  C   UNK N   1       4.149   2.338  -0.000  0.00  0.00     0.075 A 
HETATM   17  C   UNK N   1       4.532   3.661  -0.000  0.00  0.00     0.025 A 
HETATM   18  C   UNK N   1       5.930   4.161  -0.000  0.00  0.00     0.070 C 
HETATM   19  N   UNK N   1       3.449   4.456   0.000  0.00  0.00    -0.304 N 
HETATM   20  N   UNK N   1       2.376   3.686   0.000  0.00  0.00    -0.285 N 
HETATM   21  H   UNK N   1       3.454   5.440   0.000  0.00  0.00     0.186 HD
ATOM     22  HN  UNK N   1       1.409   4.012   0.000  1.00  0.00     0.188 HD
ENDBRANCH  13  15
ENDBRANCH   1  13
BRANCH  10  23
HETATM   23  C   UNK N   1      -0.883  -2.618  -0.000  0.00  0.00     0.218 C 
BRANCH  23  24
HETATM   24  C   UNK N   1      -2.130  -1.758  -0.000  0.00  0.00    -0.022 A 
HETATM   25  C   UNK N   1      -3.404  -2.344   0.000  0.00  0.00     0.013 A 
HETATM   26  C   UNK N   1      -4.550  -1.537   0.000  0.00  0.00     0.043 A 
HETATM   27  C   UNK N   1      -4.428  -0.142   0.000  0.00  0.00     0.116 A 
HETATM   28  C   UNK N   1      -3.166   0.446  -0.000  0.00  0.00     0.043 A 
HETATM   29  F   UNK N   1      -5.533   0.641   0.000  0.00  0.00    -0.206 F 
HETATM   30  C   UNK N   1      -2.029  -0.357  -0.000  0.00  0.00     0.013 A 
ENDBRANCH  23  24
BRANCH  23  31
HETATM   31  O   UNK N   1      -1.029  -4.008  -0.000  0.00  0.00    -0.383 OA
HETATM   32  H   UNK N   1      -1.916  -4.403   0.000  0.00  0.00     0.211 HD
ENDBRANCH  23  31
ENDBRANCH  10  23
TORSDOF 5
