REMARK  8 active torsions:
REMARK  status: ('A' for Active; 'I' for Inactive)
REMARK    1  A    between atoms: C_9  and  O_12 
REMARK    2  A    between atoms: O_12  and  C_13 
REMARK    3  A    between atoms: C_13  and  C_14 
REMARK    4  A    between atoms: C_14  and  C_15 
REMARK    5  A    between atoms: C_15  and  N_16 
REMARK       I    between atoms: N_16  and  C_17 
REMARK       I    between atoms: C_17  and  N_19 
REMARK    6  A    between atoms: C_20  and  N_19 
REMARK    7  A    between atoms: N_19  and  C_27 
REMARK    8  A    between atoms: C_25  and  O_26 
ROOT
HETATM    1  C   UNK N   1       2.864   3.178  -1.601  0.00  0.00     0.126 C 
ENDROOT
BRANCH   1   2
HETATM    2  C   UNK N   1       1.585   3.951  -1.247  0.00  0.00     0.046 C 
BRANCH   2   3
HETATM    3  C   UNK N   1       1.419   4.246   0.254  0.00  0.00     0.177 C 
BRANCH   3   4
HETATM    4  O   UNK N   1       1.266   3.069   0.961  0.00  0.00    -0.351 OA
BRANCH   4   5
HETATM    5  C   UNK N   1       0.205   2.242   0.806  0.00  0.00     0.069 A 
HETATM    6  C   UNK N   1      -1.011   2.708   0.276  0.00  0.00     0.050 A 
HETATM    7  C   UNK N   1      -2.070   1.824   0.076  0.00  0.00    -0.007 A 
HETATM    8  C   UNK N   1      -1.917   0.456   0.389  0.00  0.00     0.045 A 
HETATM    9  C   UNK N   1      -3.281   2.278  -0.444  0.00  0.00     0.019 A 
HETATM   10  N   UNK N   1      -2.943  -0.408   0.168  0.00  0.00    -0.323 N 
HETATM   11  C   UNK N   1      -0.713  -0.004   0.925  0.00  0.00     0.033 A 
HETATM   12  C   UNK N   1      -4.138   0.024  -0.353  0.00  0.00     0.245 A 
HETATM   13  H   UNK N   1      -2.827  -1.362   0.384  0.00  0.00     0.169 HD
HETATM   14  C   UNK N   1      -4.323   1.375  -0.658  0.00  0.00     0.075 A 
HETATM   15  O   UNK N   1      -5.038  -0.771  -0.548  0.00  0.00    -0.268 OA
HETATM   16  C   UNK N   1       0.342   0.889   1.141  0.00  0.00     0.039 A 
ENDBRANCH   4   5
ENDBRANCH   3   4
ENDBRANCH   2   3
ENDBRANCH   1   2
BRANCH   1  17
HETATM   17  N   UNK N   1       3.028   2.039  -0.728  0.00  0.00    -0.343 N 
HETATM   18  C   UNK N   1       4.127   1.634  -0.017  0.00  0.00     0.319 C 
HETATM   19  O   UNK N   1       3.986   0.647   0.683  0.00  0.00    -0.247 OA
HETATM   20  N   UNK N   1       5.364   2.270  -0.054  0.00  0.00    -0.322 N 
HETATM   21  H   UNK N   1       2.231   1.469  -0.630  0.00  0.00     0.164 HD
BRANCH  20  22
HETATM   22  C   UNK N   1       6.534   1.630   0.624  0.00  0.00     0.118 C 
HETATM   23  C   UNK N   1       7.826   2.496   0.568  0.00  0.00     0.028 C 
HETATM   24  C   UNK N   1       9.133   1.702   0.482  0.00  0.00     0.002 C 
HETATM   25  C   UNK N   1       9.151   0.816  -0.773  0.00  0.00     0.003 C 
HETATM   26  C   UNK N   1       7.804   0.142  -1.070  0.00  0.00     0.034 C 
HETATM   27  C   UNK N   1       6.915   0.184   0.161  0.00  0.00     0.141 C 
BRANCH  27  28
HETATM   28  O   UNK N   1       5.899  -0.765   0.105  0.00  0.00    -0.394 OA
HETATM   29  H   UNK N   1       4.972  -0.483   0.067  0.00  0.00     0.210 HD
ENDBRANCH  27  28
ENDBRANCH  20  22
BRANCH  20  30
HETATM   30  C   UNK N   1       5.522   3.572  -0.722  0.00  0.00     0.089 A 
HETATM   31  C   UNK N   1       4.657   4.632  -0.015  0.00  0.00     0.027 A 
HETATM   32  C   UNK N   1       6.126   4.653   0.191  0.00  0.00     0.027 A 
ENDBRANCH  20  30
ENDBRANCH   1  17
TORSDOF 8
