MODEL 1
REMARK VINA RESULT:      -6.6      0.000      0.000
REMARK  10 active torsions:
REMARK  status: ('A' for Active; 'I' for Inactive)
REMARK    1  A    between atoms: C_1  and  O_28 
REMARK    2  A    between atoms: C_8  and  C_11 
REMARK    3  A    between atoms: C_11  and  C_12 
REMARK    4  A    between atoms: C_12  and  C_13 
REMARK    5  A    between atoms: C_14  and  C_15 
REMARK    6  A    between atoms: C_15  and  C_16 
REMARK    7  A    between atoms: C_16  and  C_17 
REMARK    8  A    between atoms: C_18  and  C_19 
REMARK    9  A    between atoms: C_19  and  C_20 
REMARK   10  A    between atoms: C_20  and  C_21 
ROOT
HETATM    1  C   UNK N   1      27.234  21.825  -8.388  0.00  0.00     0.030 C 
ENDROOT
BRANCH   1   2
HETATM    2  C   UNK N   1      26.632  22.429  -7.123  0.00  0.00     0.042 C 
BRANCH   2   3
HETATM    3  C   UNK N   1      26.898  23.928  -6.949  0.00  0.00     0.065 C 
HETATM    4  O   UNK N   1      26.908  24.196  -5.588  0.00  0.00    -0.340 OA
HETATM    5  C   UNK N   1      26.542  25.386  -5.044  0.00  0.00     0.076 A 
HETATM    6  C   UNK N   1      26.658  25.576  -3.664  0.00  0.00     0.040 A 
HETATM    7  C   UNK N   1      26.051  26.429  -5.854  0.00  0.00    -0.022 A 
HETATM    8  C   UNK N   1      26.294  26.798  -3.092  0.00  0.00     0.039 A 
HETATM    9  C   UNK N   1      25.813  27.835  -3.899  0.00  0.00     0.066 A 
HETATM   10  C   UNK N   1      25.693  27.650  -5.279  0.00  0.00     0.046 A 
HETATM   11  C   UNK N   1      25.913  26.236  -7.329  0.00  0.00     0.044 C 
HETATM   12  C   UNK N   1      25.806  24.751  -7.656  0.00  0.00     0.043 C 
HETATM   13  C   UNK N   1      28.267  24.267  -7.526  0.00  0.00     0.046 C 
BRANCH   9  14
HETATM   14  O   UNK N   1      25.468  29.008  -3.348  0.00  0.00    -0.361 OA
HETATM   15  H   UNK N   1      26.069  29.727  -3.355  0.00  0.00     0.217 HD
ENDBRANCH   9  14
ENDBRANCH   2   3
ENDBRANCH   1   2
BRANCH   1  16
HETATM   16  C   UNK N   1      27.688  20.425  -8.120  0.00  0.00    -0.024 C 
HETATM   17  C   UNK N   1      28.975  20.086  -8.059  0.00  0.00    -0.087 C 
HETATM   18  C   UNK N   1      29.323  18.665  -7.765  0.00  0.00     0.043 C 
BRANCH  17  19
HETATM   19  C   UNK N   1      30.053  21.113  -8.228  0.00  0.00     0.037 C 
BRANCH  19  20
HETATM   20  C   UNK N   1      31.078  21.032  -7.115  0.00  0.00     0.031 C 
BRANCH  20  21
HETATM   21  C   UNK N   1      30.449  21.644  -5.908  0.00  0.00    -0.024 C 
HETATM   22  C   UNK N   1      30.709  21.214  -4.668  0.00  0.00    -0.087 C 
HETATM   23  C   UNK N   1      31.651  20.082  -4.409  0.00  0.00     0.043 C 
BRANCH  22  24
HETATM   24  C   UNK N   1      29.972  21.802  -3.517  0.00  0.00     0.037 C 
BRANCH  24  25
HETATM   25  C   UNK N   1      30.759  22.921  -2.857  0.00  0.00     0.031 C 
BRANCH  25  26
HETATM   26  C   UNK N   1      30.179  24.240  -3.264  0.00  0.00    -0.024 C 
HETATM   27  C   UNK N   1      30.785  25.075  -4.120  0.00  0.00    -0.091 C 
HETATM   28  C   UNK N   1      30.140  26.374  -4.448  0.00  0.00     0.042 C 
HETATM   29  C   UNK N   1      32.099  24.739  -4.754  0.00  0.00     0.042 C 
ENDBRANCH  25  26
ENDBRANCH  24  25
ENDBRANCH  22  24
ENDBRANCH  20  21
ENDBRANCH  19  20
ENDBRANCH  17  19
ENDBRANCH   1  16
TORSDOF 10
ENDMDL
MODEL 2
REMARK VINA RESULT:      -6.5      1.797      4.621
REMARK  10 active torsions:
REMARK  status: ('A' for Active; 'I' for Inactive)
REMARK    1  A    between atoms: C_1  and  O_28 
REMARK    2  A    between atoms: C_8  and  C_11 
REMARK    3  A    between atoms: C_11  and  C_12 
REMARK    4  A    between atoms: C_12  and  C_13 
REMARK    5  A    between atoms: C_14  and  C_15 
REMARK    6  A    between atoms: C_15  and  C_16 
REMARK    7  A    between atoms: C_16  and  C_17 
REMARK    8  A    between atoms: C_18  and  C_19 
REMARK    9  A    between atoms: C_19  and  C_20 
REMARK   10  A    between atoms: C_20  and  C_21 
ROOT
HETATM    1  C   UNK N   1      26.826  26.510  -7.790  0.00  0.00     0.030 C 
ENDROOT
BRANCH   1   2
HETATM    2  C   UNK N   1      25.766  26.666  -6.704  0.00  0.00     0.042 C 
BRANCH   2   3
HETATM    3  C   UNK N   1      26.228  26.249  -5.304  0.00  0.00     0.065 C 
HETATM    4  O   UNK N   1      27.614  26.300  -5.287  0.00  0.00    -0.340 OA
HETATM    5  C   UNK N   1      28.396  25.507  -4.508  0.00  0.00     0.076 A 
HETATM    6  C   UNK N   1      29.781  25.690  -4.514  0.00  0.00     0.040 A 
HETATM    7  C   UNK N   1      27.825  24.508  -3.695  0.00  0.00    -0.022 A 
HETATM    8  C   UNK N   1      30.596  24.888  -3.710  0.00  0.00     0.039 A 
HETATM    9  C   UNK N   1      30.028  23.900  -2.899  0.00  0.00     0.066 A 
HETATM   10  C   UNK N   1      28.643  23.711  -2.891  0.00  0.00     0.046 A 
HETATM   11  C   UNK N   1      26.346  24.295  -3.687  0.00  0.00     0.044 C 
HETATM   12  C   UNK N   1      25.733  24.828  -4.978  0.00  0.00     0.043 C 
HETATM   13  C   UNK N   1      25.687  27.240  -4.280  0.00  0.00     0.046 C 
BRANCH   9  14
HETATM   14  O   UNK N   1      30.812  23.134  -2.126  0.00  0.00    -0.361 OA
HETATM   15  H   UNK N   1      31.706  23.373  -1.978  0.00  0.00     0.217 HD
ENDBRANCH   9  14
ENDBRANCH   2   3
ENDBRANCH   1   2
BRANCH   1  16
HETATM   16  C   UNK N   1      26.396  25.474  -8.779  0.00  0.00    -0.024 C 
HETATM   17  C   UNK N   1      26.951  24.264  -8.841  0.00  0.00    -0.087 C 
HETATM   18  C   UNK N   1      26.435  23.295  -9.851  0.00  0.00     0.043 C 
BRANCH  17  19
HETATM   19  C   UNK N   1      28.033  23.861  -7.885  0.00  0.00     0.037 C 
BRANCH  19  20
HETATM   20  C   UNK N   1      27.732  22.527  -7.235  0.00  0.00     0.031 C 
BRANCH  20  21
HETATM   21  C   UNK N   1      28.793  22.300  -6.210  0.00  0.00    -0.024 C 
HETATM   22  C   UNK N   1      29.659  21.283  -6.285  0.00  0.00    -0.087 C 
HETATM   23  C   UNK N   1      29.617  20.297  -7.410  0.00  0.00     0.043 C 
BRANCH  22  24
HETATM   24  C   UNK N   1      30.626  21.057  -5.178  0.00  0.00     0.037 C 
BRANCH  24  25
HETATM   25  C   UNK N   1      32.063  21.110  -5.666  0.00  0.00     0.031 C 
BRANCH  25  26
HETATM   26  C   UNK N   1      32.741  19.813  -5.348  0.00  0.00    -0.024 C 
HETATM   27  C   UNK N   1      33.541  19.646  -4.284  0.00  0.00    -0.091 C 
HETATM   28  C   UNK N   1      34.188  18.325  -4.063  0.00  0.00     0.042 C 
HETATM   29  C   UNK N   1      33.807  20.754  -3.313  0.00  0.00     0.042 C 
ENDBRANCH  25  26
ENDBRANCH  24  25
ENDBRANCH  22  24
ENDBRANCH  20  21
ENDBRANCH  19  20
ENDBRANCH  17  19
ENDBRANCH   1  16
TORSDOF 10
ENDMDL
MODEL 3
REMARK VINA RESULT:      -6.4     11.095     12.340
REMARK  10 active torsions:
REMARK  status: ('A' for Active; 'I' for Inactive)
REMARK    1  A    between atoms: C_1  and  O_28 
REMARK    2  A    between atoms: C_8  and  C_11 
REMARK    3  A    between atoms: C_11  and  C_12 
REMARK    4  A    between atoms: C_12  and  C_13 
REMARK    5  A    between atoms: C_14  and  C_15 
REMARK    6  A    between atoms: C_15  and  C_16 
REMARK    7  A    between atoms: C_16  and  C_17 
REMARK    8  A    between atoms: C_18  and  C_19 
REMARK    9  A    between atoms: C_19  and  C_20 
REMARK   10  A    between atoms: C_20  and  C_21 
ROOT
HETATM    1  C   UNK N   1      20.792  14.215   0.930  0.00  0.00     0.030 C 
ENDROOT
BRANCH   1   2
HETATM    2  C   UNK N   1      20.376  14.075   2.391  0.00  0.00     0.042 C 
BRANCH   2   3
HETATM    3  C   UNK N   1      20.447  15.376   3.198  0.00  0.00     0.065 C 
HETATM    4  O   UNK N   1      20.152  16.421   2.335  0.00  0.00    -0.340 OA
HETATM    5  C   UNK N   1      20.643  17.680   2.469  0.00  0.00     0.076 A 
HETATM    6  C   UNK N   1      20.226  18.679   1.585  0.00  0.00     0.040 A 
HETATM    7  C   UNK N   1      21.564  17.990   3.489  0.00  0.00    -0.022 A 
HETATM    8  C   UNK N   1      20.716  19.981   1.718  0.00  0.00     0.039 A 
HETATM    9  C   UNK N   1      21.625  20.289   2.735  0.00  0.00     0.066 A 
HETATM   10  C   UNK N   1      22.048  19.294   3.620  0.00  0.00     0.046 A 
HETATM   11  C   UNK N   1      22.027  16.930   4.435  0.00  0.00     0.044 C 
HETATM   12  C   UNK N   1      21.850  15.553   3.806  0.00  0.00     0.043 C 
HETATM   13  C   UNK N   1      19.398  15.341   4.303  0.00  0.00     0.046 C 
BRANCH   9  14
HETATM   14  O   UNK N   1      22.091  21.540   2.862  0.00  0.00    -0.361 OA
HETATM   15  H   UNK N   1      21.700  22.129   3.478  0.00  0.00     0.217 HD
ENDBRANCH   9  14
ENDBRANCH   2   3
ENDBRANCH   1   2
BRANCH   1  16
HETATM   16  C   UNK N   1      21.561  13.006   0.499  0.00  0.00    -0.024 C 
HETATM   17  C   UNK N   1      22.885  13.006   0.363  0.00  0.00    -0.087 C 
HETATM   18  C   UNK N   1      23.559  11.741  -0.052  0.00  0.00     0.043 C 
BRANCH  17  19
HETATM   19  C   UNK N   1      23.693  14.232   0.669  0.00  0.00     0.037 C 
BRANCH  19  20
HETATM   20  C   UNK N   1      24.919  13.898   1.494  0.00  0.00     0.031 C 
BRANCH  20  21
HETATM   21  C   UNK N   1      25.243  15.117   2.292  0.00  0.00    -0.024 C 
HETATM   22  C   UNK N   1      26.499  15.541   2.477  0.00  0.00    -0.087 C 
HETATM   23  C   UNK N   1      27.668  14.814   1.893  0.00  0.00     0.043 C 
BRANCH  22  24
HETATM   24  C   UNK N   1      26.759  16.705   3.366  0.00  0.00     0.037 C 
BRANCH  24  25
HETATM   25  C   UNK N   1      25.567  17.645   3.425  0.00  0.00     0.031 C 
BRANCH  25  26
HETATM   26  C   UNK N   1      25.755  18.610   4.555  0.00  0.00    -0.024 C 
HETATM   27  C   UNK N   1      26.038  19.908   4.371  0.00  0.00    -0.091 C 
HETATM   28  C   UNK N   1      26.228  20.785   5.557  0.00  0.00     0.042 C 
HETATM   29  C   UNK N   1      26.173  20.501   3.003  0.00  0.00     0.042 C 
ENDBRANCH  25  26
ENDBRANCH  24  25
ENDBRANCH  22  24
ENDBRANCH  20  21
ENDBRANCH  19  20
ENDBRANCH  17  19
ENDBRANCH   1  16
TORSDOF 10
ENDMDL
MODEL 4
REMARK VINA RESULT:      -6.3      2.369      7.676
REMARK  10 active torsions:
REMARK  status: ('A' for Active; 'I' for Inactive)
REMARK    1  A    between atoms: C_1  and  O_28 
REMARK    2  A    between atoms: C_8  and  C_11 
REMARK    3  A    between atoms: C_11  and  C_12 
REMARK    4  A    between atoms: C_12  and  C_13 
REMARK    5  A    between atoms: C_14  and  C_15 
REMARK    6  A    between atoms: C_15  and  C_16 
REMARK    7  A    between atoms: C_16  and  C_17 
REMARK    8  A    between atoms: C_18  and  C_19 
REMARK    9  A    between atoms: C_19  and  C_20 
REMARK   10  A    between atoms: C_20  and  C_21 
ROOT
HETATM    1  C   UNK N   1      30.053  26.788  -4.143  0.00  0.00     0.030 C 
ENDROOT
BRANCH   1   2
HETATM    2  C   UNK N   1      28.669  26.178  -3.954  0.00  0.00     0.042 C 
BRANCH   2   3
HETATM    3  C   UNK N   1      28.626  24.651  -4.085  0.00  0.00     0.065 C 
HETATM    4  O   UNK N   1      29.652  24.135  -3.309  0.00  0.00    -0.340 OA
HETATM    5  C   UNK N   1      30.301  22.973  -3.580  0.00  0.00     0.076 A 
HETATM    6  C   UNK N   1      31.273  22.505  -2.692  0.00  0.00     0.040 A 
HETATM    7  C   UNK N   1      30.002  22.235  -4.743  0.00  0.00    -0.022 A 
HETATM    8  C   UNK N   1      31.942  21.305  -2.954  0.00  0.00     0.039 A 
HETATM    9  C   UNK N   1      31.639  20.571  -4.105  0.00  0.00     0.066 A 
HETATM   10  C   UNK N   1      30.670  21.035  -4.999  0.00  0.00     0.046 A 
HETATM   11  C   UNK N   1      28.973  22.729  -5.706  0.00  0.00     0.044 C 
HETATM   12  C   UNK N   1      28.797  24.236  -5.558  0.00  0.00     0.043 C 
HETATM   13  C   UNK N   1      27.296  24.137  -3.547  0.00  0.00     0.046 C 
BRANCH   9  14
HETATM   14  O   UNK N   1      32.280  19.418  -4.353  0.00  0.00    -0.361 OA
HETATM   15  H   UNK N   1      32.784  19.318  -5.137  0.00  0.00     0.217 HD
ENDBRANCH   9  14
ENDBRANCH   2   3
ENDBRANCH   1   2
BRANCH   1  16
HETATM   16  C   UNK N   1      30.156  28.069  -3.377  0.00  0.00    -0.024 C 
HETATM   17  C   UNK N   1      29.962  29.261  -3.938  0.00  0.00    -0.087 C 
HETATM   18  C   UNK N   1      30.066  30.478  -3.081  0.00  0.00     0.043 C 
BRANCH  17  19
HETATM   19  C   UNK N   1      29.594  29.382  -5.386  0.00  0.00     0.037 C 
BRANCH  19  20
HETATM   20  C   UNK N   1      28.252  30.063  -5.564  0.00  0.00     0.031 C 
BRANCH  20  21
HETATM   21  C   UNK N   1      27.254  28.984  -5.822  0.00  0.00    -0.024 C 
HETATM   22  C   UNK N   1      26.345  28.614  -4.912  0.00  0.00    -0.087 C 
HETATM   23  C   UNK N   1      26.272  29.262  -3.566  0.00  0.00     0.043 C 
BRANCH  22  24
HETATM   24  C   UNK N   1      25.446  27.464  -5.197  0.00  0.00     0.037 C 
BRANCH  24  25
HETATM   25  C   UNK N   1      25.690  26.887  -6.580  0.00  0.00     0.031 C 
BRANCH  25  26
HETATM   26  C   UNK N   1      25.632  25.392  -6.510  0.00  0.00    -0.024 C 
HETATM   27  C   UNK N   1      25.767  24.602  -7.584  0.00  0.00    -0.091 C 
HETATM   28  C   UNK N   1      25.674  23.127  -7.417  0.00  0.00     0.042 C 
HETATM   29  C   UNK N   1      26.004  25.162  -8.952  0.00  0.00     0.042 C 
ENDBRANCH  25  26
ENDBRANCH  24  25
ENDBRANCH  22  24
ENDBRANCH  20  21
ENDBRANCH  19  20
ENDBRANCH  17  19
ENDBRANCH   1  16
TORSDOF 10
ENDMDL
MODEL 5
REMARK VINA RESULT:      -6.3      2.419      7.512
REMARK  10 active torsions:
REMARK  status: ('A' for Active; 'I' for Inactive)
REMARK    1  A    between atoms: C_1  and  O_28 
REMARK    2  A    between atoms: C_8  and  C_11 
REMARK    3  A    between atoms: C_11  and  C_12 
REMARK    4  A    between atoms: C_12  and  C_13 
REMARK    5  A    between atoms: C_14  and  C_15 
REMARK    6  A    between atoms: C_15  and  C_16 
REMARK    7  A    between atoms: C_16  and  C_17 
REMARK    8  A    between atoms: C_18  and  C_19 
REMARK    9  A    between atoms: C_19  and  C_20 
REMARK   10  A    between atoms: C_20  and  C_21 
ROOT
HETATM    1  C   UNK N   1      29.376  25.336  -4.669  0.00  0.00     0.030 C 
ENDROOT
BRANCH   1   2
HETATM    2  C   UNK N   1      30.264  24.870  -3.520  0.00  0.00     0.042 C 
BRANCH   2   3
HETATM    3  C   UNK N   1      30.365  23.348  -3.373  0.00  0.00     0.065 C 
HETATM    4  O   UNK N   1      31.701  23.035  -3.169  0.00  0.00    -0.340 OA
HETATM    5  C   UNK N   1      32.275  21.865  -3.553  0.00  0.00     0.076 A 
HETATM    6  C   UNK N   1      33.613  21.619  -3.234  0.00  0.00     0.040 A 
HETATM    7  C   UNK N   1      31.537  20.899  -4.265  0.00  0.00    -0.022 A 
HETATM    8  C   UNK N   1      34.215  20.416  -3.614  0.00  0.00     0.039 A 
HETATM    9  C   UNK N   1      33.478  19.456  -4.315  0.00  0.00     0.066 A 
HETATM   10  C   UNK N   1      32.141  19.697  -4.640  0.00  0.00     0.046 A 
HETATM   11  C   UNK N   1      30.109  21.153  -4.621  0.00  0.00     0.044 C 
HETATM   12  C   UNK N   1      29.831  22.652  -4.638  0.00  0.00     0.043 C 
HETATM   13  C   UNK N   1      29.565  22.906  -2.154  0.00  0.00     0.046 C 
BRANCH   9  14
HETATM   14  O   UNK N   1      34.057  18.300  -4.677  0.00  0.00    -0.361 OA
HETATM   15  H   UNK N   1      33.815  17.883  -5.481  0.00  0.00     0.217 HD
ENDBRANCH   9  14
ENDBRANCH   2   3
ENDBRANCH   1   2
BRANCH   1  16
HETATM   16  C   UNK N   1      28.359  26.311  -4.167  0.00  0.00    -0.024 C 
HETATM   17  C   UNK N   1      27.133  25.946  -3.796  0.00  0.00    -0.087 C 
HETATM   18  C   UNK N   1      26.200  26.994  -3.289  0.00  0.00     0.043 C 
BRANCH  17  19
HETATM   19  C   UNK N   1      26.711  24.508  -3.835  0.00  0.00     0.037 C 
BRANCH  19  20
HETATM   20  C   UNK N   1      25.725  24.247  -4.954  0.00  0.00     0.031 C 
BRANCH  20  21
HETATM   21  C   UNK N   1      26.467  23.508  -6.017  0.00  0.00    -0.024 C 
HETATM   22  C   UNK N   1      26.802  24.071  -7.184  0.00  0.00    -0.087 C 
HETATM   23  C   UNK N   1      26.448  25.489  -7.502  0.00  0.00     0.043 C 
BRANCH  22  24
HETATM   24  C   UNK N   1      27.452  23.248  -8.238  0.00  0.00     0.037 C 
BRANCH  24  25
HETATM   25  C   UNK N   1      27.869  21.886  -7.711  0.00  0.00     0.031 C 
BRANCH  25  26
HETATM   26  C   UNK N   1      29.281  21.607  -8.126  0.00  0.00    -0.024 C 
HETATM   27  C   UNK N   1      29.817  20.378  -8.123  0.00  0.00    -0.091 C 
HETATM   28  C   UNK N   1      31.236  20.203  -8.532  0.00  0.00     0.042 C 
HETATM   29  C   UNK N   1      29.028  19.173  -7.713  0.00  0.00     0.042 C 
ENDBRANCH  25  26
ENDBRANCH  24  25
ENDBRANCH  22  24
ENDBRANCH  20  21
ENDBRANCH  19  20
ENDBRANCH  17  19
ENDBRANCH   1  16
TORSDOF 10
ENDMDL
MODEL 6
REMARK VINA RESULT:      -6.2      1.852      6.399
REMARK  10 active torsions:
REMARK  status: ('A' for Active; 'I' for Inactive)
REMARK    1  A    between atoms: C_1  and  O_28 
REMARK    2  A    between atoms: C_8  and  C_11 
REMARK    3  A    between atoms: C_11  and  C_12 
REMARK    4  A    between atoms: C_12  and  C_13 
REMARK    5  A    between atoms: C_14  and  C_15 
REMARK    6  A    between atoms: C_15  and  C_16 
REMARK    7  A    between atoms: C_16  and  C_17 
REMARK    8  A    between atoms: C_18  and  C_19 
REMARK    9  A    between atoms: C_19  and  C_20 
REMARK   10  A    between atoms: C_20  and  C_21 
ROOT
HETATM    1  C   UNK N   1      24.963  27.353  -5.616  0.00  0.00     0.030 C 
ENDROOT
BRANCH   1   2
HETATM    2  C   UNK N   1      25.078  25.838  -5.475  0.00  0.00     0.042 C 
BRANCH   2   3
HETATM    3  C   UNK N   1      26.147  25.198  -6.367  0.00  0.00     0.065 C 
HETATM    4  O   UNK N   1      25.624  24.014  -6.864  0.00  0.00    -0.340 OA
HETATM    5  C   UNK N   1      26.372  22.926  -7.184  0.00  0.00     0.076 A 
HETATM    6  C   UNK N   1      25.753  21.807  -7.746  0.00  0.00     0.040 A 
HETATM    7  C   UNK N   1      27.763  22.916  -6.958  0.00  0.00    -0.022 A 
HETATM    8  C   UNK N   1      26.512  20.684  -8.089  0.00  0.00     0.039 A 
HETATM    9  C   UNK N   1      27.894  20.679  -7.870  0.00  0.00     0.066 A 
HETATM   10  C   UNK N   1      28.518  21.794  -7.305  0.00  0.00     0.046 A 
HETATM   11  C   UNK N   1      28.436  24.102  -6.348  0.00  0.00     0.044 C 
HETATM   12  C   UNK N   1      27.428  24.929  -5.557  0.00  0.00     0.043 C 
HETATM   13  C   UNK N   1      26.451  26.129  -7.535  0.00  0.00     0.046 C 
BRANCH   9  14
HETATM   14  O   UNK N   1      28.621  19.602  -8.203  0.00  0.00    -0.361 OA
HETATM   15  H   UNK N   1      28.196  18.809  -8.468  0.00  0.00     0.217 HD
ENDBRANCH   9  14
ENDBRANCH   2   3
ENDBRANCH   1   2
BRANCH   1  16
HETATM   16  C   UNK N   1      25.464  28.021  -4.375  0.00  0.00    -0.024 C 
HETATM   17  C   UNK N   1      26.562  28.774  -4.357  0.00  0.00    -0.087 C 
HETATM   18  C   UNK N   1      26.965  29.415  -3.071  0.00  0.00     0.043 C 
BRANCH  17  19
HETATM   19  C   UNK N   1      27.350  29.020  -5.608  0.00  0.00     0.037 C 
BRANCH  19  20
HETATM   20  C   UNK N   1      28.830  29.161  -5.314  0.00  0.00     0.031 C 
BRANCH  20  21
HETATM   21  C   UNK N   1      29.387  27.778  -5.247  0.00  0.00    -0.024 C 
HETATM   22  C   UNK N   1      30.533  27.495  -4.615  0.00  0.00    -0.087 C 
HETATM   23  C   UNK N   1      31.336  28.556  -3.933  0.00  0.00     0.043 C 
BRANCH  22  24
HETATM   24  C   UNK N   1      31.082  26.114  -4.672  0.00  0.00     0.037 C 
BRANCH  24  25
HETATM   25  C   UNK N   1      30.688  25.301  -3.451  0.00  0.00     0.031 C 
BRANCH  25  26
HETATM   26  C   UNK N   1      30.941  23.850  -3.722  0.00  0.00    -0.024 C 
HETATM   27  C   UNK N   1      30.151  22.869  -3.260  0.00  0.00    -0.091 C 
HETATM   28  C   UNK N   1      30.496  21.455  -3.564  0.00  0.00     0.042 C 
HETATM   29  C   UNK N   1      28.931  23.157  -2.442  0.00  0.00     0.042 C 
ENDBRANCH  25  26
ENDBRANCH  24  25
ENDBRANCH  22  24
ENDBRANCH  20  21
ENDBRANCH  19  20
ENDBRANCH  17  19
ENDBRANCH   1  16
TORSDOF 10
ENDMDL
MODEL 7
REMARK VINA RESULT:      -6.2      2.773      6.307
REMARK  10 active torsions:
REMARK  status: ('A' for Active; 'I' for Inactive)
REMARK    1  A    between atoms: C_1  and  O_28 
REMARK    2  A    between atoms: C_8  and  C_11 
REMARK    3  A    between atoms: C_11  and  C_12 
REMARK    4  A    between atoms: C_12  and  C_13 
REMARK    5  A    between atoms: C_14  and  C_15 
REMARK    6  A    between atoms: C_15  and  C_16 
REMARK    7  A    between atoms: C_16  and  C_17 
REMARK    8  A    between atoms: C_18  and  C_19 
REMARK    9  A    between atoms: C_19  and  C_20 
REMARK   10  A    between atoms: C_20  and  C_21 
ROOT
HETATM    1  C   UNK N   1      25.677  27.274  -5.655  0.00  0.00     0.030 C 
ENDROOT
BRANCH   1   2
HETATM    2  C   UNK N   1      25.278  25.922  -5.073  0.00  0.00     0.042 C 
BRANCH   2   3
HETATM    3  C   UNK N   1      26.359  24.842  -5.180  0.00  0.00     0.065 C 
HETATM    4  O   UNK N   1      26.643  24.404  -3.895  0.00  0.00    -0.340 OA
HETATM    5  C   UNK N   1      27.853  23.928  -3.504  0.00  0.00     0.076 A 
HETATM    6  C   UNK N   1      28.014  23.444  -2.203  0.00  0.00     0.040 A 
HETATM    7  C   UNK N   1      28.945  23.913  -4.395  0.00  0.00    -0.022 A 
HETATM    8  C   UNK N   1      29.251  22.942  -1.789  0.00  0.00     0.039 A 
HETATM    9  C   UNK N   1      30.332  22.923  -2.677  0.00  0.00     0.066 A 
HETATM   10  C   UNK N   1      30.178  23.407  -3.979  0.00  0.00     0.046 A 
HETATM   11  C   UNK N   1      28.790  24.436  -5.786  0.00  0.00     0.044 C 
HETATM   12  C   UNK N   1      27.621  25.413  -5.851  0.00  0.00     0.043 C 
HETATM   13  C   UNK N   1      25.819  23.669  -5.990  0.00  0.00     0.046 C 
BRANCH   9  14
HETATM   14  O   UNK N   1      31.518  22.437  -2.279  0.00  0.00    -0.361 OA
HETATM   15  H   UNK N   1      31.682  21.515  -2.304  0.00  0.00     0.217 HD
ENDBRANCH   9  14
ENDBRANCH   2   3
ENDBRANCH   1   2
BRANCH   1  16
HETATM   16  C   UNK N   1      25.750  28.298  -4.567  0.00  0.00    -0.024 C 
HETATM   17  C   UNK N   1      26.659  29.271  -4.554  0.00  0.00    -0.087 C 
HETATM   18  C   UNK N   1      26.633  30.256  -3.434  0.00  0.00     0.043 C 
BRANCH  17  19
HETATM   19  C   UNK N   1      27.655  29.412  -5.666  0.00  0.00     0.037 C 
BRANCH  19  20
HETATM   20  C   UNK N   1      29.029  29.774  -5.140  0.00  0.00     0.031 C 
BRANCH  20  21
HETATM   21  C   UNK N   1      29.773  28.492  -4.964  0.00  0.00    -0.024 C 
HETATM   22  C   UNK N   1      30.285  28.115  -3.786  0.00  0.00    -0.087 C 
HETATM   23  C   UNK N   1      30.146  28.962  -2.561  0.00  0.00     0.043 C 
BRANCH  22  24
HETATM   24  C   UNK N   1      31.101  26.874  -3.703  0.00  0.00     0.037 C 
BRANCH  24  25
HETATM   25  C   UNK N   1      31.710  26.510  -5.045  0.00  0.00     0.031 C 
BRANCH  25  26
HETATM   26  C   UNK N   1      33.199  26.651  -4.966  0.00  0.00    -0.024 C 
HETATM   27  C   UNK N   1      34.043  25.621  -5.128  0.00  0.00    -0.091 C 
HETATM   28  C   UNK N   1      35.507  25.856  -5.010  0.00  0.00     0.042 C 
HETATM   29  C   UNK N   1      33.553  24.237  -5.419  0.00  0.00     0.042 C 
ENDBRANCH  25  26
ENDBRANCH  24  25
ENDBRANCH  22  24
ENDBRANCH  20  21
ENDBRANCH  19  20
ENDBRANCH  17  19
ENDBRANCH   1  16
TORSDOF 10
ENDMDL
MODEL 8
REMARK VINA RESULT:      -6.1      2.280      5.844
REMARK  10 active torsions:
REMARK  status: ('A' for Active; 'I' for Inactive)
REMARK    1  A    between atoms: C_1  and  O_28 
REMARK    2  A    between atoms: C_8  and  C_11 
REMARK    3  A    between atoms: C_11  and  C_12 
REMARK    4  A    between atoms: C_12  and  C_13 
REMARK    5  A    between atoms: C_14  and  C_15 
REMARK    6  A    between atoms: C_15  and  C_16 
REMARK    7  A    between atoms: C_16  and  C_17 
REMARK    8  A    between atoms: C_18  and  C_19 
REMARK    9  A    between atoms: C_19  and  C_20 
REMARK   10  A    between atoms: C_20  and  C_21 
ROOT
HETATM    1  C   UNK N   1      25.221  26.198  -5.521  0.00  0.00     0.030 C 
ENDROOT
BRANCH   1   2
HETATM    2  C   UNK N   1      25.684  25.304  -6.667  0.00  0.00     0.042 C 
BRANCH   2   3
HETATM    3  C   UNK N   1      26.619  24.166  -6.245  0.00  0.00     0.065 C 
HETATM    4  O   UNK N   1      26.707  24.187  -4.861  0.00  0.00    -0.340 OA
HETATM    5  C   UNK N   1      27.797  23.777  -4.162  0.00  0.00     0.076 A 
HETATM    6  C   UNK N   1      27.756  23.771  -2.765  0.00  0.00     0.040 A 
HETATM    7  C   UNK N   1      28.964  23.354  -4.828  0.00  0.00    -0.022 A 
HETATM    8  C   UNK N   1      28.867  23.342  -2.033  0.00  0.00     0.039 A 
HETATM    9  C   UNK N   1      30.022  22.917  -2.697  0.00  0.00     0.066 A 
HETATM   10  C   UNK N   1      30.071  22.922  -4.093  0.00  0.00     0.046 A 
HETATM   11  C   UNK N   1      29.026  23.364  -6.321  0.00  0.00     0.044 C 
HETATM   12  C   UNK N   1      28.008  24.351  -6.881  0.00  0.00     0.043 C 
HETATM   13  C   UNK N   1      26.017  22.834  -6.678  0.00  0.00     0.046 C 
BRANCH   9  14
HETATM   14  O   UNK N   1      31.086  22.502  -1.992  0.00  0.00    -0.361 OA
HETATM   15  H   UNK N   1      31.920  22.913  -2.112  0.00  0.00     0.217 HD
ENDBRANCH   9  14
ENDBRANCH   2   3
ENDBRANCH   1   2
BRANCH   1  16
HETATM   16  C   UNK N   1      25.756  27.583  -5.705  0.00  0.00    -0.024 C 
HETATM   17  C   UNK N   1      26.617  28.142  -4.856  0.00  0.00    -0.087 C 
HETATM   18  C   UNK N   1      27.107  29.521  -5.142  0.00  0.00     0.043 C 
BRANCH  17  19
HETATM   19  C   UNK N   1      27.128  27.386  -3.666  0.00  0.00     0.037 C 
BRANCH  19  20
HETATM   20  C   UNK N   1      28.499  27.873  -3.245  0.00  0.00     0.031 C 
BRANCH  20  21
HETATM   21  C   UNK N   1      29.491  26.925  -3.833  0.00  0.00    -0.024 C 
HETATM   22  C   UNK N   1      30.808  27.050  -3.635  0.00  0.00    -0.087 C 
HETATM   23  C   UNK N   1      31.377  28.157  -2.806  0.00  0.00     0.043 C 
BRANCH  22  24
HETATM   24  C   UNK N   1      31.747  26.130  -4.333  0.00  0.00     0.037 C 
BRANCH  24  25
HETATM   25  C   UNK N   1      31.453  26.049  -5.821  0.00  0.00     0.031 C 
BRANCH  25  26
HETATM   26  C   UNK N   1      31.838  27.342  -6.471  0.00  0.00    -0.024 C 
HETATM   27  C   UNK N   1      30.977  28.097  -7.168  0.00  0.00    -0.091 C 
HETATM   28  C   UNK N   1      31.458  29.356  -7.796  0.00  0.00     0.042 C 
HETATM   29  C   UNK N   1      29.541  27.706  -7.336  0.00  0.00     0.042 C 
ENDBRANCH  25  26
ENDBRANCH  24  25
ENDBRANCH  22  24
ENDBRANCH  20  21
ENDBRANCH  19  20
ENDBRANCH  17  19
ENDBRANCH   1  16
TORSDOF 10
ENDMDL
MODEL 9
REMARK VINA RESULT:      -6.0     11.508     14.531
REMARK  10 active torsions:
REMARK  status: ('A' for Active; 'I' for Inactive)
REMARK    1  A    between atoms: C_1  and  O_28 
REMARK    2  A    between atoms: C_8  and  C_11 
REMARK    3  A    between atoms: C_11  and  C_12 
REMARK    4  A    between atoms: C_12  and  C_13 
REMARK    5  A    between atoms: C_14  and  C_15 
REMARK    6  A    between atoms: C_15  and  C_16 
REMARK    7  A    between atoms: C_16  and  C_17 
REMARK    8  A    between atoms: C_18  and  C_19 
REMARK    9  A    between atoms: C_19  and  C_20 
REMARK   10  A    between atoms: C_20  and  C_21 
ROOT
HETATM    1  C   UNK N   1      28.843  15.384   4.155  0.00  0.00     0.030 C 
ENDROOT
BRANCH   1   2
HETATM    2  C   UNK N   1      30.078  15.242   3.272  0.00  0.00     0.042 C 
BRANCH   2   3
HETATM    3  C   UNK N   1      31.392  15.648   3.949  0.00  0.00     0.065 C 
HETATM    4  O   UNK N   1      31.363  15.160   5.246  0.00  0.00    -0.340 OA
HETATM    5  C   UNK N   1      31.998  15.746   6.294  0.00  0.00     0.076 A 
HETATM    6  C   UNK N   1      31.965  15.131   7.549  0.00  0.00     0.040 A 
HETATM    7  C   UNK N   1      32.691  16.962   6.129  0.00  0.00    -0.022 A 
HETATM    8  C   UNK N   1      32.623  15.718   8.634  0.00  0.00     0.039 A 
HETATM    9  C   UNK N   1      33.315  16.922   8.467  0.00  0.00     0.066 A 
HETATM   10  C   UNK N   1      33.349  17.543   7.215  0.00  0.00     0.046 A 
HETATM   11  C   UNK N   1      32.725  17.635   4.796  0.00  0.00     0.044 C 
HETATM   12  C   UNK N   1      31.542  17.180   3.948  0.00  0.00     0.043 C 
HETATM   13  C   UNK N   1      32.559  15.007   3.208  0.00  0.00     0.046 C 
BRANCH   9  14
HETATM   14  O   UNK N   1      33.948  17.482   9.509  0.00  0.00    -0.361 OA
HETATM   15  H   UNK N   1      33.538  17.506  10.352  0.00  0.00     0.217 HD
ENDBRANCH   9  14
ENDBRANCH   2   3
ENDBRANCH   1   2
BRANCH   1  16
HETATM   16  C   UNK N   1      27.678  14.694   3.520  0.00  0.00    -0.024 C 
HETATM   17  C   UNK N   1      26.680  15.355   2.937  0.00  0.00    -0.087 C 
HETATM   18  C   UNK N   1      25.574  14.570   2.313  0.00  0.00     0.043 C 
BRANCH  17  19
HETATM   19  C   UNK N   1      26.687  16.852   2.858  0.00  0.00     0.037 C 
BRANCH  19  20
HETATM   20  C   UNK N   1      25.693  17.465   3.823  0.00  0.00     0.031 C 
BRANCH  20  21
HETATM   21  C   UNK N   1      26.445  17.780   5.072  0.00  0.00    -0.024 C 
HETATM   22  C   UNK N   1      27.139  18.914   5.225  0.00  0.00    -0.087 C 
HETATM   23  C   UNK N   1      27.208  19.946   4.145  0.00  0.00     0.043 C 
BRANCH  22  24
HETATM   24  C   UNK N   1      27.949  19.120   6.457  0.00  0.00     0.037 C 
BRANCH  24  25
HETATM   25  C   UNK N   1      29.014  18.049   6.616  0.00  0.00     0.031 C 
BRANCH  25  26
HETATM   26  C   UNK N   1      28.800  17.328   7.911  0.00  0.00    -0.024 C 
HETATM   27  C   UNK N   1      29.409  17.676   9.053  0.00  0.00    -0.091 C 
HETATM   28  C   UNK N   1      29.149  16.884  10.285  0.00  0.00     0.042 C 
HETATM   29  C   UNK N   1      30.351  18.837   9.125  0.00  0.00     0.042 C 
ENDBRANCH  25  26
ENDBRANCH  24  25
ENDBRANCH  22  24
ENDBRANCH  20  21
ENDBRANCH  19  20
ENDBRANCH  17  19
ENDBRANCH   1  16
TORSDOF 10
ENDMDL
