MODEL 1
REMARK VINA RESULT:      -6.6      0.000      0.000
REMARK  7 active torsions:
REMARK  status: ('A' for Active; 'I' for Inactive)
REMARK    1  A    between atoms: C_3  and  O_8 
REMARK    2  A    between atoms: C_6  and  O_7 
REMARK    3  A    between atoms: O_8  and  C_9 
REMARK    4  A    between atoms: C_12  and  C_16 
REMARK    5  A    between atoms: C_16  and  C_17 
REMARK    6  A    between atoms: C_17  and  C_18 
REMARK    7  A    between atoms: C_18  and  O_20 
ROOT
HETATM    1  C   UNK N   1      29.121  17.327   6.025  0.00  0.00     0.109 A 
HETATM    2  C   UNK N   1      29.555  17.570   7.359  0.00  0.00     0.042 A 
HETATM    3  C   UNK N   1      30.880  17.312   7.758  0.00  0.00     0.028 A 
HETATM    4  C   UNK N   1      31.792  16.809   6.830  0.00  0.00    -0.055 A 
HETATM    5  C   UNK N   1      31.380  16.571   5.543  0.00  0.00     0.028 A 
HETATM    6  C   UNK N   1      30.093  16.803   5.094  0.00  0.00     0.042 A 
HETATM    7  I   UNK N   1      30.075  16.239   3.046  0.00  0.00    -0.042 I 
HETATM    8  I   UNK N   1      28.215  18.333   8.813  0.00  0.00    -0.042 I 
ENDROOT
BRANCH   1   9
HETATM    9  O   UNK N   1      27.798  17.622   5.770  0.00  0.00    -0.308 OA
BRANCH   9  10
HETATM   10  C   UNK N   1      27.077  18.387   4.906  0.00  0.00     0.076 A 
HETATM   11  C   UNK N   1      27.634  19.589   4.440  0.00  0.00     0.040 A 
HETATM   12  C   UNK N   1      26.923  20.408   3.549  0.00  0.00     0.039 A 
HETATM   13  C   UNK N   1      25.647  20.029   3.119  0.00  0.00     0.065 A 
HETATM   14  C   UNK N   1      25.093  18.839   3.576  0.00  0.00     0.039 A 
HETATM   15  C   UNK N   1      25.813  18.038   4.458  0.00  0.00     0.040 A 
BRANCH  13  16
HETATM   16  O   UNK N   1      24.954  20.804   2.270  0.00  0.00    -0.361 OA
HETATM   17  H   UNK N   1      25.322  21.612   1.968  0.00  0.00     0.217 HD
ENDBRANCH  13  16
ENDBRANCH   9  10
ENDBRANCH   1   9
BRANCH   4  18
HETATM   18  C   UNK N   1      33.223  16.485   7.093  0.00  0.00     0.049 C 
BRANCH  18  19
HETATM   19  C   UNK N   1      34.297  17.543   6.973  0.00  0.00     0.114 C 
BRANCH  19  20
HETATM   20  C   UNK N   1      34.557  18.097   8.352  0.00  0.00     0.139 C 
HETATM   21  O   UNK N   1      35.210  19.117   8.481  0.00  0.00    -0.650 OA
BRANCH  20  22
HETATM   22  O   UNK N   1      34.076  17.477   9.453  0.00  0.00    -0.776 OA
HETATM   23  H   UNK N   1      34.201  17.860  10.299  0.00  0.00     0.167 HD
ENDBRANCH  20  22
ENDBRANCH  19  20
ENDBRANCH  18  19
ENDBRANCH   4  18
TORSDOF 7
ENDMDL
MODEL 2
REMARK VINA RESULT:      -6.5      1.272      1.465
REMARK  7 active torsions:
REMARK  status: ('A' for Active; 'I' for Inactive)
REMARK    1  A    between atoms: C_3  and  O_8 
REMARK    2  A    between atoms: C_6  and  O_7 
REMARK    3  A    between atoms: O_8  and  C_9 
REMARK    4  A    between atoms: C_12  and  C_16 
REMARK    5  A    between atoms: C_16  and  C_17 
REMARK    6  A    between atoms: C_17  and  C_18 
REMARK    7  A    between atoms: C_18  and  O_20 
ROOT
HETATM    1  C   UNK N   1      30.098  17.312   6.350  0.00  0.00     0.109 A 
HETATM    2  C   UNK N   1      30.210  17.602   7.739  0.00  0.00     0.042 A 
HETATM    3  C   UNK N   1      31.465  17.740   8.361  0.00  0.00     0.028 A 
HETATM    4  C   UNK N   1      32.627  17.591   7.604  0.00  0.00    -0.055 A 
HETATM    5  C   UNK N   1      32.526  17.310   6.265  0.00  0.00     0.028 A 
HETATM    6  C   UNK N   1      31.324  17.163   5.600  0.00  0.00     0.042 A 
HETATM    7  I   UNK N   1      31.817  16.735   3.579  0.00  0.00    -0.042 I 
HETATM    8  I   UNK N   1      28.480  17.837   8.940  0.00  0.00    -0.042 I 
ENDROOT
BRANCH   1   9
HETATM    9  O   UNK N   1      28.809  17.203   5.870  0.00  0.00    -0.308 OA
BRANCH   9  10
HETATM   10  C   UNK N   1      27.955  17.915   5.086  0.00  0.00     0.076 A 
HETATM   11  C   UNK N   1      28.198  19.284   4.887  0.00  0.00     0.040 A 
HETATM   12  C   UNK N   1      27.340  20.054   4.087  0.00  0.00     0.039 A 
HETATM   13  C   UNK N   1      26.230  19.458   3.479  0.00  0.00     0.065 A 
HETATM   14  C   UNK N   1      25.987  18.102   3.671  0.00  0.00     0.039 A 
HETATM   15  C   UNK N   1      26.849  17.354   4.466  0.00  0.00     0.040 A 
BRANCH  13  16
HETATM   16  O   UNK N   1      25.399  20.182   2.713  0.00  0.00    -0.361 OA
HETATM   17  H   UNK N   1      24.547  20.408   3.031  0.00  0.00     0.217 HD
ENDBRANCH  13  16
ENDBRANCH   9  10
ENDBRANCH   1   9
BRANCH   4  18
HETATM   18  C   UNK N   1      34.025  17.705   8.110  0.00  0.00     0.049 C 
BRANCH  18  19
HETATM   19  C   UNK N   1      34.782  16.487   8.592  0.00  0.00     0.114 C 
BRANCH  19  20
HETATM   20  C   UNK N   1      35.000  16.637  10.078  0.00  0.00     0.139 C 
HETATM   21  O   UNK N   1      35.836  17.422  10.490  0.00  0.00    -0.650 OA
BRANCH  20  22
HETATM   22  O   UNK N   1      34.283  15.910  10.964  0.00  0.00    -0.776 OA
HETATM   23  H   UNK N   1      33.372  16.094  11.092  0.00  0.00     0.167 HD
ENDBRANCH  20  22
ENDBRANCH  19  20
ENDBRANCH  18  19
ENDBRANCH   4  18
TORSDOF 7
ENDMDL
MODEL 3
REMARK VINA RESULT:      -6.5      0.328      2.252
REMARK  7 active torsions:
REMARK  status: ('A' for Active; 'I' for Inactive)
REMARK    1  A    between atoms: C_3  and  O_8 
REMARK    2  A    between atoms: C_6  and  O_7 
REMARK    3  A    between atoms: O_8  and  C_9 
REMARK    4  A    between atoms: C_12  and  C_16 
REMARK    5  A    between atoms: C_16  and  C_17 
REMARK    6  A    between atoms: C_17  and  C_18 
REMARK    7  A    between atoms: C_18  and  O_20 
ROOT
HETATM    1  C   UNK N   1      28.946  17.099   5.877  0.00  0.00     0.109 A 
HETATM    2  C   UNK N   1      29.887  16.532   4.973  0.00  0.00     0.042 A 
HETATM    3  C   UNK N   1      31.230  16.329   5.342  0.00  0.00     0.028 A 
HETATM    4  C   UNK N   1      31.652  16.689   6.622  0.00  0.00    -0.055 A 
HETATM    5  C   UNK N   1      30.750  17.236   7.499  0.00  0.00     0.028 A 
HETATM    6  C   UNK N   1      29.421  17.460   7.193  0.00  0.00     0.042 A 
HETATM    7  I   UNK N   1      28.554  18.323   8.930  0.00  0.00    -0.042 I 
HETATM    8  I   UNK N   1      29.305  15.968   3.014  0.00  0.00    -0.042 I 
ENDROOT
BRANCH   1   9
HETATM    9  O   UNK N   1      27.665  17.243   5.386  0.00  0.00    -0.308 OA
BRANCH   9  10
HETATM   10  C   UNK N   1      26.959  18.135   4.639  0.00  0.00     0.076 A 
HETATM   11  C   UNK N   1      27.585  19.324   4.233  0.00  0.00     0.040 A 
HETATM   12  C   UNK N   1      26.891  20.271   3.464  0.00  0.00     0.039 A 
HETATM   13  C   UNK N   1      25.563  20.033   3.095  0.00  0.00     0.065 A 
HETATM   14  C   UNK N   1      24.940  18.856   3.493  0.00  0.00     0.039 A 
HETATM   15  C   UNK N   1      25.644  17.927   4.254  0.00  0.00     0.040 A 
BRANCH  13  16
HETATM   16  O   UNK N   1      24.886  20.931   2.362  0.00  0.00    -0.361 OA
HETATM   17  H   UNK N   1      25.318  21.704   2.053  0.00  0.00     0.217 HD
ENDBRANCH  13  16
ENDBRANCH   9  10
ENDBRANCH   1   9
BRANCH   4  18
HETATM   18  C   UNK N   1      33.032  16.540   7.165  0.00  0.00     0.049 C 
BRANCH  18  19
HETATM   19  C   UNK N   1      34.074  17.616   6.954  0.00  0.00     0.114 C 
BRANCH  19  20
HETATM   20  C   UNK N   1      34.497  18.123   8.311  0.00  0.00     0.139 C 
HETATM   21  O   UNK N   1      35.281  19.052   8.392  0.00  0.00    -0.650 OA
BRANCH  20  22
HETATM   22  O   UNK N   1      34.020  17.560   9.444  0.00  0.00    -0.776 OA
HETATM   23  H   UNK N   1      33.587  18.091  10.084  0.00  0.00     0.167 HD
ENDBRANCH  20  22
ENDBRANCH  19  20
ENDBRANCH  18  19
ENDBRANCH   4  18
TORSDOF 7
ENDMDL
MODEL 4
REMARK VINA RESULT:      -6.5      1.530      8.080
REMARK  7 active torsions:
REMARK  status: ('A' for Active; 'I' for Inactive)
REMARK    1  A    between atoms: C_3  and  O_8 
REMARK    2  A    between atoms: C_6  and  O_7 
REMARK    3  A    between atoms: O_8  and  C_9 
REMARK    4  A    between atoms: C_12  and  C_16 
REMARK    5  A    between atoms: C_16  and  C_17 
REMARK    6  A    between atoms: C_17  and  C_18 
REMARK    7  A    between atoms: C_18  and  O_20 
ROOT
HETATM    1  C   UNK N   1      30.287  17.296   6.382  0.00  0.00     0.109 A 
HETATM    2  C   UNK N   1      30.117  17.459   4.978  0.00  0.00     0.042 A 
HETATM    3  C   UNK N   1      29.003  18.136   4.447  0.00  0.00     0.028 A 
HETATM    4  C   UNK N   1      28.043  18.662   5.310  0.00  0.00    -0.055 A 
HETATM    5  C   UNK N   1      28.200  18.509   6.665  0.00  0.00     0.028 A 
HETATM    6  C   UNK N   1      29.270  17.854   7.244  0.00  0.00     0.042 A 
HETATM    7  I   UNK N   1      28.946  17.937   9.342  0.00  0.00    -0.042 I 
HETATM    8  I   UNK N   1      31.543  16.680   3.617  0.00  0.00    -0.042 I 
ENDROOT
BRANCH   1   9
HETATM    9  O   UNK N   1      31.422  16.612   6.766  0.00  0.00    -0.308 OA
BRANCH   9  10
HETATM   10  C   UNK N   1      32.465  16.778   7.624  0.00  0.00     0.076 A 
HETATM   11  C   UNK N   1      33.310  17.888   7.457  0.00  0.00     0.040 A 
HETATM   12  C   UNK N   1      34.397  18.093   8.320  0.00  0.00     0.039 A 
HETATM   13  C   UNK N   1      34.648  17.188   9.357  0.00  0.00     0.065 A 
HETATM   14  C   UNK N   1      33.812  16.091   9.527  0.00  0.00     0.039 A 
HETATM   15  C   UNK N   1      32.737  15.903   8.664  0.00  0.00     0.040 A 
BRANCH  13  16
HETATM   16  O   UNK N   1      35.686  17.372  10.187  0.00  0.00    -0.361 OA
HETATM   17  H   UNK N   1      35.831  18.212  10.577  0.00  0.00     0.217 HD
ENDBRANCH  13  16
ENDBRANCH   9  10
ENDBRANCH   1   9
BRANCH   4  18
HETATM   18  C   UNK N   1      26.813  19.402   4.909  0.00  0.00     0.049 C 
BRANCH  18  19
HETATM   19  C   UNK N   1      26.765  20.195   3.621  0.00  0.00     0.114 C 
BRANCH  19  20
HETATM   20  C   UNK N   1      25.326  20.264   3.174  0.00  0.00     0.139 C 
HETATM   21  O   UNK N   1      24.462  19.707   3.829  0.00  0.00    -0.650 OA
BRANCH  20  22
HETATM   22  O   UNK N   1      24.976  20.934   2.052  0.00  0.00    -0.776 OA
HETATM   23  H   UNK N   1      25.615  21.444   1.594  0.00  0.00     0.167 HD
ENDBRANCH  20  22
ENDBRANCH  19  20
ENDBRANCH  18  19
ENDBRANCH   4  18
TORSDOF 7
ENDMDL
MODEL 5
REMARK VINA RESULT:      -6.3      2.015      7.621
REMARK  7 active torsions:
REMARK  status: ('A' for Active; 'I' for Inactive)
REMARK    1  A    between atoms: C_3  and  O_8 
REMARK    2  A    between atoms: C_6  and  O_7 
REMARK    3  A    between atoms: O_8  and  C_9 
REMARK    4  A    between atoms: C_12  and  C_16 
REMARK    5  A    between atoms: C_16  and  C_17 
REMARK    6  A    between atoms: C_17  and  C_18 
REMARK    7  A    between atoms: C_18  and  O_20 
ROOT
HETATM    1  C   UNK N   1      30.384  17.197   6.338  0.00  0.00     0.109 A 
HETATM    2  C   UNK N   1      30.053  17.288   4.957  0.00  0.00     0.042 A 
HETATM    3  C   UNK N   1      28.821  17.820   4.530  0.00  0.00     0.028 A 
HETATM    4  C   UNK N   1      27.903  18.270   5.478  0.00  0.00    -0.055 A 
HETATM    5  C   UNK N   1      28.214  18.185   6.811  0.00  0.00     0.028 A 
HETATM    6  C   UNK N   1      29.405  17.672   7.290  0.00  0.00     0.042 A 
HETATM    7  I   UNK N   1      29.292  17.799   9.407  0.00  0.00    -0.042 I 
HETATM    8  I   UNK N   1      31.408  16.618   3.472  0.00  0.00    -0.042 I 
ENDROOT
BRANCH   1   9
HETATM    9  O   UNK N   1      31.621  16.655   6.617  0.00  0.00    -0.308 OA
BRANCH   9  10
HETATM   10  C   UNK N   1      32.639  16.849   7.499  0.00  0.00     0.076 A 
HETATM   11  C   UNK N   1      32.871  15.881   8.490  0.00  0.00     0.040 A 
HETATM   12  C   UNK N   1      33.908  16.045   9.420  0.00  0.00     0.039 A 
HETATM   13  C   UNK N   1      34.723  17.182   9.365  0.00  0.00     0.065 A 
HETATM   14  C   UNK N   1      34.499  18.141   8.384  0.00  0.00     0.039 A 
HETATM   15  C   UNK N   1      33.466  17.961   7.469  0.00  0.00     0.040 A 
BRANCH  13  16
HETATM   16  O   UNK N   1      35.717  17.352  10.250  0.00  0.00    -0.361 OA
HETATM   17  H   UNK N   1      35.977  16.643  10.806  0.00  0.00     0.217 HD
ENDBRANCH  13  16
ENDBRANCH   9  10
ENDBRANCH   1   9
BRANCH   4  18
HETATM   18  C   UNK N   1      26.563  18.857   5.191  0.00  0.00     0.049 C 
BRANCH  18  19
HETATM   19  C   UNK N   1      26.397  20.340   4.939  0.00  0.00     0.114 C 
BRANCH  19  20
HETATM   20  C   UNK N   1      26.681  21.063   6.232  0.00  0.00     0.139 C 
HETATM   21  O   UNK N   1      27.596  21.866   6.288  0.00  0.00    -0.650 OA
BRANCH  20  22
HETATM   22  O   UNK N   1      25.936  20.832   7.337  0.00  0.00    -0.776 OA
HETATM   23  H   UNK N   1      25.859  21.494   7.996  0.00  0.00     0.167 HD
ENDBRANCH  20  22
ENDBRANCH  19  20
ENDBRANCH  18  19
ENDBRANCH   4  18
TORSDOF 7
ENDMDL
MODEL 6
REMARK VINA RESULT:      -6.3      1.583      3.033
REMARK  7 active torsions:
REMARK  status: ('A' for Active; 'I' for Inactive)
REMARK    1  A    between atoms: C_3  and  O_8 
REMARK    2  A    between atoms: C_6  and  O_7 
REMARK    3  A    between atoms: O_8  and  C_9 
REMARK    4  A    between atoms: C_12  and  C_16 
REMARK    5  A    between atoms: C_16  and  C_17 
REMARK    6  A    between atoms: C_17  and  C_18 
REMARK    7  A    between atoms: C_18  and  O_20 
ROOT
HETATM    1  C   UNK N   1      30.372  17.333   6.012  0.00  0.00     0.109 A 
HETATM    2  C   UNK N   1      31.704  17.138   5.548  0.00  0.00     0.042 A 
HETATM    3  C   UNK N   1      32.797  17.136   6.434  0.00  0.00     0.028 A 
HETATM    4  C   UNK N   1      32.577  17.327   7.798  0.00  0.00    -0.055 A 
HETATM    5  C   UNK N   1      31.296  17.516   8.252  0.00  0.00     0.028 A 
HETATM    6  C   UNK N   1      30.184  17.529   7.431  0.00  0.00     0.042 A 
HETATM    7  I   UNK N   1      28.517  17.869   8.703  0.00  0.00    -0.042 I 
HETATM    8  I   UNK N   1      32.101  16.845   3.487  0.00  0.00    -0.042 I 
ENDROOT
BRANCH   1   9
HETATM    9  O   UNK N   1      29.396  17.313   5.037  0.00  0.00    -0.308 OA
BRANCH   9  10
HETATM   10  C   UNK N   1      28.336  18.072   4.648  0.00  0.00     0.076 A 
HETATM   11  C   UNK N   1      27.217  17.435   4.086  0.00  0.00     0.040 A 
HETATM   12  C   UNK N   1      26.104  18.181   3.669  0.00  0.00     0.039 A 
HETATM   13  C   UNK N   1      26.104  19.573   3.812  0.00  0.00     0.065 A 
HETATM   14  C   UNK N   1      27.208  20.207   4.371  0.00  0.00     0.039 A 
HETATM   15  C   UNK N   1      28.302  19.451   4.780  0.00  0.00     0.040 A 
BRANCH  13  16
HETATM   16  O   UNK N   1      25.047  20.300   3.416  0.00  0.00    -0.361 OA
HETATM   17  H   UNK N   1      24.333  20.448   4.006  0.00  0.00     0.217 HD
ENDBRANCH  13  16
ENDBRANCH   9  10
ENDBRANCH   1   9
BRANCH   4  18
HETATM   18  C   UNK N   1      33.621  17.352   8.861  0.00  0.00     0.049 C 
BRANCH  18  19
HETATM   19  C   UNK N   1      34.508  16.152   9.111  0.00  0.00     0.114 C 
BRANCH  19  20
HETATM   20  C   UNK N   1      34.443  15.827  10.583  0.00  0.00     0.139 C 
HETATM   21  O   UNK N   1      35.316  16.230  11.331  0.00  0.00    -0.650 OA
BRANCH  20  22
HETATM   22  O   UNK N   1      33.426  15.092  11.089  0.00  0.00    -0.776 OA
HETATM   23  H   UNK N   1      32.888  15.444  11.771  0.00  0.00     0.167 HD
ENDBRANCH  20  22
ENDBRANCH  19  20
ENDBRANCH  18  19
ENDBRANCH   4  18
TORSDOF 7
ENDMDL
MODEL 7
REMARK VINA RESULT:      -6.2      1.431      7.702
REMARK  7 active torsions:
REMARK  status: ('A' for Active; 'I' for Inactive)
REMARK    1  A    between atoms: C_3  and  O_8 
REMARK    2  A    between atoms: C_6  and  O_7 
REMARK    3  A    between atoms: O_8  and  C_9 
REMARK    4  A    between atoms: C_12  and  C_16 
REMARK    5  A    between atoms: C_16  and  C_17 
REMARK    6  A    between atoms: C_17  and  C_18 
REMARK    7  A    between atoms: C_18  and  O_20 
ROOT
HETATM    1  C   UNK N   1      29.704  17.256   6.340  0.00  0.00     0.109 A 
HETATM    2  C   UNK N   1      28.677  18.018   6.965  0.00  0.00     0.042 A 
HETATM    3  C   UNK N   1      27.779  18.798   6.212  0.00  0.00     0.028 A 
HETATM    4  C   UNK N   1      27.893  18.827   4.823  0.00  0.00    -0.055 A 
HETATM    5  C   UNK N   1      28.881  18.096   4.213  0.00  0.00     0.028 A 
HETATM    6  C   UNK N   1      29.791  17.314   4.899  0.00  0.00     0.042 A 
HETATM    7  I   UNK N   1      31.054  16.452   3.425  0.00  0.00    -0.042 I 
HETATM    8  I   UNK N   1      28.455  18.014   9.073  0.00  0.00    -0.042 I 
ENDROOT
BRANCH   1   9
HETATM    9  O   UNK N   1      30.514  16.539   7.196  0.00  0.00    -0.308 OA
BRANCH   9  10
HETATM   10  C   UNK N   1      31.698  16.700   7.845  0.00  0.00     0.076 A 
HETATM   11  C   UNK N   1      32.401  17.906   7.684  0.00  0.00     0.040 A 
HETATM   12  C   UNK N   1      33.627  18.111   8.334  0.00  0.00     0.039 A 
HETATM   13  C   UNK N   1      34.161  17.108   9.152  0.00  0.00     0.065 A 
HETATM   14  C   UNK N   1      33.467  15.914   9.316  0.00  0.00     0.039 A 
HETATM   15  C   UNK N   1      32.252  15.729   8.664  0.00  0.00     0.040 A 
BRANCH  13  16
HETATM   16  O   UNK N   1      35.334  17.290   9.778  0.00  0.00    -0.361 OA
HETATM   17  H   UNK N   1      35.368  17.297  10.715  0.00  0.00     0.217 HD
ENDBRANCH  13  16
ENDBRANCH   9  10
ENDBRANCH   1   9
BRANCH   4  18
HETATM   18  C   UNK N   1      27.026  19.598   3.887  0.00  0.00     0.049 C 
BRANCH  18  19
HETATM   19  C   UNK N   1      25.517  19.510   3.969  0.00  0.00     0.114 C 
BRANCH  19  20
HETATM   20  C   UNK N   1      24.942  20.500   2.986  0.00  0.00     0.139 C 
HETATM   21  O   UNK N   1      25.631  20.912   2.069  0.00  0.00    -0.650 OA
BRANCH  20  22
HETATM   22  O   UNK N   1      23.670  20.942   3.107  0.00  0.00    -0.776 OA
HETATM   23  H   UNK N   1      23.446  21.544   3.790  0.00  0.00     0.167 HD
ENDBRANCH  20  22
ENDBRANCH  19  20
ENDBRANCH  18  19
ENDBRANCH   4  18
TORSDOF 7
ENDMDL
MODEL 8
REMARK VINA RESULT:      -6.1      8.711     11.903
REMARK  7 active torsions:
REMARK  status: ('A' for Active; 'I' for Inactive)
REMARK    1  A    between atoms: C_3  and  O_8 
REMARK    2  A    between atoms: C_6  and  O_7 
REMARK    3  A    between atoms: O_8  and  C_9 
REMARK    4  A    between atoms: C_12  and  C_16 
REMARK    5  A    between atoms: C_16  and  C_17 
REMARK    6  A    between atoms: C_17  and  C_18 
REMARK    7  A    between atoms: C_18  and  O_20 
ROOT
HETATM    1  C   UNK N   1      20.619  13.704   6.928  0.00  0.00     0.109 A 
HETATM    2  C   UNK N   1      20.673  13.120   5.631  0.00  0.00     0.042 A 
HETATM    3  C   UNK N   1      20.390  13.872   4.475  0.00  0.00     0.028 A 
HETATM    4  C   UNK N   1      20.050  15.219   4.598  0.00  0.00    -0.055 A 
HETATM    5  C   UNK N   1      19.995  15.788   5.845  0.00  0.00     0.028 A 
HETATM    6  C   UNK N   1      20.261  15.101   7.015  0.00  0.00     0.042 A 
HETATM    7  I   UNK N   1      20.005  16.501   8.591  0.00  0.00    -0.042 I 
HETATM    8  I   UNK N   1      21.182  11.078   5.383  0.00  0.00    -0.042 I 
ENDROOT
BRANCH   1   9
HETATM    9  O   UNK N   1      20.919  12.854   7.973  0.00  0.00    -0.308 OA
BRANCH   9  10
HETATM   10  C   UNK N   1      21.909  12.684   8.891  0.00  0.00     0.076 A 
HETATM   11  C   UNK N   1      21.558  12.468  10.234  0.00  0.00     0.040 A 
HETATM   12  C   UNK N   1      22.550  12.291  11.211  0.00  0.00     0.039 A 
HETATM   13  C   UNK N   1      23.901  12.328  10.851  0.00  0.00     0.065 A 
HETATM   14  C   UNK N   1      24.252  12.539   9.522  0.00  0.00     0.039 A 
HETATM   15  C   UNK N   1      23.256  12.712   8.566  0.00  0.00     0.040 A 
BRANCH  13  16
HETATM   16  O   UNK N   1      24.859  12.162  11.775  0.00  0.00    -0.361 OA
HETATM   17  H   UNK N   1      25.650  11.711  11.554  0.00  0.00     0.217 HD
ENDBRANCH  13  16
ENDBRANCH   9  10
ENDBRANCH   1   9
BRANCH   4  18
HETATM   18  C   UNK N   1      19.724  16.147   3.478  0.00  0.00     0.049 C 
BRANCH  18  19
HETATM   19  C   UNK N   1      20.687  17.237   3.062  0.00  0.00     0.114 C 
BRANCH  19  20
HETATM   20  C   UNK N   1      19.889  18.327   2.391  0.00  0.00     0.139 C 
HETATM   21  O   UNK N   1      20.457  19.157   1.703  0.00  0.00    -0.650 OA
BRANCH  20  22
HETATM   22  O   UNK N   1      18.547  18.402   2.543  0.00  0.00    -0.776 OA
HETATM   23  H   UNK N   1      18.181  18.606   3.381  0.00  0.00     0.167 HD
ENDBRANCH  20  22
ENDBRANCH  19  20
ENDBRANCH  18  19
ENDBRANCH   4  18
TORSDOF 7
ENDMDL
MODEL 9
REMARK VINA RESULT:      -6.0      7.975     10.505
REMARK  7 active torsions:
REMARK  status: ('A' for Active; 'I' for Inactive)
REMARK    1  A    between atoms: C_3  and  O_8 
REMARK    2  A    between atoms: C_6  and  O_7 
REMARK    3  A    between atoms: O_8  and  C_9 
REMARK    4  A    between atoms: C_12  and  C_16 
REMARK    5  A    between atoms: C_16  and  C_17 
REMARK    6  A    between atoms: C_17  and  C_18 
REMARK    7  A    between atoms: C_18  and  O_20 
ROOT
HETATM    1  C   UNK N   1      21.634  15.490   6.438  0.00  0.00     0.109 A 
HETATM    2  C   UNK N   1      20.972  16.716   6.727  0.00  0.00     0.042 A 
HETATM    3  C   UNK N   1      21.090  17.832   5.877  0.00  0.00     0.028 A 
HETATM    4  C   UNK N   1      21.871  17.738   4.724  0.00  0.00    -0.055 A 
HETATM    5  C   UNK N   1      22.512  16.559   4.440  0.00  0.00     0.028 A 
HETATM    6  C   UNK N   1      22.434  15.432   5.237  0.00  0.00     0.042 A 
HETATM    7  I   UNK N   1      23.633  13.957   4.287  0.00  0.00    -0.042 I 
HETATM    8  I   UNK N   1      19.775  16.919   8.463  0.00  0.00    -0.042 I 
ENDROOT
BRANCH   1   9
HETATM    9  O   UNK N   1      21.434  14.478   7.355  0.00  0.00    -0.308 OA
BRANCH   9  10
HETATM   10  C   UNK N   1      22.104  13.896   8.385  0.00  0.00     0.076 A 
HETATM   11  C   UNK N   1      23.481  13.654   8.248  0.00  0.00     0.040 A 
HETATM   12  C   UNK N   1      24.208  13.053   9.286  0.00  0.00     0.039 A 
HETATM   13  C   UNK N   1      23.562  12.689  10.472  0.00  0.00     0.065 A 
HETATM   14  C   UNK N   1      22.200  12.929  10.614  0.00  0.00     0.039 A 
HETATM   15  C   UNK N   1      21.494  13.528   9.574  0.00  0.00     0.040 A 
BRANCH  13  16
HETATM   16  O   UNK N   1      24.245  12.112  11.473  0.00  0.00    -0.361 OA
HETATM   17  H   UNK N   1      24.732  12.641  12.074  0.00  0.00     0.217 HD
ENDBRANCH  13  16
ENDBRANCH   9  10
ENDBRANCH   1   9
BRANCH   4  18
HETATM   18  C   UNK N   1      22.096  18.822   3.727  0.00  0.00     0.049 C 
BRANCH  18  19
HETATM   19  C   UNK N   1      21.012  19.222   2.750  0.00  0.00     0.114 C 
BRANCH  19  20
HETATM   20  C   UNK N   1      21.447  20.499   2.074  0.00  0.00     0.139 C 
HETATM   21  O   UNK N   1      21.535  20.541   0.860  0.00  0.00    -0.650 OA
BRANCH  20  22
HETATM   22  O   UNK N   1      21.743  21.603   2.797  0.00  0.00    -0.776 OA
HETATM   23  H   UNK N   1      21.871  21.536   3.723  0.00  0.00     0.167 HD
ENDBRANCH  20  22
ENDBRANCH  19  20
ENDBRANCH  18  19
ENDBRANCH   4  18
TORSDOF 7
ENDMDL
