REMARK  13 active torsions:
REMARK  status: ('A' for Active; 'I' for Inactive)
REMARK    1  A    between atoms: C_2  and  O_3 
REMARK    2  A    between atoms: C_4  and  O_3 
REMARK    3  A    between atoms: C_4  and  C_5 
REMARK    4  A    between atoms: C_4  and  C_17 
REMARK    5  A    between atoms: C_5  and  O_6 
REMARK    6  A    between atoms: O_6  and  C_7 
REMARK    7  A    between atoms: C_10  and  C_13 
REMARK    8  A    between atoms: C_17  and  S_18 
REMARK    9  A    between atoms: S_18  and  C_19 
REMARK   10  A    between atoms: C_22  and  O_26 
REMARK   11  A    between atoms: O_26  and  C_27 
REMARK   12  A    between atoms: C_27  and  C_28 
REMARK   13  A    between atoms: C_28  and  O_30 
ROOT
HETATM    1  C   UNK N   1       3.687  -2.474   0.234  0.00  0.00     0.155 C 
ENDROOT
BRANCH   1   2
HETATM    2  O   UNK N   1       2.979  -1.505   0.984  0.00  0.00    -0.383 OA
BRANCH   2   3
HETATM    3  C   UNK N   1       2.705  -0.392   0.170  0.00  0.00     0.163 C 
HETATM    4  C   UNK N   1       1.220  -0.091   0.194  0.00  0.00     0.033 C 
ENDBRANCH   2   3
ENDBRANCH   1   2
BRANCH   1   5
HETATM    5  C   UNK N   1       2.870  -3.221  -0.825  0.00  0.00     0.208 C 
BRANCH   5   6
HETATM    6  O   UNK N   1       1.528  -2.913  -0.766  0.00  0.00    -0.349 OA
BRANCH   6   7
HETATM    7  C   UNK N   1       0.549  -3.821  -0.554  0.00  0.00     0.068 A 
HETATM    8  C   UNK N   1       0.834  -5.149  -0.194  0.00  0.00     0.037 A 
HETATM    9  C   UNK N   1      -0.207  -6.066  -0.011  0.00  0.00     0.019 A 
HETATM   10  C   UNK N   1      -1.539  -5.667  -0.195  0.00  0.00     0.048 A 
HETATM   11  C   UNK N   1      -1.819  -4.340  -0.543  0.00  0.00     0.019 A 
HETATM   12  C   UNK N   1      -0.780  -3.423  -0.716  0.00  0.00     0.037 A 
BRANCH  10  13
HETATM   13  C   UNK N   1      -2.649  -6.666  -0.035  0.00  0.00     0.417 C 
HETATM   14  F   UNK N   1      -2.654  -7.155   1.258  0.00  0.00    -0.166 F 
HETATM   15  F   UNK N   1      -2.454  -7.714  -0.916  0.00  0.00    -0.166 F 
HETATM   16  F   UNK N   1      -3.881  -6.089  -0.299  0.00  0.00    -0.166 F 
ENDBRANCH  10  13
ENDBRANCH   6   7
ENDBRANCH   5   6
ENDBRANCH   1   5
BRANCH   1  17
HETATM   17  C   UNK N   1       5.025  -1.984  -0.317  0.00  0.00     0.113 C 
BRANCH  17  18
HETATM   18  S   UNK N   1       6.212  -1.742   1.036  0.00  0.00    -0.127 SA
BRANCH  18  19
HETATM   19  C   UNK N   1       7.091  -3.241   0.613  0.00  0.00     0.001 A 
HETATM   20  C   UNK N   1       8.327  -3.164  -0.032  0.00  0.00     0.021 A 
HETATM   21  C   UNK N   1       9.009  -4.333  -0.375  0.00  0.00     0.039 A 
HETATM   22  C   UNK N   1       8.461  -5.593  -0.075  0.00  0.00     0.075 A 
HETATM   23  C   UNK N   1       7.213  -5.661   0.572  0.00  0.00    -0.027 A 
HETATM   24  C   UNK N   1       6.536  -4.488   0.914  0.00  0.00     0.028 A 
HETATM   25  C   UNK N   1       6.591  -6.977   0.892  0.00  0.00     0.051 C 
BRANCH  22  26
HETATM   26  O   UNK N   1       9.111  -6.740  -0.400  0.00  0.00    -0.340 OA
BRANCH  26  27
HETATM   27  C   UNK N   1      10.291  -6.785  -1.118  0.00  0.00     0.285 C 
BRANCH  27  28
HETATM   28  C   UNK N   1      11.479  -6.633  -0.222  0.00  0.00     0.164 C 
HETATM   29  O   UNK N   1      11.682  -5.580   0.358  0.00  0.00    -0.648 OA
BRANCH  28  30
HETATM   30  O   UNK N   1      12.345  -7.653  -0.080  0.00  0.00    -0.775 OA
HETATM   31  H   UNK N   1      12.032  -8.531   0.018  0.00  0.00     0.167 HD
ENDBRANCH  28  30
ENDBRANCH  27  28
ENDBRANCH  26  27
ENDBRANCH  22  26
ENDBRANCH  18  19
ENDBRANCH  17  18
ENDBRANCH   1  17
TORSDOF 13
