MODEL 1
REMARK VINA RESULT:      -7.0      0.000      0.000
REMARK  12 active torsions:
REMARK  status: ('A' for Active; 'I' for Inactive)
REMARK    1  A    between atoms: C_9  and  C_2 
REMARK    2  A    between atoms: C_13  and  C_5 
REMARK    3  A    between atoms: N_23  and  C_9 
REMARK    4  A    between atoms: O_31  and  C_13 
REMARK    5  A    between atoms: C_19  and  C_16 
REMARK    6  A    between atoms: N_27  and  C_16 
REMARK    7  A    between atoms: C_20  and  C_17 
REMARK    8  A    between atoms: S_32  and  C_17 
REMARK    9  A    between atoms: C_21  and  C_18 
REMARK   10  A    between atoms: S_32  and  C_18 
REMARK   11  A    between atoms: O_28  and  C_21 
REMARK   12  A    between atoms: O_31  and  C_22 
ROOT
HETATM    1  C   UNK N   1      34.643  15.648   8.554  0.00  0.00    -0.009 C 
HETATM    2  C   UNK N   1      34.495  16.144   7.316  0.00  0.00    -0.003 C 
ENDROOT
BRANCH   2   3
HETATM    3  C   UNK N   1      34.217  17.598   7.095  0.00  0.00     0.204 C 
BRANCH   3   4
HETATM    4  O   UNK N   1      33.925  17.898   5.782  0.00  0.00    -0.332 OA
BRANCH   4   5
HETATM    5  C   UNK N   1      32.931  17.259   5.129  0.00  0.00     0.142 A 
HETATM    6  C   UNK N   1      31.624  17.353   5.615  0.00  0.00     0.065 A 
HETATM    7  C   UNK N   1      30.569  16.805   4.882  0.00  0.00    -0.025 A 
HETATM    8  C   UNK N   1      30.844  16.153   3.673  0.00  0.00     0.026 A 
HETATM    9  C   UNK N   1      32.167  16.036   3.240  0.00  0.00     0.090 A 
HETATM   10  N   UNK N   1      33.173  16.607   3.954  0.00  0.00    -0.347 N 
ATOM     11  HN  UNK N   1      34.129  16.547   3.605  1.00  0.00     0.167 HD
BRANCH   7  12
HETATM   12  C   UNK N   1      29.160  17.128   5.297  0.00  0.00     0.311 C 
BRANCH  12  13
HETATM   13  N   UNK N   1      28.772  18.527   5.148  0.00  0.00     0.092 N 
HETATM   14  C   UNK N   1      28.093  18.927   6.386  0.00  0.00     0.272 C 
HETATM   15  C   UNK N   1      27.541  20.344   6.271  0.00  0.00     0.030 C 
HETATM   16  C   UNK N   1      26.523  20.385   5.141  0.00  0.00     0.003 C 
HETATM   17  C   UNK N   1      27.178  19.908   3.852  0.00  0.00     0.030 C 
HETATM   18  C   UNK N   1      27.785  18.522   4.064  0.00  0.00     0.272 C 
ENDBRANCH  12  13
ENDBRANCH   7  12
ENDBRANCH   4   5
ENDBRANCH   3   4
ENDBRANCH   2   3
BRANCH   1  19
HETATM   19  C   UNK N   1      34.559  16.528   9.767  0.00  0.00     0.148 C 
BRANCH  19  20
HETATM   20  N   UNK N   1      34.746  15.761  10.976  0.00  0.00    -0.370 N 
HETATM   21  C   UNK N   1      35.907  15.602  11.510  0.00  0.00     0.123 C 
ATOM     22  HN  UNK N   1      33.933  15.333  11.421  1.00  0.00     0.161 HD
BRANCH  21  23
HETATM   23  C   UNK N   1      36.035  14.846  12.792  0.00  0.00     0.192 C 
BRANCH  23  24
HETATM   24  S   UNK N   1      36.619  13.154  12.453  0.00  0.00     0.028 S 
HETATM   25  O   UNK N   1      36.460  13.355  10.938  0.00  0.00    -0.257 OA
BRANCH  24  26
HETATM   26  C   UNK N   1      34.953  12.441  12.614  0.00  0.00     0.174 C 
BRANCH  26  27
HETATM   27  C   UNK N   1      34.796  11.763  13.936  0.00  0.00     0.064 A 
HETATM   28  C   UNK N   1      33.932  10.728  14.204  0.00  0.00     0.035 A 
HETATM   29  C   UNK N   1      34.141  10.414  15.535  0.00  0.00     0.027 A 
HETATM   30  C   UNK N   1      35.122  11.279  15.991  0.00  0.00     0.142 A 
HETATM   31  O   UNK N   1      35.487  12.065  15.007  0.00  0.00    -0.326 OA
ENDBRANCH  26  27
ENDBRANCH  24  26
ENDBRANCH  23  24
ENDBRANCH  21  23
BRANCH  21  32
HETATM   32  O   UNK N   1      37.010  16.114  10.926  0.00  0.00    -0.349 OA
HETATM   33  H   UNK N   1      37.260  17.012  11.028  0.00  0.00     0.219 HD
ENDBRANCH  21  32
ENDBRANCH  19  20
ENDBRANCH   1  19
TORSDOF 12
ENDMDL
MODEL 2
REMARK VINA RESULT:      -6.9      4.694     11.822
REMARK  12 active torsions:
REMARK  status: ('A' for Active; 'I' for Inactive)
REMARK    1  A    between atoms: C_9  and  C_2 
REMARK    2  A    between atoms: C_13  and  C_5 
REMARK    3  A    between atoms: N_23  and  C_9 
REMARK    4  A    between atoms: O_31  and  C_13 
REMARK    5  A    between atoms: C_19  and  C_16 
REMARK    6  A    between atoms: N_27  and  C_16 
REMARK    7  A    between atoms: C_20  and  C_17 
REMARK    8  A    between atoms: S_32  and  C_17 
REMARK    9  A    between atoms: C_21  and  C_18 
REMARK   10  A    between atoms: S_32  and  C_18 
REMARK   11  A    between atoms: O_28  and  C_21 
REMARK   12  A    between atoms: O_31  and  C_22 
ROOT
HETATM    1  C   UNK N   1      37.244  15.258  16.490  0.00  0.00    -0.009 C 
HETATM    2  C   UNK N   1      36.534  15.493  17.605  0.00  0.00    -0.003 C 
ENDROOT
BRANCH   2   3
HETATM    3  C   UNK N   1      35.291  14.716  17.907  0.00  0.00     0.204 C 
BRANCH   3   4
HETATM    4  O   UNK N   1      35.355  14.041  19.107  0.00  0.00    -0.332 OA
BRANCH   4   5
HETATM    5  C   UNK N   1      35.350  12.692  19.144  0.00  0.00     0.142 A 
HETATM    6  C   UNK N   1      35.480  11.975  17.951  0.00  0.00     0.065 A 
HETATM    7  C   UNK N   1      35.604  10.585  17.987  0.00  0.00    -0.025 A 
HETATM    8  C   UNK N   1      35.578   9.928  19.224  0.00  0.00     0.026 A 
HETATM    9  C   UNK N   1      35.400  10.670  20.393  0.00  0.00     0.090 A 
HETATM   10  N   UNK N   1      35.315  12.026  20.336  0.00  0.00    -0.347 N 
ATOM     11  HN  UNK N   1      35.223  12.557  21.201  1.00  0.00     0.167 HD
BRANCH   7  12
HETATM   12  C   UNK N   1      35.985   9.864  16.723  0.00  0.00     0.311 C 
BRANCH  12  13
HETATM   13  N   UNK N   1      35.623  10.545  15.484  0.00  0.00     0.092 N 
HETATM   14  C   UNK N   1      34.304  10.043  15.078  0.00  0.00     0.272 C 
HETATM   15  C   UNK N   1      33.900  10.612  13.722  0.00  0.00     0.030 C 
HETATM   16  C   UNK N   1      34.914  10.166  12.680  0.00  0.00     0.003 C 
HETATM   17  C   UNK N   1      36.307  10.610  13.106  0.00  0.00     0.030 C 
HETATM   18  C   UNK N   1      36.612  10.080  14.506  0.00  0.00     0.272 C 
ENDBRANCH  12  13
ENDBRANCH   7  12
ENDBRANCH   4   5
ENDBRANCH   3   4
ENDBRANCH   2   3
BRANCH   1  19
HETATM   19  C   UNK N   1      36.839  14.194  15.512  0.00  0.00     0.148 C 
BRANCH  19  20
HETATM   20  N   UNK N   1      36.934  14.676  14.155  0.00  0.00    -0.370 N 
HETATM   21  C   UNK N   1      36.004  14.464  13.289  0.00  0.00     0.123 C 
ATOM     22  HN  UNK N   1      37.762  15.203  13.874  1.00  0.00     0.161 HD
BRANCH  21  23
HETATM   23  C   UNK N   1      36.129  15.035  11.914  0.00  0.00     0.192 C 
BRANCH  23  24
HETATM   24  S   UNK N   1      34.518  14.957  11.068  0.00  0.00     0.028 S 
HETATM   25  O   UNK N   1      34.744  13.488  10.677  0.00  0.00    -0.257 OA
BRANCH  24  26
HETATM   26  C   UNK N   1      35.203  15.563   9.495  0.00  0.00     0.174 C 
BRANCH  26  27
HETATM   27  C   UNK N   1      34.280  16.554   8.865  0.00  0.00     0.064 A 
HETATM   28  C   UNK N   1      32.913  16.432   8.784  0.00  0.00     0.035 A 
HETATM   29  C   UNK N   1      32.482  17.581   8.144  0.00  0.00     0.027 A 
HETATM   30  C   UNK N   1      33.616  18.330   7.878  0.00  0.00     0.142 A 
HETATM   31  O   UNK N   1      34.667  17.684   8.326  0.00  0.00    -0.326 OA
ENDBRANCH  26  27
ENDBRANCH  24  26
ENDBRANCH  23  24
ENDBRANCH  21  23
BRANCH  21  32
HETATM   32  O   UNK N   1      34.917  13.733  13.611  0.00  0.00    -0.349 OA
HETATM   33  H   UNK N   1      34.971  12.963  14.144  0.00  0.00     0.219 HD
ENDBRANCH  21  32
ENDBRANCH  19  20
ENDBRANCH   1  19
TORSDOF 12
ENDMDL
MODEL 3
REMARK VINA RESULT:      -6.8      2.345      3.096
REMARK  12 active torsions:
REMARK  status: ('A' for Active; 'I' for Inactive)
REMARK    1  A    between atoms: C_9  and  C_2 
REMARK    2  A    between atoms: C_13  and  C_5 
REMARK    3  A    between atoms: N_23  and  C_9 
REMARK    4  A    between atoms: O_31  and  C_13 
REMARK    5  A    between atoms: C_19  and  C_16 
REMARK    6  A    between atoms: N_27  and  C_16 
REMARK    7  A    between atoms: C_20  and  C_17 
REMARK    8  A    between atoms: S_32  and  C_17 
REMARK    9  A    between atoms: C_21  and  C_18 
REMARK   10  A    between atoms: S_32  and  C_18 
REMARK   11  A    between atoms: O_28  and  C_21 
REMARK   12  A    between atoms: O_31  and  C_22 
ROOT
HETATM    1  C   UNK N   1      34.594  17.689   8.153  0.00  0.00    -0.009 C 
HETATM    2  C   UNK N   1      33.379  17.479   7.623  0.00  0.00    -0.003 C 
ENDROOT
BRANCH   2   3
HETATM    3  C   UNK N   1      32.310  16.773   8.397  0.00  0.00     0.204 C 
BRANCH   3   4
HETATM    4  O   UNK N   1      31.205  16.464   7.633  0.00  0.00    -0.332 OA
BRANCH   4   5
HETATM    5  C   UNK N   1      30.117  17.261   7.633  0.00  0.00     0.142 A 
HETATM    6  C   UNK N   1      29.254  17.240   6.533  0.00  0.00     0.065 A 
HETATM    7  C   UNK N   1      28.059  17.962   6.573  0.00  0.00    -0.025 A 
HETATM    8  C   UNK N   1      27.753  18.711   7.716  0.00  0.00     0.026 A 
HETATM    9  C   UNK N   1      28.658  18.748   8.779  0.00  0.00     0.090 A 
HETATM   10  N   UNK N   1      29.799  18.010   8.730  0.00  0.00    -0.347 N 
ATOM     11  HN  UNK N   1      30.431  18.016   9.529  1.00  0.00     0.167 HD
BRANCH   7  12
HETATM   12  C   UNK N   1      27.043  17.732   5.489  0.00  0.00     0.311 C 
BRANCH  12  13
HETATM   13  N   UNK N   1      26.355  18.929   5.017  0.00  0.00     0.092 N 
HETATM   14  C   UNK N   1      25.077  18.498   4.434  0.00  0.00     0.272 C 
HETATM   15  C   UNK N   1      24.343  19.676   3.801  0.00  0.00     0.030 C 
HETATM   16  C   UNK N   1      25.202  20.247   2.683  0.00  0.00     0.003 C 
HETATM   17  C   UNK N   1      26.564  20.640   3.240  0.00  0.00     0.030 C 
HETATM   18  C   UNK N   1      27.204  19.439   3.935  0.00  0.00     0.272 C 
ENDBRANCH  12  13
ENDBRANCH   7  12
ENDBRANCH   4   5
ENDBRANCH   3   4
ENDBRANCH   2   3
BRANCH   1  19
HETATM   19  C   UNK N   1      34.927  17.248   9.549  0.00  0.00     0.148 C 
BRANCH  19  20
HETATM   20  N   UNK N   1      35.145  15.821   9.602  0.00  0.00    -0.370 N 
HETATM   21  C   UNK N   1      36.097  15.302  10.296  0.00  0.00     0.123 C 
ATOM     22  HN  UNK N   1      34.524  15.206   9.075  1.00  0.00     0.161 HD
BRANCH  21  23
HETATM   23  C   UNK N   1      36.242  13.817  10.360  0.00  0.00     0.192 C 
BRANCH  23  24
HETATM   24  S   UNK N   1      35.170  13.151  11.674  0.00  0.00     0.028 S 
HETATM   25  O   UNK N   1      34.701  14.560  12.067  0.00  0.00    -0.257 OA
BRANCH  24  26
HETATM   26  C   UNK N   1      36.507  13.165  12.908  0.00  0.00     0.174 C 
BRANCH  26  27
HETATM   27  C   UNK N   1      35.946  13.172  14.292  0.00  0.00     0.064 A 
HETATM   28  C   UNK N   1      36.569  13.690  15.403  0.00  0.00     0.035 A 
HETATM   29  C   UNK N   1      35.680  13.493  16.445  0.00  0.00     0.027 A 
HETATM   30  C   UNK N   1      34.570  12.870  15.899  0.00  0.00     0.142 A 
HETATM   31  O   UNK N   1      34.768  12.699  14.614  0.00  0.00    -0.326 OA
ENDBRANCH  26  27
ENDBRANCH  24  26
ENDBRANCH  23  24
ENDBRANCH  21  23
BRANCH  21  32
HETATM   32  O   UNK N   1      36.966  16.086  10.968  0.00  0.00    -0.349 OA
HETATM   33  H   UNK N   1      36.958  16.154  11.903  0.00  0.00     0.219 HD
ENDBRANCH  21  32
ENDBRANCH  19  20
ENDBRANCH   1  19
TORSDOF 12
ENDMDL
MODEL 4
REMARK VINA RESULT:      -6.6      2.188      3.250
REMARK  12 active torsions:
REMARK  status: ('A' for Active; 'I' for Inactive)
REMARK    1  A    between atoms: C_9  and  C_2 
REMARK    2  A    between atoms: C_13  and  C_5 
REMARK    3  A    between atoms: N_23  and  C_9 
REMARK    4  A    between atoms: O_31  and  C_13 
REMARK    5  A    between atoms: C_19  and  C_16 
REMARK    6  A    between atoms: N_27  and  C_16 
REMARK    7  A    between atoms: C_20  and  C_17 
REMARK    8  A    between atoms: S_32  and  C_17 
REMARK    9  A    between atoms: C_21  and  C_18 
REMARK   10  A    between atoms: S_32  and  C_18 
REMARK   11  A    between atoms: O_28  and  C_21 
REMARK   12  A    between atoms: O_31  and  C_22 
ROOT
HETATM    1  C   UNK N   1      33.601  14.666   7.590  0.00  0.00    -0.009 C 
HETATM    2  C   UNK N   1      32.396  15.185   7.306  0.00  0.00    -0.003 C 
ENDROOT
BRANCH   2   3
HETATM    3  C   UNK N   1      32.234  16.644   7.014  0.00  0.00     0.204 C 
BRANCH   3   4
HETATM    4  O   UNK N   1      32.021  17.401   8.145  0.00  0.00    -0.332 OA
BRANCH   4   5
HETATM    5  C   UNK N   1      30.772  17.629   8.602  0.00  0.00     0.142 A 
HETATM    6  C   UNK N   1      29.954  18.540   7.928  0.00  0.00     0.065 A 
HETATM    7  C   UNK N   1      28.620  18.692   8.311  0.00  0.00    -0.025 A 
HETATM    8  C   UNK N   1      28.127  17.935   9.382  0.00  0.00     0.026 A 
HETATM    9  C   UNK N   1      28.984  17.068  10.064  0.00  0.00     0.090 A 
HETATM   10  N   UNK N   1      30.270  16.914   9.651  0.00  0.00    -0.347 N 
ATOM     11  HN  UNK N   1      30.872  16.249  10.134  1.00  0.00     0.167 HD
BRANCH   7  12
HETATM   12  C   UNK N   1      27.702  19.488   7.425  0.00  0.00     0.311 C 
BRANCH  12  13
HETATM   13  N   UNK N   1      27.817  19.208   5.997  0.00  0.00     0.092 N 
HETATM   14  C   UNK N   1      27.198  20.329   5.280  0.00  0.00     0.272 C 
HETATM   15  C   UNK N   1      27.162  20.062   3.778  0.00  0.00     0.030 C 
HETATM   16  C   UNK N   1      26.324  18.818   3.521  0.00  0.00     0.003 C 
HETATM   17  C   UNK N   1      26.899  17.649   4.308  0.00  0.00     0.030 C 
HETATM   18  C   UNK N   1      26.988  18.016   5.788  0.00  0.00     0.272 C 
ENDBRANCH  12  13
ENDBRANCH   7  12
ENDBRANCH   4   5
ENDBRANCH   3   4
ENDBRANCH   2   3
BRANCH   1  19
HETATM   19  C   UNK N   1      34.839  15.515   7.603  0.00  0.00     0.148 C 
BRANCH  19  20
HETATM   20  N   UNK N   1      35.540  15.387   8.858  0.00  0.00    -0.370 N 
HETATM   21  C   UNK N   1      35.305  16.171   9.853  0.00  0.00     0.123 C 
ATOM     22  HN  UNK N   1      36.241  14.653   8.961  1.00  0.00     0.161 HD
BRANCH  21  23
HETATM   23  C   UNK N   1      36.019  15.958  11.148  0.00  0.00     0.192 C 
BRANCH  23  24
HETATM   24  S   UNK N   1      35.822  14.227  11.682  0.00  0.00     0.028 S 
HETATM   25  O   UNK N   1      34.304  14.403  11.843  0.00  0.00    -0.257 OA
BRANCH  24  26
HETATM   26  C   UNK N   1      36.134  14.627  13.429  0.00  0.00     0.174 C 
BRANCH  26  27
HETATM   27  C   UNK N   1      35.818  13.457  14.302  0.00  0.00     0.064 A 
HETATM   28  C   UNK N   1      36.744  12.636  14.902  0.00  0.00     0.035 A 
HETATM   29  C   UNK N   1      36.003  11.713  15.619  0.00  0.00     0.027 A 
HETATM   30  C   UNK N   1      34.672  12.035  15.411  0.00  0.00     0.142 A 
HETATM   31  O   UNK N   1      34.605  13.081  14.623  0.00  0.00    -0.326 OA
ENDBRANCH  26  27
ENDBRANCH  24  26
ENDBRANCH  23  24
ENDBRANCH  21  23
BRANCH  21  32
HETATM   32  O   UNK N   1      34.418  17.181   9.740  0.00  0.00    -0.349 OA
HETATM   33  H   UNK N   1      34.525  17.875   9.119  0.00  0.00     0.219 HD
ENDBRANCH  21  32
ENDBRANCH  19  20
ENDBRANCH   1  19
TORSDOF 12
ENDMDL
MODEL 5
REMARK VINA RESULT:      -6.5      2.472      3.080
REMARK  12 active torsions:
REMARK  status: ('A' for Active; 'I' for Inactive)
REMARK    1  A    between atoms: C_9  and  C_2 
REMARK    2  A    between atoms: C_13  and  C_5 
REMARK    3  A    between atoms: N_23  and  C_9 
REMARK    4  A    between atoms: O_31  and  C_13 
REMARK    5  A    between atoms: C_19  and  C_16 
REMARK    6  A    between atoms: N_27  and  C_16 
REMARK    7  A    between atoms: C_20  and  C_17 
REMARK    8  A    between atoms: S_32  and  C_17 
REMARK    9  A    between atoms: C_21  and  C_18 
REMARK   10  A    between atoms: S_32  and  C_18 
REMARK   11  A    between atoms: O_28  and  C_21 
REMARK   12  A    between atoms: O_31  and  C_22 
ROOT
HETATM    1  C   UNK N   1      33.543  14.291   9.118  0.00  0.00    -0.009 C 
HETATM    2  C   UNK N   1      33.068  15.152   8.205  0.00  0.00    -0.003 C 
ENDROOT
BRANCH   2   3
HETATM    3  C   UNK N   1      33.173  16.631   8.411  0.00  0.00     0.204 C 
BRANCH   3   4
HETATM    4  O   UNK N   1      32.256  17.345   7.671  0.00  0.00    -0.332 OA
BRANCH   4   5
HETATM    5  C   UNK N   1      30.977  17.468   8.084  0.00  0.00     0.142 A 
HETATM    6  C   UNK N   1      29.954  17.518   7.132  0.00  0.00     0.065 A 
HETATM    7  C   UNK N   1      28.620  17.516   7.546  0.00  0.00    -0.025 A 
HETATM    8  C   UNK N   1      28.330  17.480   8.915  0.00  0.00     0.026 A 
HETATM    9  C   UNK N   1      29.376  17.478   9.841  0.00  0.00     0.090 A 
HETATM   10  N   UNK N   1      30.666  17.446   9.413  0.00  0.00    -0.347 N 
ATOM     11  HN  UNK N   1      31.418  17.406  10.100  1.00  0.00     0.167 HD
BRANCH   7  12
HETATM   12  C   UNK N   1      27.546  17.324   6.511  0.00  0.00     0.311 C 
BRANCH  12  13
HETATM   13  N   UNK N   1      27.494  18.347   5.471  0.00  0.00     0.092 N 
HETATM   14  C   UNK N   1      27.150  19.617   6.122  0.00  0.00     0.272 C 
HETATM   15  C   UNK N   1      26.951  20.722   5.090  0.00  0.00     0.030 C 
HETATM   16  C   UNK N   1      25.802  20.337   4.172  0.00  0.00     0.003 C 
HETATM   17  C   UNK N   1      26.095  18.987   3.531  0.00  0.00     0.030 C 
HETATM   18  C   UNK N   1      26.369  17.949   4.618  0.00  0.00     0.272 C 
ENDBRANCH  12  13
ENDBRANCH   7  12
ENDBRANCH   4   5
ENDBRANCH   3   4
ENDBRANCH   2   3
BRANCH   1  19
HETATM   19  C   UNK N   1      34.219  14.768  10.371  0.00  0.00     0.148 C 
BRANCH  19  20
HETATM   20  N   UNK N   1      34.974  13.703  10.988  0.00  0.00    -0.370 N 
HETATM   21  C   UNK N   1      35.987  13.938  11.748  0.00  0.00     0.123 C 
ATOM     22  HN  UNK N   1      34.696  12.736  10.818  1.00  0.00     0.161 HD
BRANCH  21  23
HETATM   23  C   UNK N   1      36.698  12.800  12.407  0.00  0.00     0.192 C 
BRANCH  23  24
HETATM   24  S   UNK N   1      35.680  12.144  13.767  0.00  0.00     0.028 S 
HETATM   25  O   UNK N   1      34.857  13.439  13.836  0.00  0.00    -0.257 OA
BRANCH  24  26
HETATM   26  C   UNK N   1      36.840  12.719  15.044  0.00  0.00     0.174 C 
BRANCH  26  27
HETATM   27  C   UNK N   1      36.123  12.985  16.327  0.00  0.00     0.064 A 
HETATM   28  C   UNK N   1      35.520  12.034  17.116  0.00  0.00     0.035 A 
HETATM   29  C   UNK N   1      35.005  12.729  18.197  0.00  0.00     0.027 A 
HETATM   30  C   UNK N   1      35.332  14.060  17.996  0.00  0.00     0.142 A 
HETATM   31  O   UNK N   1      36.000  14.170  16.872  0.00  0.00    -0.326 OA
ENDBRANCH  26  27
ENDBRANCH  24  26
ENDBRANCH  23  24
ENDBRANCH  21  23
BRANCH  21  32
HETATM   32  O   UNK N   1      36.412  15.201  11.959  0.00  0.00    -0.349 OA
HETATM   33  H   UNK N   1      37.103  15.587  11.457  0.00  0.00     0.219 HD
ENDBRANCH  21  32
ENDBRANCH  19  20
ENDBRANCH   1  19
TORSDOF 12
ENDMDL
MODEL 6
REMARK VINA RESULT:      -6.3      2.328      2.983
REMARK  12 active torsions:
REMARK  status: ('A' for Active; 'I' for Inactive)
REMARK    1  A    between atoms: C_9  and  C_2 
REMARK    2  A    between atoms: C_13  and  C_5 
REMARK    3  A    between atoms: N_23  and  C_9 
REMARK    4  A    between atoms: O_31  and  C_13 
REMARK    5  A    between atoms: C_19  and  C_16 
REMARK    6  A    between atoms: N_27  and  C_16 
REMARK    7  A    between atoms: C_20  and  C_17 
REMARK    8  A    between atoms: S_32  and  C_17 
REMARK    9  A    between atoms: C_21  and  C_18 
REMARK   10  A    between atoms: S_32  and  C_18 
REMARK   11  A    between atoms: O_28  and  C_21 
REMARK   12  A    between atoms: O_31  and  C_22 
ROOT
HETATM    1  C   UNK N   1      35.570  15.254   9.437  0.00  0.00    -0.009 C 
HETATM    2  C   UNK N   1      34.501  15.143   8.633  0.00  0.00    -0.003 C 
ENDROOT
BRANCH   2   3
HETATM    3  C   UNK N   1      33.229  15.871   8.935  0.00  0.00     0.204 C 
BRANCH   3   4
HETATM    4  O   UNK N   1      32.703  16.518   7.837  0.00  0.00    -0.332 OA
BRANCH   4   5
HETATM    5  C   UNK N   1      31.537  17.191   7.921  0.00  0.00     0.142 A 
HETATM    6  C   UNK N   1      30.587  17.043   6.906  0.00  0.00     0.065 A 
HETATM    7  C   UNK N   1      29.328  17.631   7.042  0.00  0.00    -0.025 A 
HETATM    8  C   UNK N   1      29.043  18.378   8.193  0.00  0.00     0.026 A 
HETATM    9  C   UNK N   1      30.031  18.545   9.166  0.00  0.00     0.090 A 
HETATM   10  N   UNK N   1      31.238  17.935   9.027  0.00  0.00    -0.347 N 
ATOM     11  HN  UNK N   1      31.935  18.034   9.764  1.00  0.00     0.167 HD
BRANCH   7  12
HETATM   12  C   UNK N   1      28.251  17.259   6.061  0.00  0.00     0.311 C 
BRANCH  12  13
HETATM   13  N   UNK N   1      27.328  18.334   5.712  0.00  0.00     0.092 N 
HETATM   14  C   UNK N   1      26.125  17.711   5.145  0.00  0.00     0.272 C 
HETATM   15  C   UNK N   1      25.152  18.770   4.636  0.00  0.00     0.030 C 
HETATM   16  C   UNK N   1      25.831  19.572   3.535  0.00  0.00     0.003 C 
HETATM   17  C   UNK N   1      27.122  20.176   4.070  0.00  0.00     0.030 C 
HETATM   18  C   UNK N   1      28.010  19.071   4.643  0.00  0.00     0.272 C 
ENDBRANCH  12  13
ENDBRANCH   7  12
ENDBRANCH   4   5
ENDBRANCH   3   4
ENDBRANCH   2   3
BRANCH   1  19
HETATM   19  C   UNK N   1      35.547  16.128  10.657  0.00  0.00     0.148 C 
BRANCH  19  20
HETATM   20  N   UNK N   1      36.190  15.474  11.772  0.00  0.00    -0.370 N 
HETATM   21  C   UNK N   1      35.606  14.548  12.449  0.00  0.00     0.123 C 
ATOM     22  HN  UNK N   1      37.137  15.754  12.030  1.00  0.00     0.161 HD
BRANCH  21  23
HETATM   23  C   UNK N   1      36.340  13.866  13.558  0.00  0.00     0.192 C 
BRANCH  23  24
HETATM   24  S   UNK N   1      35.474  12.330  14.015  0.00  0.00     0.028 S 
HETATM   25  O   UNK N   1      34.441  13.106  14.845  0.00  0.00    -0.257 OA
BRANCH  24  26
HETATM   26  C   UNK N   1      36.539  12.044  15.462  0.00  0.00     0.174 C 
BRANCH  26  27
HETATM   27  C   UNK N   1      36.251  10.712  16.073  0.00  0.00     0.064 A 
HETATM   28  C   UNK N   1      35.193  10.427  16.904  0.00  0.00     0.035 A 
HETATM   29  C   UNK N   1      35.318   9.082  17.206  0.00  0.00     0.027 A 
HETATM   30  C   UNK N   1      36.445   8.634  16.535  0.00  0.00     0.142 A 
HETATM   31  O   UNK N   1      36.970   9.636  15.870  0.00  0.00    -0.326 OA
ENDBRANCH  26  27
ENDBRANCH  24  26
ENDBRANCH  23  24
ENDBRANCH  21  23
BRANCH  21  32
HETATM   32  O   UNK N   1      34.338  14.184  12.167  0.00  0.00    -0.349 OA
HETATM   33  H   UNK N   1      34.125  13.635  11.438  0.00  0.00     0.219 HD
ENDBRANCH  21  32
ENDBRANCH  19  20
ENDBRANCH   1  19
TORSDOF 12
ENDMDL
MODEL 7
REMARK VINA RESULT:      -6.3      2.808      4.873
REMARK  12 active torsions:
REMARK  status: ('A' for Active; 'I' for Inactive)
REMARK    1  A    between atoms: C_9  and  C_2 
REMARK    2  A    between atoms: C_13  and  C_5 
REMARK    3  A    between atoms: N_23  and  C_9 
REMARK    4  A    between atoms: O_31  and  C_13 
REMARK    5  A    between atoms: C_19  and  C_16 
REMARK    6  A    between atoms: N_27  and  C_16 
REMARK    7  A    between atoms: C_20  and  C_17 
REMARK    8  A    between atoms: S_32  and  C_17 
REMARK    9  A    between atoms: C_21  and  C_18 
REMARK   10  A    between atoms: S_32  and  C_18 
REMARK   11  A    between atoms: O_28  and  C_21 
REMARK   12  A    between atoms: O_31  and  C_22 
ROOT
HETATM    1  C   UNK N   1      34.977  10.447  10.660  0.00  0.00    -0.009 C 
HETATM    2  C   UNK N   1      34.309  11.069   9.676  0.00  0.00    -0.003 C 
ENDROOT
BRANCH   2   3
HETATM    3  C   UNK N   1      34.700  12.441   9.224  0.00  0.00     0.204 C 
BRANCH   3   4
HETATM    4  O   UNK N   1      34.068  13.442   9.929  0.00  0.00    -0.332 OA
BRANCH   4   5
HETATM    5  C   UNK N   1      34.190  14.734   9.559  0.00  0.00     0.142 A 
HETATM    6  C   UNK N   1      33.364  15.237   8.549  0.00  0.00     0.065 A 
HETATM    7  C   UNK N   1      33.390  16.599   8.244  0.00  0.00    -0.025 A 
HETATM    8  C   UNK N   1      34.261  17.440   8.949  0.00  0.00     0.026 A 
HETATM    9  C   UNK N   1      35.106  16.898   9.919  0.00  0.00     0.090 A 
HETATM   10  N   UNK N   1      35.039  15.574  10.222  0.00  0.00    -0.347 N 
ATOM     11  HN  UNK N   1      35.635  15.200  10.959  1.00  0.00     0.167 HD
BRANCH   7  12
HETATM   12  C   UNK N   1      32.330  17.153   7.334  0.00  0.00     0.311 C 
BRANCH  12  13
HETATM   13  N   UNK N   1      32.252  16.531   6.016  0.00  0.00     0.092 N 
HETATM   14  C   UNK N   1      33.357  17.070   5.212  0.00  0.00     0.272 C 
HETATM   15  C   UNK N   1      33.280  16.566   3.774  0.00  0.00     0.030 C 
HETATM   16  C   UNK N   1      31.973  17.039   3.157  0.00  0.00     0.003 C 
HETATM   17  C   UNK N   1      30.806  16.555   4.007  0.00  0.00     0.030 C 
HETATM   18  C   UNK N   1      30.991  17.021   5.450  0.00  0.00     0.272 C 
ENDBRANCH  12  13
ENDBRANCH   7  12
ENDBRANCH   4   5
ENDBRANCH   3   4
ENDBRANCH   2   3
BRANCH   1  19
HETATM   19  C   UNK N   1      36.157  11.086  11.333  0.00  0.00     0.148 C 
BRANCH  19  20
HETATM   20  N   UNK N   1      35.729  12.079  12.290  0.00  0.00    -0.370 N 
HETATM   21  C   UNK N   1      36.453  13.105  12.577  0.00  0.00     0.123 C 
ATOM     22  HN  UNK N   1      34.827  11.965  12.752  1.00  0.00     0.161 HD
BRANCH  21  23
HETATM   23  C   UNK N   1      35.937  14.131  13.533  0.00  0.00     0.192 C 
BRANCH  23  24
HETATM   24  S   UNK N   1      36.605  13.813  15.197  0.00  0.00     0.028 S 
HETATM   25  O   UNK N   1      37.149  12.443  14.765  0.00  0.00    -0.257 OA
BRANCH  24  26
HETATM   26  C   UNK N   1      35.044  13.093  15.793  0.00  0.00     0.174 C 
BRANCH  26  27
HETATM   27  C   UNK N   1      35.178  12.645  17.212  0.00  0.00     0.064 A 
HETATM   28  C   UNK N   1      35.170  13.468  18.313  0.00  0.00     0.035 A 
HETATM   29  C   UNK N   1      35.302  12.624  19.401  0.00  0.00     0.027 A 
HETATM   30  C   UNK N   1      35.379  11.338  18.891  0.00  0.00     0.142 A 
HETATM   31  O   UNK N   1      35.299  11.394  17.582  0.00  0.00    -0.326 OA
ENDBRANCH  26  27
ENDBRANCH  24  26
ENDBRANCH  23  24
ENDBRANCH  21  23
BRANCH  21  32
HETATM   32  O   UNK N   1      37.672  13.266  12.021  0.00  0.00    -0.349 OA
HETATM   33  H   UNK N   1      38.036  12.642  11.423  0.00  0.00     0.219 HD
ENDBRANCH  21  32
ENDBRANCH  19  20
ENDBRANCH   1  19
TORSDOF 12
ENDMDL
MODEL 8
REMARK VINA RESULT:      -6.3      7.121     11.120
REMARK  12 active torsions:
REMARK  status: ('A' for Active; 'I' for Inactive)
REMARK    1  A    between atoms: C_9  and  C_2 
REMARK    2  A    between atoms: C_13  and  C_5 
REMARK    3  A    between atoms: N_23  and  C_9 
REMARK    4  A    between atoms: O_31  and  C_13 
REMARK    5  A    between atoms: C_19  and  C_16 
REMARK    6  A    between atoms: N_27  and  C_16 
REMARK    7  A    between atoms: C_20  and  C_17 
REMARK    8  A    between atoms: S_32  and  C_17 
REMARK    9  A    between atoms: C_21  and  C_18 
REMARK   10  A    between atoms: S_32  and  C_18 
REMARK   11  A    between atoms: O_28  and  C_21 
REMARK   12  A    between atoms: O_31  and  C_22 
ROOT
HETATM    1  C   UNK N   1      25.524  19.579   3.804  0.00  0.00    -0.009 C 
HETATM    2  C   UNK N   1      26.373  20.489   4.306  0.00  0.00    -0.003 C 
ENDROOT
BRANCH   2   3
HETATM    3  C   UNK N   1      26.327  20.873   5.752  0.00  0.00     0.204 C 
BRANCH   3   4
HETATM    4  O   UNK N   1      27.533  20.697   6.396  0.00  0.00    -0.332 OA
BRANCH   4   5
HETATM    5  C   UNK N   1      27.840  19.522   6.984  0.00  0.00     0.142 A 
HETATM    6  C   UNK N   1      28.471  18.526   6.234  0.00  0.00     0.065 A 
HETATM    7  C   UNK N   1      28.908  17.357   6.859  0.00  0.00    -0.025 A 
HETATM    8  C   UNK N   1      28.691  17.195   8.233  0.00  0.00     0.026 A 
HETATM    9  C   UNK N   1      28.016  18.189   8.945  0.00  0.00     0.090 A 
HETATM   10  N   UNK N   1      27.629  19.334   8.320  0.00  0.00    -0.347 N 
ATOM     11  HN  UNK N   1      27.172  20.067   8.861  1.00  0.00     0.167 HD
BRANCH   7  12
HETATM   12  C   UNK N   1      29.793  16.416   6.089  0.00  0.00     0.311 C 
BRANCH  12  13
HETATM   13  N   UNK N   1      30.781  17.056   5.226  0.00  0.00     0.092 N 
HETATM   14  C   UNK N   1      30.705  16.401   3.913  0.00  0.00     0.272 C 
HETATM   15  C   UNK N   1      31.792  16.925   2.981  0.00  0.00     0.030 C 
HETATM   16  C   UNK N   1      33.152  16.611   3.586  0.00  0.00     0.003 C 
HETATM   17  C   UNK N   1      33.238  17.217   4.980  0.00  0.00     0.030 C 
HETATM   18  C   UNK N   1      32.073  16.719   5.833  0.00  0.00     0.272 C 
ENDBRANCH  12  13
ENDBRANCH   7  12
ENDBRANCH   4   5
ENDBRANCH   3   4
ENDBRANCH   2   3
BRANCH   1  19
HETATM   19  C   UNK N   1      24.510  18.890   4.670  0.00  0.00     0.148 C 
BRANCH  19  20
HETATM   20  N   UNK N   1      24.306  17.527   4.242  0.00  0.00    -0.370 N 
HETATM   21  C   UNK N   1      24.743  16.526   4.924  0.00  0.00     0.123 C 
ATOM     22  HN  UNK N   1      23.800  17.351   3.374  1.00  0.00     0.161 HD
BRANCH  21  23
HETATM   23  C   UNK N   1      24.455  15.133   4.464  0.00  0.00     0.192 C 
BRANCH  23  24
HETATM   24  S   UNK N   1      25.832  14.528   3.436  0.00  0.00     0.028 S 
HETATM   25  O   UNK N   1      26.509  15.907   3.452  0.00  0.00    -0.257 OA
BRANCH  24  26
HETATM   26  C   UNK N   1      24.959  14.888   1.881  0.00  0.00     0.174 C 
BRANCH  26  27
HETATM   27  C   UNK N   1      24.587  13.622   1.180  0.00  0.00     0.064 A 
HETATM   28  C   UNK N   1      23.665  13.512   0.166  0.00  0.00     0.035 A 
HETATM   29  C   UNK N   1      23.664  12.173  -0.183  0.00  0.00     0.027 A 
HETATM   30  C   UNK N   1      24.589  11.554   0.642  0.00  0.00     0.142 A 
HETATM   31  O   UNK N   1      25.118  12.453   1.438  0.00  0.00    -0.326 OA
ENDBRANCH  26  27
ENDBRANCH  24  26
ENDBRANCH  23  24
ENDBRANCH  21  23
BRANCH  21  32
HETATM   32  O   UNK N   1      25.457  16.719   6.053  0.00  0.00    -0.349 OA
HETATM   33  H   UNK N   1      26.359  16.473   6.124  0.00  0.00     0.219 HD
ENDBRANCH  21  32
ENDBRANCH  19  20
ENDBRANCH   1  19
TORSDOF 12
ENDMDL
MODEL 9
REMARK VINA RESULT:      -6.2      3.656     12.657
REMARK  12 active torsions:
REMARK  status: ('A' for Active; 'I' for Inactive)
REMARK    1  A    between atoms: C_9  and  C_2 
REMARK    2  A    between atoms: C_13  and  C_5 
REMARK    3  A    between atoms: N_23  and  C_9 
REMARK    4  A    between atoms: O_31  and  C_13 
REMARK    5  A    between atoms: C_19  and  C_16 
REMARK    6  A    between atoms: N_27  and  C_16 
REMARK    7  A    between atoms: C_20  and  C_17 
REMARK    8  A    between atoms: S_32  and  C_17 
REMARK    9  A    between atoms: C_21  and  C_18 
REMARK   10  A    between atoms: S_32  and  C_18 
REMARK   11  A    between atoms: O_28  and  C_21 
REMARK   12  A    between atoms: O_31  and  C_22 
ROOT
HETATM    1  C   UNK N   1      35.355  11.991  11.823  0.00  0.00    -0.009 C 
HETATM    2  C   UNK N   1      35.355  11.664  13.125  0.00  0.00    -0.003 C 
ENDROOT
BRANCH   2   3
HETATM    3  C   UNK N   1      36.454  12.115  14.035  0.00  0.00     0.204 C 
BRANCH   3   4
HETATM    4  O   UNK N   1      36.109  13.209  14.799  0.00  0.00    -0.332 OA
BRANCH   4   5
HETATM    5  C   UNK N   1      35.733  13.064  16.087  0.00  0.00     0.142 A 
HETATM    6  C   UNK N   1      35.539  11.779  16.602  0.00  0.00     0.065 A 
HETATM    7  C   UNK N   1      35.276  11.608  17.963  0.00  0.00    -0.025 A 
HETATM    8  C   UNK N   1      35.193  12.736  18.789  0.00  0.00     0.026 A 
HETATM    9  C   UNK N   1      35.346  14.008  18.234  0.00  0.00     0.090 A 
HETATM   10  N   UNK N   1      35.634  14.147  16.912  0.00  0.00    -0.347 N 
ATOM     11  HN  UNK N   1      35.781  15.081  16.529  1.00  0.00     0.167 HD
BRANCH   7  12
HETATM   12  C   UNK N   1      35.314  10.218  18.534  0.00  0.00     0.311 C 
BRANCH  12  13
HETATM   13  N   UNK N   1      34.410   9.980  19.655  0.00  0.00     0.092 N 
HETATM   14  C   UNK N   1      35.228   9.530  20.788  0.00  0.00     0.272 C 
HETATM   15  C   UNK N   1      34.349   9.138  21.972  0.00  0.00     0.030 C 
HETATM   16  C   UNK N   1      33.447   7.986  21.555  0.00  0.00     0.003 C 
HETATM   17  C   UNK N   1      32.634   8.396  20.335  0.00  0.00     0.030 C 
HETATM   18  C   UNK N   1      33.571   8.859  19.220  0.00  0.00     0.272 C 
ENDBRANCH  12  13
ENDBRANCH   7  12
ENDBRANCH   4   5
ENDBRANCH   3   4
ENDBRANCH   2   3
BRANCH   1  19
HETATM   19  C   UNK N   1      36.441  12.840  11.228  0.00  0.00     0.148 C 
BRANCH  19  20
HETATM   20  N   UNK N   1      35.893  14.032  10.626  0.00  0.00    -0.370 N 
HETATM   21  C   UNK N   1      35.958  15.180  11.207  0.00  0.00     0.123 C 
ATOM     22  HN  UNK N   1      35.442  13.964   9.714  1.00  0.00     0.161 HD
BRANCH  21  23
HETATM   23  C   UNK N   1      35.425  16.392  10.513  0.00  0.00     0.192 C 
BRANCH  23  24
HETATM   24  S   UNK N   1      34.157  15.900   9.303  0.00  0.00     0.028 S 
HETATM   25  O   UNK N   1      35.227  15.446   8.299  0.00  0.00    -0.257 OA
BRANCH  24  26
HETATM   26  C   UNK N   1      34.066  17.564   8.574  0.00  0.00     0.174 C 
BRANCH  26  27
HETATM   27  C   UNK N   1      33.484  17.506   7.199  0.00  0.00     0.064 A 
HETATM   28  C   UNK N   1      32.181  17.188   6.896  0.00  0.00     0.035 A 
HETATM   29  C   UNK N   1      32.094  17.278   5.518  0.00  0.00     0.027 A 
HETATM   30  C   UNK N   1      33.351  17.649   5.071  0.00  0.00     0.142 A 
HETATM   31  O   UNK N   1      34.150  17.777   6.104  0.00  0.00    -0.326 OA
ENDBRANCH  26  27
ENDBRANCH  24  26
ENDBRANCH  23  24
ENDBRANCH  21  23
BRANCH  21  32
HETATM   32  O   UNK N   1      36.506  15.302  12.434  0.00  0.00    -0.349 OA
HETATM   33  H   UNK N   1      36.048  15.051  13.213  0.00  0.00     0.219 HD
ENDBRANCH  21  32
ENDBRANCH  19  20
ENDBRANCH   1  19
TORSDOF 12
ENDMDL
