MODEL 1
REMARK VINA RESULT:      -8.1      0.000      0.000
REMARK  8 active torsions:
REMARK  status: ('A' for Active; 'I' for Inactive)
REMARK    1  A    between atoms: C_5  and  O_7 
REMARK    2  A    between atoms: C_8  and  O_7 
REMARK    3  A    between atoms: C_13  and  O_17 
REMARK    4  A    between atoms: O_17  and  C_18 
REMARK    5  A    between atoms: C_18  and  C_19 
REMARK    6  A    between atoms: N_22  and  C_25 
REMARK    7  A    between atoms: C_25  and  C_26 
REMARK    8  A    between atoms: C_26  and  O_32 
ROOT
HETATM    1  O   UNK N   1      29.850  17.199   5.809  0.00  0.00    -0.333 OA
ENDROOT
BRANCH   1   2
HETATM    2  C   UNK N   1      28.927  17.800   5.039  0.00  0.00     0.178 A 
HETATM    3  C   UNK N   1      28.145  18.835   5.454  0.00  0.00     0.086 A 
HETATM    4  C   UNK N   1      27.390  19.161   4.374  0.00  0.00     0.116 A 
HETATM    5  C   UNK N   1      28.058  19.506   6.669  0.00  0.00     0.086 A 
HETATM    6  C   UNK N   1      26.467  20.203   4.414  0.00  0.00     0.040 A 
HETATM    7  O   UNK N   1      27.704  18.359   3.378  0.00  0.00    -0.235 OA
HETATM    8  C   UNK N   1      26.344  20.917   5.626  0.00  0.00     0.006 A 
HETATM    9  C   UNK N   1      27.136  20.573   6.750  0.00  0.00     0.038 A 
HETATM   10  N   UNK N   1      28.640  17.517   3.749  0.00  0.00    -0.238 N 
ATOM     11  HN  UNK N   1      29.066  16.790   3.175  1.00  0.00     0.197 HD
BRANCH   5  12
HETATM   12  O   UNK N   1      28.850  19.126   7.704  0.00  0.00    -0.343 OA
BRANCH  12  13
HETATM   13  C   UNK N   1      28.404  18.600   8.899  0.00  0.00     0.154 C 
HETATM   14  C   UNK N   1      29.573  18.259   9.769  0.00  0.00     0.061 C 
HETATM   15  C   UNK N   1      29.107  17.010  10.494  0.00  0.00     0.170 C 
HETATM   16  O   UNK N   1      27.856  16.621   9.981  0.00  0.00    -0.389 OA
HETATM   17  C   UNK N   1      27.763  17.250   8.733  0.00  0.00     0.200 C 
ENDBRANCH  12  13
ENDBRANCH   5  12
ENDBRANCH   1   2
BRANCH   1  18
HETATM   18  C   UNK N   1      31.142  16.922   5.444  0.00  0.00     0.182 C 
BRANCH  18  19
HETATM   19  C   UNK N   1      32.003  17.235   6.658  0.00  0.00     0.013 C 
HETATM   20  C   UNK N   1      33.461  17.492   6.300  0.00  0.00     0.037 C 
HETATM   21  C   UNK N   1      34.229  17.799   7.591  0.00  0.00     0.273 C 
HETATM   22  N   UNK N   1      34.118  16.669   8.519  0.00  0.00     0.091 N 
HETATM   23  C   UNK N   1      32.723  16.503   8.910  0.00  0.00     0.273 C 
HETATM   24  C   UNK N   1      31.899  16.117   7.694  0.00  0.00     0.037 C 
BRANCH  22  25
HETATM   25  C   UNK N   1      34.851  16.960   9.745  0.00  0.00     0.310 C 
BRANCH  25  26
HETATM   26  C   UNK N   1      35.593  15.736  10.274  0.00  0.00     0.088 C 
HETATM   27  C   UNK N   1      34.767  15.038  11.359  0.00  0.00     0.066 C 
HETATM   28  C   UNK N   1      35.404  13.684  11.687  0.00  0.00     0.170 C 
HETATM   29  O   UNK N   1      35.425  12.880  10.532  0.00  0.00    -0.391 OA
HETATM   30  C   UNK N   1      36.371  13.449   9.659  0.00  0.00     0.170 C 
HETATM   31  C   UNK N   1      35.821  14.769   9.111  0.00  0.00     0.066 C 
BRANCH  26  32
HETATM   32  O   UNK N   1      36.832  16.122  10.795  0.00  0.00    -0.388 OA
HETATM   33  H   UNK N   1      37.540  16.470  11.360  0.00  0.00     0.210 HD
ENDBRANCH  26  32
ENDBRANCH  25  26
ENDBRANCH  22  25
ENDBRANCH  18  19
ENDBRANCH   1  18
TORSDOF 8
ENDMDL
MODEL 2
REMARK VINA RESULT:      -7.4      4.399      6.531
REMARK  8 active torsions:
REMARK  status: ('A' for Active; 'I' for Inactive)
REMARK    1  A    between atoms: C_5  and  O_7 
REMARK    2  A    between atoms: C_8  and  O_7 
REMARK    3  A    between atoms: C_13  and  O_17 
REMARK    4  A    between atoms: O_17  and  C_18 
REMARK    5  A    between atoms: C_18  and  C_19 
REMARK    6  A    between atoms: N_22  and  C_25 
REMARK    7  A    between atoms: C_25  and  C_26 
REMARK    8  A    between atoms: C_26  and  O_32 
ROOT
HETATM    1  O   UNK N   1      24.565  18.429   4.320  0.00  0.00    -0.333 OA
ENDROOT
BRANCH   1   2
HETATM    2  C   UNK N   1      23.843  19.371   3.691  0.00  0.00     0.178 A 
HETATM    3  C   UNK N   1      22.516  19.254   3.409  0.00  0.00     0.086 A 
HETATM    4  C   UNK N   1      22.179  20.425   2.810  0.00  0.00     0.116 A 
HETATM    5  C   UNK N   1      21.601  18.234   3.645  0.00  0.00     0.086 A 
HETATM    6  C   UNK N   1      20.877  20.684   2.389  0.00  0.00     0.040 A 
HETATM    7  O   UNK N   1      23.249  21.189   2.736  0.00  0.00    -0.235 OA
HETATM    8  C   UNK N   1      19.910  19.678   2.610  0.00  0.00     0.006 A 
HETATM    9  C   UNK N   1      20.267  18.458   3.236  0.00  0.00     0.038 A 
HETATM   10  N   UNK N   1      24.282  20.577   3.266  0.00  0.00    -0.238 N 
ATOM     11  HN  UNK N   1      25.232  20.941   3.341  1.00  0.00     0.197 HD
BRANCH   5  12
HETATM   12  O   UNK N   1      22.012  17.092   4.253  0.00  0.00    -0.343 OA
BRANCH  12  13
HETATM   13  C   UNK N   1      21.842  16.794   5.589  0.00  0.00     0.154 C 
HETATM   14  C   UNK N   1      20.620  15.949   5.768  0.00  0.00     0.061 C 
HETATM   15  C   UNK N   1      20.067  16.425   7.099  0.00  0.00     0.170 C 
HETATM   16  O   UNK N   1      20.832  17.515   7.551  0.00  0.00    -0.389 OA
HETATM   17  C   UNK N   1      21.482  18.002   6.410  0.00  0.00     0.200 C 
ENDBRANCH  12  13
ENDBRANCH   5  12
ENDBRANCH   1   2
BRANCH   1  18
HETATM   18  C   UNK N   1      25.717  17.854   3.852  0.00  0.00     0.182 C 
BRANCH  18  19
HETATM   19  C   UNK N   1      26.663  17.769   5.040  0.00  0.00     0.013 C 
HETATM   20  C   UNK N   1      27.629  18.944   5.114  0.00  0.00     0.037 C 
HETATM   21  C   UNK N   1      28.526  18.755   6.344  0.00  0.00     0.273 C 
HETATM   22  N   UNK N   1      29.261  17.490   6.238  0.00  0.00     0.091 N 
HETATM   23  C   UNK N   1      28.314  16.381   6.257  0.00  0.00     0.273 C 
HETATM   24  C   UNK N   1      27.432  16.448   5.022  0.00  0.00     0.037 C 
BRANCH  22  25
HETATM   25  C   UNK N   1      30.115  17.314   7.405  0.00  0.00     0.310 C 
BRANCH  25  26
HETATM   26  C   UNK N   1      31.537  16.919   7.021  0.00  0.00     0.088 C 
HETATM   27  C   UNK N   1      31.816  17.279   5.558  0.00  0.00     0.066 C 
HETATM   28  C   UNK N   1      33.312  17.115   5.273  0.00  0.00     0.170 C 
HETATM   29  O   UNK N   1      34.050  17.973   6.109  0.00  0.00    -0.391 OA
HETATM   30  C   UNK N   1      33.938  17.460   7.415  0.00  0.00     0.170 C 
HETATM   31  C   UNK N   1      32.511  17.679   7.923  0.00  0.00     0.066 C 
BRANCH  26  32
HETATM   32  O   UNK N   1      31.716  15.545   7.213  0.00  0.00    -0.388 OA
HETATM   33  H   UNK N   1      32.095  14.657   7.307  0.00  0.00     0.210 HD
ENDBRANCH  26  32
ENDBRANCH  25  26
ENDBRANCH  22  25
ENDBRANCH  18  19
ENDBRANCH   1  18
TORSDOF 8
ENDMDL
MODEL 3
REMARK VINA RESULT:      -7.4      5.336     11.996
REMARK  8 active torsions:
REMARK  status: ('A' for Active; 'I' for Inactive)
REMARK    1  A    between atoms: C_5  and  O_7 
REMARK    2  A    between atoms: C_8  and  O_7 
REMARK    3  A    between atoms: C_13  and  O_17 
REMARK    4  A    between atoms: O_17  and  C_18 
REMARK    5  A    between atoms: C_18  and  C_19 
REMARK    6  A    between atoms: N_22  and  C_25 
REMARK    7  A    between atoms: C_25  and  C_26 
REMARK    8  A    between atoms: C_26  and  O_32 
ROOT
HETATM    1  O   UNK N   1      35.525  13.384  16.113  0.00  0.00    -0.333 OA
ENDROOT
BRANCH   1   2
HETATM    2  C   UNK N   1      35.378  13.174  17.432  0.00  0.00     0.178 A 
HETATM    3  C   UNK N   1      35.229  11.944  17.997  0.00  0.00     0.086 A 
HETATM    4  C   UNK N   1      35.150  12.177  19.332  0.00  0.00     0.116 A 
HETATM    5  C   UNK N   1      35.174  10.668  17.446  0.00  0.00     0.086 A 
HETATM    6  C   UNK N   1      35.008  11.139  20.249  0.00  0.00     0.040 A 
HETATM    7  O   UNK N   1      35.241  13.473  19.544  0.00  0.00    -0.235 OA
HETATM    8  C   UNK N   1      34.951   9.823  19.738  0.00  0.00     0.006 A 
HETATM    9  C   UNK N   1      35.035   9.585  18.343  0.00  0.00     0.038 A 
HETATM   10  N   UNK N   1      35.382  14.112  18.406  0.00  0.00    -0.238 N 
ATOM     11  HN  UNK N   1      35.476  15.120  18.282  1.00  0.00     0.197 HD
BRANCH   5  12
HETATM   12  O   UNK N   1      35.264  10.514  16.101  0.00  0.00    -0.343 OA
BRANCH  12  13
HETATM   13  C   UNK N   1      36.099   9.627  15.454  0.00  0.00     0.154 C 
HETATM   14  C   UNK N   1      37.419  10.279  15.185  0.00  0.00     0.061 C 
HETATM   15  C   UNK N   1      37.826   9.687  13.848  0.00  0.00     0.170 C 
HETATM   16  O   UNK N   1      36.777   8.886  13.361  0.00  0.00    -0.389 OA
HETATM   17  C   UNK N   1      35.640   9.315  14.057  0.00  0.00     0.200 C 
ENDBRANCH  12  13
ENDBRANCH   5  12
ENDBRANCH   1   2
BRANCH   1  18
HETATM   18  C   UNK N   1      36.664  13.827  15.492  0.00  0.00     0.182 C 
BRANCH  18  19
HETATM   19  C   UNK N   1      36.396  13.738  13.998  0.00  0.00     0.013 C 
HETATM   20  C   UNK N   1      36.326  15.103  13.326  0.00  0.00     0.037 C 
HETATM   21  C   UNK N   1      36.058  14.893  11.831  0.00  0.00     0.273 C 
HETATM   22  N   UNK N   1      34.799  14.163  11.646  0.00  0.00     0.091 N 
HETATM   23  C   UNK N   1      34.928  12.830  12.224  0.00  0.00     0.273 C 
HETATM   24  C   UNK N   1      35.118  12.946  13.727  0.00  0.00     0.037 C 
BRANCH  22  25
HETATM   25  C   UNK N   1      34.544  13.967  10.226  0.00  0.00     0.310 C 
BRANCH  25  26
HETATM   26  C   UNK N   1      33.457  14.901   9.703  0.00  0.00     0.088 C 
HETATM   27  C   UNK N   1      34.063  16.241   9.277  0.00  0.00     0.066 C 
HETATM   28  C   UNK N   1      33.008  17.057   8.523  0.00  0.00     0.170 C 
HETATM   29  O   UNK N   1      32.594  16.351   7.378  0.00  0.00    -0.391 OA
HETATM   30  C   UNK N   1      31.848  15.247   7.831  0.00  0.00     0.170 C 
HETATM   31  C   UNK N   1      32.790  14.240   8.495  0.00  0.00     0.066 C 
BRANCH  26  32
HETATM   32  O   UNK N   1      32.494  15.110  10.697  0.00  0.00    -0.388 OA
HETATM   33  H   UNK N   1      31.661  15.223  11.180  0.00  0.00     0.210 HD
ENDBRANCH  26  32
ENDBRANCH  25  26
ENDBRANCH  22  25
ENDBRANCH  18  19
ENDBRANCH   1  18
TORSDOF 8
ENDMDL
MODEL 4
REMARK VINA RESULT:      -7.2      6.527     10.302
REMARK  8 active torsions:
REMARK  status: ('A' for Active; 'I' for Inactive)
REMARK    1  A    between atoms: C_5  and  O_7 
REMARK    2  A    between atoms: C_8  and  O_7 
REMARK    3  A    between atoms: C_13  and  O_17 
REMARK    4  A    between atoms: O_17  and  C_18 
REMARK    5  A    between atoms: C_18  and  C_19 
REMARK    6  A    between atoms: N_22  and  C_25 
REMARK    7  A    between atoms: C_25  and  C_26 
REMARK    8  A    between atoms: C_26  and  O_32 
ROOT
HETATM    1  O   UNK N   1      24.887  13.667   8.743  0.00  0.00    -0.333 OA
ENDROOT
BRANCH   1   2
HETATM    2  C   UNK N   1      24.498  13.068   9.881  0.00  0.00     0.178 A 
HETATM    3  C   UNK N   1      23.198  12.903  10.252  0.00  0.00     0.086 A 
HETATM    4  C   UNK N   1      23.250  12.230  11.429  0.00  0.00     0.116 A 
HETATM    5  C   UNK N   1      22.004  13.276   9.644  0.00  0.00     0.086 A 
HETATM    6  C   UNK N   1      22.094  11.862  12.114  0.00  0.00     0.040 A 
HETATM    7  O   UNK N   1      24.511  12.014  11.741  0.00  0.00    -0.235 OA
HETATM    8  C   UNK N   1      20.855  12.215  11.534  0.00  0.00     0.006 A 
HETATM    9  C   UNK N   1      20.807  12.917  10.304  0.00  0.00     0.038 A 
HETATM   10  N   UNK N   1      25.300  12.511  10.817  0.00  0.00    -0.238 N 
ATOM     11  HN  UNK N   1      26.319  12.483  10.808  1.00  0.00     0.197 HD
BRANCH   5  12
HETATM   12  O   UNK N   1      22.032  13.944   8.463  0.00  0.00    -0.343 OA
BRANCH  12  13
HETATM   13  C   UNK N   1      20.998  14.697   7.948  0.00  0.00     0.154 C 
HETATM   14  C   UNK N   1      21.373  15.212   6.594  0.00  0.00     0.061 C 
HETATM   15  C   UNK N   1      20.715  16.580   6.554  0.00  0.00     0.170 C 
HETATM   16  O   UNK N   1      20.142  16.850   7.811  0.00  0.00    -0.389 OA
HETATM   17  C   UNK N   1      20.788  15.982   8.699  0.00  0.00     0.200 C 
ENDBRANCH  12  13
ENDBRANCH   5  12
ENDBRANCH   1   2
BRANCH   1  18
HETATM   18  C   UNK N   1      25.013  13.063   7.520  0.00  0.00     0.182 C 
BRANCH  18  19
HETATM   19  C   UNK N   1      25.711  14.068   6.618  0.00  0.00     0.013 C 
HETATM   20  C   UNK N   1      26.128  15.336   7.354  0.00  0.00     0.037 C 
HETATM   21  C   UNK N   1      26.820  16.269   6.354  0.00  0.00     0.273 C 
HETATM   22  N   UNK N   1      25.906  16.590   5.253  0.00  0.00     0.091 N 
HETATM   23  C   UNK N   1      25.595  15.371   4.516  0.00  0.00     0.273 C 
HETATM   24  C   UNK N   1      24.832  14.416   5.417  0.00  0.00     0.037 C 
BRANCH  22  25
HETATM   25  C   UNK N   1      26.565  17.480   4.305  0.00  0.00     0.310 C 
BRANCH  25  26
HETATM   26  C   UNK N   1      25.881  18.842   4.227  0.00  0.00     0.088 C 
HETATM   27  C   UNK N   1      26.720  19.814   3.391  0.00  0.00     0.066 C 
HETATM   28  C   UNK N   1      25.901  21.077   3.111  0.00  0.00     0.170 C 
HETATM   29  O   UNK N   1      24.737  20.737   2.396  0.00  0.00    -0.391 OA
HETATM   30  C   UNK N   1      23.905  20.035   3.286  0.00  0.00     0.170 C 
HETATM   31  C   UNK N   1      24.513  18.658   3.567  0.00  0.00     0.066 C 
BRANCH  26  32
HETATM   32  O   UNK N   1      25.700  19.356   5.515  0.00  0.00    -0.388 OA
HETATM   33  H   UNK N   1      25.322  19.645   6.360  0.00  0.00     0.210 HD
ENDBRANCH  26  32
ENDBRANCH  25  26
ENDBRANCH  22  25
ENDBRANCH  18  19
ENDBRANCH   1  18
TORSDOF 8
ENDMDL
MODEL 5
REMARK VINA RESULT:      -7.1      4.227     10.664
REMARK  8 active torsions:
REMARK  status: ('A' for Active; 'I' for Inactive)
REMARK    1  A    between atoms: C_5  and  O_7 
REMARK    2  A    between atoms: C_8  and  O_7 
REMARK    3  A    between atoms: C_13  and  O_17 
REMARK    4  A    between atoms: O_17  and  C_18 
REMARK    5  A    between atoms: C_18  and  C_19 
REMARK    6  A    between atoms: N_22  and  C_25 
REMARK    7  A    between atoms: C_25  and  C_26 
REMARK    8  A    between atoms: C_26  and  O_32 
ROOT
HETATM    1  O   UNK N   1      36.307  13.243  13.500  0.00  0.00    -0.333 OA
ENDROOT
BRANCH   1   2
HETATM    2  C   UNK N   1      36.541  14.066  14.536  0.00  0.00     0.178 A 
HETATM    3  C   UNK N   1      36.041  13.876  15.788  0.00  0.00     0.086 A 
HETATM    4  C   UNK N   1      36.541  14.901  16.526  0.00  0.00     0.116 A 
HETATM    5  C   UNK N   1      35.216  12.892  16.321  0.00  0.00     0.086 A 
HETATM    6  C   UNK N   1      36.257  15.033  17.883  0.00  0.00     0.040 A 
HETATM    7  O   UNK N   1      37.289  15.657  15.750  0.00  0.00    -0.235 OA
HETATM    8  C   UNK N   1      35.425  14.054  18.471  0.00  0.00     0.006 A 
HETATM    9  C   UNK N   1      34.907  12.986  17.697  0.00  0.00     0.038 A 
HETATM   10  N   UNK N   1      37.312  15.176  14.530  0.00  0.00    -0.238 N 
ATOM     11  HN  UNK N   1      37.814  15.566  13.732  1.00  0.00     0.197 HD
BRANCH   5  12
HETATM   12  O   UNK N   1      34.758  11.895  15.522  0.00  0.00    -0.343 OA
BRANCH  12  13
HETATM   13  C   UNK N   1      35.083  10.560  15.645  0.00  0.00     0.154 C 
HETATM   14  C   UNK N   1      36.564  10.411  15.795  0.00  0.00     0.061 C 
HETATM   15  C   UNK N   1      36.854   9.117  15.057  0.00  0.00     0.170 C 
HETATM   16  O   UNK N   1      35.670   8.661  14.447  0.00  0.00    -0.389 OA
HETATM   17  C   UNK N   1      34.840   9.787  14.379  0.00  0.00     0.200 C 
ENDBRANCH  12  13
ENDBRANCH   5  12
ENDBRANCH   1   2
BRANCH   1  18
HETATM   18  C   UNK N   1      36.702  13.451  12.204  0.00  0.00     0.182 C 
BRANCH  18  19
HETATM   19  C   UNK N   1      35.708  14.436  11.609  0.00  0.00     0.013 C 
HETATM   20  C   UNK N   1      34.746  13.786  10.624  0.00  0.00     0.037 C 
HETATM   21  C   UNK N   1      33.794  14.864  10.094  0.00  0.00     0.273 C 
HETATM   22  N   UNK N   1      34.560  15.930   9.438  0.00  0.00     0.091 N 
HETATM   23  C   UNK N   1      35.407  16.590  10.425  0.00  0.00     0.273 C 
HETATM   24  C   UNK N   1      36.438  15.604  10.947  0.00  0.00     0.037 C 
BRANCH  22  25
HETATM   25  C   UNK N   1      33.654  16.952   8.932  0.00  0.00     0.310 C 
BRANCH  25  26
HETATM   26  C   UNK N   1      33.762  17.117   7.419  0.00  0.00     0.088 C 
HETATM   27  C   UNK N   1      34.398  15.873   6.790  0.00  0.00     0.066 C 
HETATM   28  C   UNK N   1      34.260  15.950   5.267  0.00  0.00     0.170 C 
HETATM   29  O   UNK N   1      32.897  15.999   4.918  0.00  0.00    -0.391 OA
HETATM   30  C   UNK N   1      32.421  17.260   5.323  0.00  0.00     0.170 C 
HETATM   31  C   UNK N   1      32.355  17.307   6.852  0.00  0.00     0.066 C 
BRANCH  26  32
HETATM   32  O   UNK N   1      34.531  18.247   7.119  0.00  0.00    -0.388 OA
HETATM   33  H   UNK N   1      35.122  19.014   7.170  0.00  0.00     0.210 HD
ENDBRANCH  26  32
ENDBRANCH  25  26
ENDBRANCH  22  25
ENDBRANCH  18  19
ENDBRANCH   1  18
TORSDOF 8
ENDMDL
MODEL 6
REMARK VINA RESULT:      -7.1      1.490      1.938
REMARK  8 active torsions:
REMARK  status: ('A' for Active; 'I' for Inactive)
REMARK    1  A    between atoms: C_5  and  O_7 
REMARK    2  A    between atoms: C_8  and  O_7 
REMARK    3  A    between atoms: C_13  and  O_17 
REMARK    4  A    between atoms: O_17  and  C_18 
REMARK    5  A    between atoms: C_18  and  C_19 
REMARK    6  A    between atoms: N_22  and  C_25 
REMARK    7  A    between atoms: C_25  and  C_26 
REMARK    8  A    between atoms: C_26  and  O_32 
ROOT
HETATM    1  O   UNK N   1      30.310  16.489   5.152  0.00  0.00    -0.333 OA
ENDROOT
BRANCH   1   2
HETATM    2  C   UNK N   1      29.279  16.277   4.318  0.00  0.00     0.178 A 
HETATM    3  C   UNK N   1      28.092  16.942   4.387  0.00  0.00     0.086 A 
HETATM    4  C   UNK N   1      27.356  16.457   3.354  0.00  0.00     0.116 A 
HETATM    5  C   UNK N   1      27.627  17.925   5.252  0.00  0.00     0.086 A 
HETATM    6  C   UNK N   1      26.069  16.920   3.092  0.00  0.00     0.040 A 
HETATM    7  O   UNK N   1      28.066  15.550   2.715  0.00  0.00    -0.235 OA
HETATM    8  C   UNK N   1      25.553  17.922   3.942  0.00  0.00     0.006 A 
HETATM    9  C   UNK N   1      26.326  18.426   5.018  0.00  0.00     0.038 A 
HETATM   10  N   UNK N   1      29.245  15.417   3.275  0.00  0.00    -0.238 N 
ATOM     11  HN  UNK N   1      29.990  14.785   2.981  1.00  0.00     0.197 HD
BRANCH   5  12
HETATM   12  O   UNK N   1      28.423  18.365   6.260  0.00  0.00    -0.343 OA
BRANCH  12  13
HETATM   13  C   UNK N   1      28.056  18.454   7.586  0.00  0.00     0.154 C 
HETATM   14  C   UNK N   1      29.234  18.870   8.410  0.00  0.00     0.061 C 
HETATM   15  C   UNK N   1      29.027  18.112   9.709  0.00  0.00     0.170 C 
HETATM   16  O   UNK N   1      27.915  17.260   9.572  0.00  0.00    -0.389 OA
HETATM   17  C   UNK N   1      27.737  17.115   8.190  0.00  0.00     0.200 C 
ENDBRANCH  12  13
ENDBRANCH   5  12
ENDBRANCH   1   2
BRANCH   1  18
HETATM   18  C   UNK N   1      31.435  17.219   4.869  0.00  0.00     0.182 C 
BRANCH  18  19
HETATM   19  C   UNK N   1      32.155  17.423   6.193  0.00  0.00     0.013 C 
HETATM   20  C   UNK N   1      33.668  17.297   6.071  0.00  0.00     0.037 C 
HETATM   21  C   UNK N   1      34.285  17.523   7.456  0.00  0.00     0.273 C 
HETATM   22  N   UNK N   1      33.761  16.534   8.405  0.00  0.00     0.091 N 
HETATM   23  C   UNK N   1      32.325  16.736   8.566  0.00  0.00     0.273 C 
HETATM   24  C   UNK N   1      31.624  16.453   7.248  0.00  0.00     0.037 C 
BRANCH  22  25
HETATM   25  C   UNK N   1      34.350  16.748   9.720  0.00  0.00     0.310 C 
BRANCH  25  26
HETATM   26  C   UNK N   1      34.600  15.435  10.457  0.00  0.00     0.088 C 
HETATM   27  C   UNK N   1      35.046  14.347   9.475  0.00  0.00     0.066 C 
HETATM   28  C   UNK N   1      35.537  13.127  10.259  0.00  0.00     0.170 C 
HETATM   29  O   UNK N   1      36.627  13.494  11.070  0.00  0.00    -0.391 OA
HETATM   30  C   UNK N   1      36.115  14.317  12.090  0.00  0.00     0.170 C 
HETATM   31  C   UNK N   1      35.703  15.664  11.492  0.00  0.00     0.066 C 
BRANCH  26  32
HETATM   32  O   UNK N   1      33.434  15.031  11.115  0.00  0.00    -0.388 OA
HETATM   33  H   UNK N   1      32.760  14.835  11.784  0.00  0.00     0.210 HD
ENDBRANCH  26  32
ENDBRANCH  25  26
ENDBRANCH  22  25
ENDBRANCH  18  19
ENDBRANCH   1  18
TORSDOF 8
ENDMDL
MODEL 7
REMARK VINA RESULT:      -7.1     12.370     15.500
REMARK  8 active torsions:
REMARK  status: ('A' for Active; 'I' for Inactive)
REMARK    1  A    between atoms: C_5  and  O_7 
REMARK    2  A    between atoms: C_8  and  O_7 
REMARK    3  A    between atoms: C_13  and  O_17 
REMARK    4  A    between atoms: O_17  and  C_18 
REMARK    5  A    between atoms: C_18  and  C_19 
REMARK    6  A    between atoms: N_22  and  C_25 
REMARK    7  A    between atoms: C_25  and  C_26 
REMARK    8  A    between atoms: C_26  and  O_32 
ROOT
HETATM    1  O   UNK N   1      26.235  25.407  -4.085  0.00  0.00    -0.333 OA
ENDROOT
BRANCH   1   2
HETATM    2  C   UNK N   1      26.484  26.677  -3.726  0.00  0.00     0.178 A 
HETATM    3  C   UNK N   1      26.974  27.627  -4.569  0.00  0.00     0.086 A 
HETATM    4  C   UNK N   1      27.041  28.760  -3.824  0.00  0.00     0.116 A 
HETATM    5  C   UNK N   1      27.342  27.580  -5.910  0.00  0.00     0.086 A 
HETATM    6  C   UNK N   1      27.487  29.965  -4.361  0.00  0.00     0.040 A 
HETATM    7  O   UNK N   1      26.620  28.492  -2.605  0.00  0.00    -0.235 OA
HETATM    8  C   UNK N   1      27.868  29.969  -5.721  0.00  0.00     0.006 A 
HETATM    9  C   UNK N   1      27.796  28.783  -6.495  0.00  0.00     0.038 A 
HETATM   10  N   UNK N   1      26.271  27.231  -2.510  0.00  0.00    -0.238 N 
ATOM     11  HN  UNK N   1      25.910  26.760  -1.681  1.00  0.00     0.197 HD
BRANCH   5  12
HETATM   12  O   UNK N   1      27.242  26.411  -6.592  0.00  0.00    -0.343 OA
BRANCH  12  13
HETATM   13  C   UNK N   1      26.272  26.111  -7.525  0.00  0.00     0.154 C 
HETATM   14  C   UNK N   1      25.853  24.683  -7.378  0.00  0.00     0.061 C 
HETATM   15  C   UNK N   1      25.576  24.259  -8.809  0.00  0.00     0.170 C 
HETATM   16  O   UNK N   1      25.932  25.309  -9.676  0.00  0.00    -0.389 OA
HETATM   17  C   UNK N   1      26.801  26.116  -8.932  0.00  0.00     0.200 C 
ENDBRANCH  12  13
ENDBRANCH   5  12
ENDBRANCH   1   2
BRANCH   1  18
HETATM   18  C   UNK N   1      26.563  24.289  -3.364  0.00  0.00     0.182 C 
BRANCH  18  19
HETATM   19  C   UNK N   1      28.070  24.130  -3.485  0.00  0.00     0.013 C 
HETATM   20  C   UNK N   1      28.504  23.613  -4.850  0.00  0.00     0.037 C 
HETATM   21  C   UNK N   1      30.033  23.496  -4.858  0.00  0.00     0.273 C 
HETATM   22  N   UNK N   1      30.471  22.582  -3.798  0.00  0.00     0.091 N 
HETATM   23  C   UNK N   1      30.118  23.147  -2.500  0.00  0.00     0.273 C 
HETATM   24  C   UNK N   1      28.606  23.224  -2.377  0.00  0.00     0.037 C 
BRANCH  22  25
HETATM   25  C   UNK N   1      31.924  22.470  -3.809  0.00  0.00     0.310 C 
BRANCH  25  26
HETATM   26  C   UNK N   1      32.388  21.076  -4.220  0.00  0.00     0.088 C 
HETATM   27  C   UNK N   1      32.625  21.014  -5.732  0.00  0.00     0.066 C 
HETATM   28  C   UNK N   1      33.330  19.701  -6.081  0.00  0.00     0.170 C 
HETATM   29  O   UNK N   1      34.570  19.639  -5.417  0.00  0.00    -0.391 OA
HETATM   30  C   UNK N   1      34.287  19.470  -4.049  0.00  0.00     0.170 C 
HETATM   31  C   UNK N   1      33.697  20.768  -3.491  0.00  0.00     0.066 C 
BRANCH  26  32
HETATM   32  O   UNK N   1      31.428  20.128  -3.851  0.00  0.00    -0.388 OA
HETATM   33  H   UNK N   1      30.958  19.387  -3.437  0.00  0.00     0.210 HD
ENDBRANCH  26  32
ENDBRANCH  25  26
ENDBRANCH  22  25
ENDBRANCH  18  19
ENDBRANCH   1  18
TORSDOF 8
ENDMDL
MODEL 8
REMARK VINA RESULT:      -7.0      2.640      5.161
REMARK  8 active torsions:
REMARK  status: ('A' for Active; 'I' for Inactive)
REMARK    1  A    between atoms: C_5  and  O_7 
REMARK    2  A    between atoms: C_8  and  O_7 
REMARK    3  A    between atoms: C_13  and  O_17 
REMARK    4  A    between atoms: O_17  and  C_18 
REMARK    5  A    between atoms: C_18  and  C_19 
REMARK    6  A    between atoms: N_22  and  C_25 
REMARK    7  A    between atoms: C_25  and  C_26 
REMARK    8  A    between atoms: C_26  and  O_32 
ROOT
HETATM    1  O   UNK N   1      32.597  16.498   8.161  0.00  0.00    -0.333 OA
ENDROOT
BRANCH   1   2
HETATM    2  C   UNK N   1      31.393  17.080   8.290  0.00  0.00     0.178 A 
HETATM    3  C   UNK N   1      30.557  17.344   7.248  0.00  0.00     0.086 A 
HETATM    4  C   UNK N   1      29.452  17.894   7.813  0.00  0.00     0.116 A 
HETATM    5  C   UNK N   1      30.681  17.131   5.880  0.00  0.00     0.086 A 
HETATM    6  C   UNK N   1      28.356  18.284   7.049  0.00  0.00     0.040 A 
HETATM    7  O   UNK N   1      29.628  17.958   9.117  0.00  0.00    -0.235 OA
HETATM    8  C   UNK N   1      28.432  18.084   5.653  0.00  0.00     0.006 A 
HETATM    9  C   UNK N   1      29.588  17.509   5.068  0.00  0.00     0.038 A 
HETATM   10  N   UNK N   1      30.801  17.468   9.443  0.00  0.00    -0.238 N 
ATOM     11  HN  UNK N   1      31.190  17.396  10.382  1.00  0.00     0.197 HD
BRANCH   5  12
HETATM   12  O   UNK N   1      31.816  16.572   5.388  0.00  0.00    -0.343 OA
BRANCH  12  13
HETATM   13  C   UNK N   1      31.971  16.073   4.112  0.00  0.00     0.154 C 
HETATM   14  C   UNK N   1      32.585  14.710   4.172  0.00  0.00     0.061 C 
HETATM   15  C   UNK N   1      33.466  14.677   2.936  0.00  0.00     0.170 C 
HETATM   16  O   UNK N   1      33.444  15.942   2.322  0.00  0.00    -0.389 OA
HETATM   17  C   UNK N   1      33.006  16.822   3.320  0.00  0.00     0.200 C 
ENDBRANCH  12  13
ENDBRANCH   5  12
ENDBRANCH   1   2
BRANCH   1  18
HETATM   18  C   UNK N   1      33.807  17.141   8.185  0.00  0.00     0.182 C 
BRANCH  18  19
HETATM   19  C   UNK N   1      34.761  16.224   8.933  0.00  0.00     0.013 C 
HETATM   20  C   UNK N   1      34.245  14.795   9.046  0.00  0.00     0.037 C 
HETATM   21  C   UNK N   1      35.283  13.965   9.810  0.00  0.00     0.273 C 
HETATM   22  N   UNK N   1      35.502  14.540  11.142  0.00  0.00     0.091 N 
HETATM   23  C   UNK N   1      36.077  15.873  11.001  0.00  0.00     0.273 C 
HETATM   24  C   UNK N   1      35.074  16.787  10.319  0.00  0.00     0.037 C 
BRANCH  22  25
HETATM   25  C   UNK N   1      36.486  13.749  11.868  0.00  0.00     0.310 C 
BRANCH  25  26
HETATM   26  C   UNK N   1      35.911  13.153  13.150  0.00  0.00     0.088 C 
HETATM   27  C   UNK N   1      36.396  11.712  13.335  0.00  0.00     0.066 C 
HETATM   28  C   UNK N   1      36.023  11.228  14.739  0.00  0.00     0.170 C 
HETATM   29  O   UNK N   1      36.639  12.051  15.701  0.00  0.00    -0.391 OA
HETATM   30  C   UNK N   1      35.996  13.301  15.636  0.00  0.00     0.170 C 
HETATM   31  C   UNK N   1      36.383  14.001  14.332  0.00  0.00     0.066 C 
BRANCH  26  32
HETATM   32  O   UNK N   1      34.513  13.180  13.099  0.00  0.00    -0.388 OA
HETATM   33  H   UNK N   1      33.591  13.287  12.818  0.00  0.00     0.210 HD
ENDBRANCH  26  32
ENDBRANCH  25  26
ENDBRANCH  22  25
ENDBRANCH  18  19
ENDBRANCH   1  18
TORSDOF 8
ENDMDL
MODEL 9
REMARK VINA RESULT:      -7.0      3.020      9.971
REMARK  8 active torsions:
REMARK  status: ('A' for Active; 'I' for Inactive)
REMARK    1  A    between atoms: C_5  and  O_7 
REMARK    2  A    between atoms: C_8  and  O_7 
REMARK    3  A    between atoms: C_13  and  O_17 
REMARK    4  A    between atoms: O_17  and  C_18 
REMARK    5  A    between atoms: C_18  and  C_19 
REMARK    6  A    between atoms: N_22  and  C_25 
REMARK    7  A    between atoms: C_25  and  C_26 
REMARK    8  A    between atoms: C_26  and  O_32 
ROOT
HETATM    1  O   UNK N   1      35.859  13.816  11.919  0.00  0.00    -0.333 OA
ENDROOT
BRANCH   1   2
HETATM    2  C   UNK N   1      36.044  13.873  13.248  0.00  0.00     0.178 A 
HETATM    3  C   UNK N   1      35.522  12.976  14.130  0.00  0.00     0.086 A 
HETATM    4  C   UNK N   1      35.975  13.374  15.347  0.00  0.00     0.116 A 
HETATM    5  C   UNK N   1      34.714  11.859  13.951  0.00  0.00     0.086 A 
HETATM    6  C   UNK N   1      35.656  12.678  16.510  0.00  0.00     0.040 A 
HETATM    7  O   UNK N   1      36.718  14.450  15.193  0.00  0.00    -0.235 OA
HETATM    8  C   UNK N   1      34.841  11.533  16.379  0.00  0.00     0.006 A 
HETATM    9  C   UNK N   1      34.371  11.121  15.107  0.00  0.00     0.038 A 
HETATM   10  N   UNK N   1      36.783  14.781  13.924  0.00  0.00    -0.238 N 
ATOM     11  HN  UNK N   1      37.291  15.571  13.527  1.00  0.00     0.197 HD
BRANCH   5  12
HETATM   12  O   UNK N   1      34.305  11.520  12.703  0.00  0.00    -0.343 OA
BRANCH  12  13
HETATM   13  C   UNK N   1      34.528  10.304  12.092  0.00  0.00     0.154 C 
HETATM   14  C   UNK N   1      35.763  10.379  11.251  0.00  0.00     0.061 C 
HETATM   15  C   UNK N   1      35.427   9.488  10.069  0.00  0.00     0.170 C 
HETATM   16  O   UNK N   1      34.089   9.064  10.179  0.00  0.00    -0.389 OA
HETATM   17  C   UNK N   1      33.490   9.978  11.055  0.00  0.00     0.200 C 
ENDBRANCH  12  13
ENDBRANCH   5  12
ENDBRANCH   1   2
BRANCH   1  18
HETATM   18  C   UNK N   1      36.726  14.286  10.966  0.00  0.00     0.182 C 
BRANCH  18  19
HETATM   19  C   UNK N   1      35.881  15.063   9.968  0.00  0.00     0.013 C 
HETATM   20  C   UNK N   1      35.426  16.414  10.502  0.00  0.00     0.037 C 
HETATM   21  C   UNK N   1      34.591  17.106   9.418  0.00  0.00     0.273 C 
HETATM   22  N   UNK N   1      33.435  16.274   9.070  0.00  0.00     0.091 N 
HETATM   23  C   UNK N   1      33.902  15.023   8.482  0.00  0.00     0.273 C 
HETATM   24  C   UNK N   1      34.678  14.234   9.523  0.00  0.00     0.037 C 
BRANCH  22  25
HETATM   25  C   UNK N   1      32.641  16.933   8.042  0.00  0.00     0.310 C 
BRANCH  25  26
HETATM   26  C   UNK N   1      31.188  17.119   8.469  0.00  0.00     0.088 C 
HETATM   27  C   UNK N   1      30.935  18.570   8.888  0.00  0.00     0.066 C 
HETATM   28  C   UNK N   1      29.429  18.792   9.062  0.00  0.00     0.170 C 
HETATM   29  O   UNK N   1      28.771  18.541   7.844  0.00  0.00    -0.391 OA
HETATM   30  C   UNK N   1      28.844  17.153   7.623  0.00  0.00     0.170 C 
HETATM   31  C   UNK N   1      30.287  16.770   7.283  0.00  0.00     0.066 C 
BRANCH  26  32
HETATM   32  O   UNK N   1      30.894  16.260   9.533  0.00  0.00    -0.388 OA
HETATM   33  H   UNK N   1      30.665  15.894  10.402  0.00  0.00     0.210 HD
ENDBRANCH  26  32
ENDBRANCH  25  26
ENDBRANCH  22  25
ENDBRANCH  18  19
ENDBRANCH   1  18
TORSDOF 8
ENDMDL
