MODEL 1
REMARK VINA RESULT:      -7.1      0.000      0.000
REMARK  8 active torsions:
REMARK  status: ('A' for Active; 'I' for Inactive)
REMARK    1  A    between atoms: C_2  and  O_5 
REMARK    2  A    between atoms: O_5  and  C_6 
REMARK    3  A    between atoms: C_7  and  C_6 
REMARK       I    between atoms: N_13  and  C_14 
REMARK    4  A    between atoms: C_14  and  C_16 
REMARK    5  A    between atoms: C_16  and  C_17 
REMARK    6  A    between atoms: C_17  and  C_18 
REMARK    7  A    between atoms: C_17  and  N_28 
REMARK    8  A    between atoms: C_18  and  C_19 
ROOT
HETATM    1  C   UNK N   1      20.555  17.826   4.184  0.00  0.00     0.203 C 
HETATM    2  C   UNK N   1      20.196  17.257   2.813  0.00  0.00     0.242 C 
HETATM    3  O   UNK N   1      20.378  17.936   1.818  0.00  0.00    -0.271 OA
HETATM    4  N   UNK N   1      19.742  15.983   2.662  0.00  0.00    -0.358 N 
HETATM    5  C   UNK N   1      19.605  15.065   3.762  0.00  0.00     0.142 C 
HETATM    6  C   UNK N   1      19.270  15.819   5.012  0.00  0.00     0.146 C 
HETATM    7  N   UNK N   1      20.243  16.871   5.254  0.00  0.00    -0.335 N 
HETATM    8  C   UNK N   1      20.886  16.912   6.462  0.00  0.00     0.222 C 
HETATM    9  O   UNK N   1      21.451  17.936   6.826  0.00  0.00    -0.273 OA
HETATM   10  H   UNK N   1      19.496  15.676   1.759  0.00  0.00     0.162 HD
ENDROOT
BRANCH   8  11
HETATM   11  C   UNK N   1      21.139  15.662   7.255  0.00  0.00     0.127 C 
BRANCH  11  12
HETATM   12  C   UNK N   1      20.748  15.623   8.707  0.00  0.00     0.087 C 
BRANCH  12  13
HETATM   13  C   UNK N   1      20.430  14.209   9.173  0.00  0.00     0.067 C 
BRANCH  13  14
HETATM   14  C   UNK N   1      21.582  13.509   9.830  0.00  0.00    -0.015 A 
HETATM   15  C   UNK N   1      22.858  13.703   9.295  0.00  0.00     0.055 A 
HETATM   16  C   UNK N   1      23.963  13.054   9.847  0.00  0.00     0.155 A 
HETATM   17  C   UNK N   1      23.796  12.202  10.944  0.00  0.00     0.157 A 
HETATM   18  F   UNK N   1      25.192  13.245   9.312  0.00  0.00    -0.203 F 
HETATM   19  C   UNK N   1      22.526  12.002  11.486  0.00  0.00     0.088 A 
HETATM   20  F   UNK N   1      24.862  11.560  11.477  0.00  0.00    -0.203 F 
HETATM   21  C   UNK N   1      21.417  12.648  10.936  0.00  0.00     0.125 A 
HETATM   22  F   UNK N   1      20.197  12.404  11.467  0.00  0.00    -0.205 F 
ENDBRANCH  13  14
ENDBRANCH  12  13
BRANCH  12  23
HETATM   23  N   UNK N   1      19.607  16.506   8.899  0.00  0.00    -0.425 N 
HETATM   24  H   UNK N   1      19.092  17.376   8.760  0.00  0.00     0.150 HD
HETATM   25  H   UNK N   1      18.985  15.960   9.496  0.00  0.00     0.150 HD
ENDBRANCH  12  23
ENDBRANCH  11  12
ENDBRANCH   8  11
BRANCH   1  26
HETATM   26  C   UNK N   1      22.081  18.024   4.067  0.00  0.00     0.203 C 
BRANCH  26  27
HETATM   27  O   UNK N   1      22.752  16.824   3.763  0.00  0.00    -0.379 OA
BRANCH  27  28
HETATM   28  C   UNK N   1      24.107  16.913   4.173  0.00  0.00     0.050 C 
HETATM   29  C   UNK N   1      24.259  16.101   5.442  0.00  0.00     0.045 C 
HETATM   30  C   UNK N   1      25.065  16.320   3.144  0.00  0.00     0.045 C 
HETATM   31  C   UNK N   1      24.511  18.345   4.508  0.00  0.00     0.045 C 
ENDBRANCH  27  28
ENDBRANCH  26  27
ENDBRANCH   1  26
TORSDOF 8
ENDMDL
MODEL 2
REMARK VINA RESULT:      -6.9      2.066      2.552
REMARK  8 active torsions:
REMARK  status: ('A' for Active; 'I' for Inactive)
REMARK    1  A    between atoms: C_2  and  O_5 
REMARK    2  A    between atoms: O_5  and  C_6 
REMARK    3  A    between atoms: C_7  and  C_6 
REMARK       I    between atoms: N_13  and  C_14 
REMARK    4  A    between atoms: C_14  and  C_16 
REMARK    5  A    between atoms: C_16  and  C_17 
REMARK    6  A    between atoms: C_17  and  C_18 
REMARK    7  A    between atoms: C_17  and  N_28 
REMARK    8  A    between atoms: C_18  and  C_19 
ROOT
HETATM    1  C   UNK N   1      21.600  19.679   3.463  0.00  0.00     0.203 C 
HETATM    2  C   UNK N   1      21.155  19.769   2.005  0.00  0.00     0.242 C 
HETATM    3  O   UNK N   1      21.589  20.665   1.302  0.00  0.00    -0.271 OA
HETATM    4  N   UNK N   1      20.339  18.836   1.445  0.00  0.00    -0.358 N 
HETATM    5  C   UNK N   1      19.867  17.678   2.159  0.00  0.00     0.142 C 
HETATM    6  C   UNK N   1      19.716  18.007   3.613  0.00  0.00     0.146 C 
HETATM    7  N   UNK N   1      20.952  18.554   4.148  0.00  0.00    -0.335 N 
HETATM    8  C   UNK N   1      21.512  17.967   5.250  0.00  0.00     0.222 C 
HETATM    9  O   UNK N   1      22.346  18.571   5.915  0.00  0.00    -0.273 OA
HETATM   10  H   UNK N   1      20.057  18.959   0.509  0.00  0.00     0.162 HD
ENDROOT
BRANCH   8  11
HETATM   11  C   UNK N   1      21.325  16.505   5.537  0.00  0.00     0.127 C 
BRANCH  11  12
HETATM   12  C   UNK N   1      21.176  16.051   6.964  0.00  0.00     0.087 C 
BRANCH  12  13
HETATM   13  C   UNK N   1      20.536  14.673   7.058  0.00  0.00     0.067 C 
BRANCH  13  14
HETATM   14  C   UNK N   1      21.148  13.784   8.100  0.00  0.00    -0.015 A 
HETATM   15  C   UNK N   1      22.155  12.902   7.699  0.00  0.00     0.055 A 
HETATM   16  C   UNK N   1      22.740  12.032   8.619  0.00  0.00     0.155 A 
HETATM   17  C   UNK N   1      22.318  12.039   9.953  0.00  0.00     0.157 A 
HETATM   18  F   UNK N   1      23.708  11.177   8.213  0.00  0.00    -0.203 F 
HETATM   19  C   UNK N   1      21.314  12.917  10.363  0.00  0.00     0.088 A 
HETATM   20  F   UNK N   1      22.874  11.189  10.848  0.00  0.00    -0.203 F 
HETATM   21  C   UNK N   1      20.725  13.788   9.445  0.00  0.00     0.125 A 
HETATM   22  F   UNK N   1      19.731  14.602   9.873  0.00  0.00    -0.205 F 
ENDBRANCH  13  14
ENDBRANCH  12  13
BRANCH  12  23
HETATM   23  N   UNK N   1      20.390  17.043   7.682  0.00  0.00    -0.425 N 
HETATM   24  H   UNK N   1      20.277  17.829   8.323  0.00  0.00     0.150 HD
HETATM   25  H   UNK N   1      19.435  16.849   7.380  0.00  0.00     0.150 HD
ENDBRANCH  12  23
ENDBRANCH  11  12
ENDBRANCH   8  11
BRANCH   1  26
HETATM   26  C   UNK N   1      23.116  19.427   3.328  0.00  0.00     0.203 C 
BRANCH  26  27
HETATM   27  O   UNK N   1      23.880  20.524   3.771  0.00  0.00    -0.379 OA
BRANCH  27  28
HETATM   28  C   UNK N   1      25.244  20.151   3.872  0.00  0.00     0.050 C 
HETATM   29  C   UNK N   1      25.321  18.645   3.749  0.00  0.00     0.045 C 
HETATM   30  C   UNK N   1      26.091  20.737   2.745  0.00  0.00     0.045 C 
HETATM   31  C   UNK N   1      25.839  20.521   5.227  0.00  0.00     0.045 C 
ENDBRANCH  27  28
ENDBRANCH  26  27
ENDBRANCH   1  26
TORSDOF 8
ENDMDL
MODEL 3
REMARK VINA RESULT:      -6.9      1.002      1.930
REMARK  8 active torsions:
REMARK  status: ('A' for Active; 'I' for Inactive)
REMARK    1  A    between atoms: C_2  and  O_5 
REMARK    2  A    between atoms: O_5  and  C_6 
REMARK    3  A    between atoms: C_7  and  C_6 
REMARK       I    between atoms: N_13  and  C_14 
REMARK    4  A    between atoms: C_14  and  C_16 
REMARK    5  A    between atoms: C_16  and  C_17 
REMARK    6  A    between atoms: C_17  and  C_18 
REMARK    7  A    between atoms: C_17  and  N_28 
REMARK    8  A    between atoms: C_18  and  C_19 
ROOT
HETATM    1  C   UNK N   1      20.932  18.538   4.138  0.00  0.00     0.203 C 
HETATM    2  C   UNK N   1      20.689  18.299   2.649  0.00  0.00     0.242 C 
HETATM    3  O   UNK N   1      20.949  19.184   1.852  0.00  0.00    -0.271 OA
HETATM    4  N   UNK N   1      20.255  17.100   2.177  0.00  0.00    -0.358 N 
HETATM    5  C   UNK N   1      20.031  15.958   3.025  0.00  0.00     0.142 C 
HETATM    6  C   UNK N   1      19.590  16.415   4.382  0.00  0.00     0.146 C 
HETATM    7  N   UNK N   1      20.536  17.370   4.935  0.00  0.00    -0.335 N 
HETATM    8  C   UNK N   1      21.077  17.128   6.168  0.00  0.00     0.222 C 
HETATM    9  O   UNK N   1      21.605  18.035   6.800  0.00  0.00    -0.273 OA
HETATM   10  H   UNK N   1      20.085  17.009   1.210  0.00  0.00     0.162 HD
ENDROOT
BRANCH   8  11
HETATM   11  C   UNK N   1      21.268  15.727   6.675  0.00  0.00     0.127 C 
BRANCH  11  12
HETATM   12  C   UNK N   1      21.077  15.445   8.141  0.00  0.00     0.087 C 
BRANCH  12  13
HETATM   13  C   UNK N   1      20.877  13.961   8.413  0.00  0.00     0.067 C 
BRANCH  13  14
HETATM   14  C   UNK N   1      21.966  13.337   9.234  0.00  0.00    -0.015 A 
HETATM   15  C   UNK N   1      21.634  12.849  10.500  0.00  0.00     0.055 A 
HETATM   16  C   UNK N   1      22.612  12.285  11.319  0.00  0.00     0.155 A 
HETATM   17  C   UNK N   1      23.936  12.207  10.874  0.00  0.00     0.157 A 
HETATM   18  F   UNK N   1      22.276  11.824  12.547  0.00  0.00    -0.203 F 
HETATM   19  C   UNK N   1      24.278  12.692   9.611  0.00  0.00     0.088 A 
HETATM   20  F   UNK N   1      24.892  11.672  11.670  0.00  0.00    -0.203 F 
HETATM   21  C   UNK N   1      23.302  13.258   8.789  0.00  0.00     0.125 A 
HETATM   22  F   UNK N   1      23.678  13.748   7.584  0.00  0.00    -0.205 F 
ENDBRANCH  13  14
ENDBRANCH  12  13
BRANCH  12  23
HETATM   23  N   UNK N   1      19.941  16.222   8.613  0.00  0.00    -0.425 N 
HETATM   24  H   UNK N   1      19.511  16.991   9.130  0.00  0.00     0.150 HD
HETATM   25  H   UNK N   1      19.140  15.735   8.211  0.00  0.00     0.150 HD
ENDBRANCH  12  23
ENDBRANCH  11  12
ENDBRANCH   8  11
BRANCH   1  26
HETATM   26  C   UNK N   1      22.461  18.735   4.193  0.00  0.00     0.203 C 
BRANCH  26  27
HETATM   27  O   UNK N   1      23.160  17.621   3.691  0.00  0.00    -0.379 OA
BRANCH  27  28
HETATM   28  C   UNK N   1      24.463  17.578   4.250  0.00  0.00     0.050 C 
HETATM   29  C   UNK N   1      24.725  18.913   4.913  0.00  0.00     0.045 C 
HETATM   30  C   UNK N   1      24.595  16.507   5.330  0.00  0.00     0.045 C 
HETATM   31  C   UNK N   1      25.537  17.388   3.184  0.00  0.00     0.045 C 
ENDBRANCH  27  28
ENDBRANCH  26  27
ENDBRANCH   1  26
TORSDOF 8
ENDMDL
MODEL 4
REMARK VINA RESULT:      -6.8     11.757     13.846
REMARK  8 active torsions:
REMARK  status: ('A' for Active; 'I' for Inactive)
REMARK    1  A    between atoms: C_2  and  O_5 
REMARK    2  A    between atoms: O_5  and  C_6 
REMARK    3  A    between atoms: C_7  and  C_6 
REMARK       I    between atoms: N_13  and  C_14 
REMARK    4  A    between atoms: C_14  and  C_16 
REMARK    5  A    between atoms: C_16  and  C_17 
REMARK    6  A    between atoms: C_17  and  C_18 
REMARK    7  A    between atoms: C_17  and  N_28 
REMARK    8  A    between atoms: C_18  and  C_19 
ROOT
HETATM    1  C   UNK N   1      35.034  15.802   8.476  0.00  0.00     0.203 C 
HETATM    2  C   UNK N   1      34.763  17.039   9.331  0.00  0.00     0.242 C 
HETATM    3  O   UNK N   1      34.169  17.984   8.844  0.00  0.00    -0.271 OA
HETATM    4  N   UNK N   1      35.105  17.089  10.647  0.00  0.00    -0.358 N 
HETATM    5  C   UNK N   1      35.705  15.981  11.344  0.00  0.00     0.142 C 
HETATM    6  C   UNK N   1      36.550  15.185  10.397  0.00  0.00     0.146 C 
HETATM    7  N   UNK N   1      35.778  14.787   9.231  0.00  0.00    -0.335 N 
HETATM    8  C   UNK N   1      35.722  13.461   8.896  0.00  0.00     0.222 C 
HETATM    9  O   UNK N   1      35.372  13.122   7.772  0.00  0.00    -0.273 OA
HETATM   10  H   UNK N   1      34.936  17.922  11.145  0.00  0.00     0.162 HD
ENDROOT
BRANCH   8  11
HETATM   11  C   UNK N   1      35.837  12.387   9.939  0.00  0.00     0.127 C 
BRANCH  11  12
HETATM   12  C   UNK N   1      34.672  12.127  10.855  0.00  0.00     0.087 C 
BRANCH  12  13
HETATM   13  C   UNK N   1      35.052  11.214  12.013  0.00  0.00     0.067 C 
BRANCH  13  14
HETATM   14  C   UNK N   1      35.095  11.902  13.345  0.00  0.00    -0.015 A 
HETATM   15  C   UNK N   1      36.064  12.889  13.542  0.00  0.00     0.055 A 
HETATM   16  C   UNK N   1      36.170  13.541  14.770  0.00  0.00     0.155 A 
HETATM   17  C   UNK N   1      35.302  13.207  15.815  0.00  0.00     0.157 A 
HETATM   18  F   UNK N   1      37.120  14.490  14.948  0.00  0.00    -0.203 F 
HETATM   19  C   UNK N   1      34.331  12.223  15.629  0.00  0.00     0.088 A 
HETATM   20  F   UNK N   1      35.407  13.828  17.014  0.00  0.00    -0.203 F 
HETATM   21  C   UNK N   1      34.222  11.566  14.401  0.00  0.00     0.125 A 
HETATM   22  F   UNK N   1      33.289  10.594  14.268  0.00  0.00    -0.205 F 
ENDBRANCH  13  14
ENDBRANCH  12  13
BRANCH  12  23
HETATM   23  N   UNK N   1      33.589  11.554  10.070  0.00  0.00    -0.425 N 
HETATM   24  H   UNK N   1      33.091  11.370   9.199  0.00  0.00     0.150 HD
HETATM   25  H   UNK N   1      33.018  11.079  10.770  0.00  0.00     0.150 HD
ENDBRANCH  12  23
ENDBRANCH  11  12
ENDBRANCH   8  11
BRANCH   1  26
HETATM   26  C   UNK N   1      33.609  15.303   8.162  0.00  0.00     0.203 C 
BRANCH  26  27
HETATM   27  O   UNK N   1      33.314  15.364   6.786  0.00  0.00    -0.379 OA
BRANCH  27  28
HETATM   28  C   UNK N   1      32.005  15.875   6.597  0.00  0.00     0.050 C 
HETATM   29  C   UNK N   1      32.119  17.151   5.789  0.00  0.00     0.045 C 
HETATM   30  C   UNK N   1      31.118  14.920   5.803  0.00  0.00     0.045 C 
HETATM   31  C   UNK N   1      31.336  16.241   7.919  0.00  0.00     0.045 C 
ENDBRANCH  27  28
ENDBRANCH  26  27
ENDBRANCH   1  26
TORSDOF 8
ENDMDL
MODEL 5
REMARK VINA RESULT:      -6.8     11.895     14.806
REMARK  8 active torsions:
REMARK  status: ('A' for Active; 'I' for Inactive)
REMARK    1  A    between atoms: C_2  and  O_5 
REMARK    2  A    between atoms: O_5  and  C_6 
REMARK    3  A    between atoms: C_7  and  C_6 
REMARK       I    between atoms: N_13  and  C_14 
REMARK    4  A    between atoms: C_14  and  C_16 
REMARK    5  A    between atoms: C_16  and  C_17 
REMARK    6  A    between atoms: C_17  and  C_18 
REMARK    7  A    between atoms: C_17  and  N_28 
REMARK    8  A    between atoms: C_18  and  C_19 
ROOT
HETATM    1  C   UNK N   1      35.864  12.663  10.914  0.00  0.00     0.203 C 
HETATM    2  C   UNK N   1      34.839  11.547  11.101  0.00  0.00     0.242 C 
HETATM    3  O   UNK N   1      34.917  10.820  12.076  0.00  0.00    -0.271 OA
HETATM    4  N   UNK N   1      33.794  11.382  10.245  0.00  0.00    -0.358 N 
HETATM    5  C   UNK N   1      33.549  12.259   9.130  0.00  0.00     0.142 C 
HETATM    6  C   UNK N   1      34.849  12.789   8.607  0.00  0.00     0.146 C 
HETATM    7  N   UNK N   1      35.618  13.409   9.674  0.00  0.00    -0.335 N 
HETATM    8  C   UNK N   1      36.048  14.698   9.516  0.00  0.00     0.222 C 
HETATM    9  O   UNK N   1      36.950  15.139  10.219  0.00  0.00    -0.273 OA
HETATM   10  H   UNK N   1      33.179  10.627  10.394  0.00  0.00     0.162 HD
ENDROOT
BRANCH   8  11
HETATM   11  C   UNK N   1      35.283  15.680   8.675  0.00  0.00     0.127 C 
BRANCH  11  12
HETATM   12  C   UNK N   1      34.358  16.657   9.348  0.00  0.00     0.087 C 
BRANCH  12  13
HETATM   13  C   UNK N   1      34.063  17.861   8.464  0.00  0.00     0.067 C 
BRANCH  13  14
HETATM   14  C   UNK N   1      33.082  17.586   7.363  0.00  0.00    -0.015 A 
HETATM   15  C   UNK N   1      33.550  17.608   6.048  0.00  0.00     0.055 A 
HETATM   16  C   UNK N   1      32.677  17.389   4.982  0.00  0.00     0.155 A 
HETATM   17  C   UNK N   1      31.323  17.144   5.229  0.00  0.00     0.157 A 
HETATM   18  F   UNK N   1      33.145  17.422   3.712  0.00  0.00    -0.203 F 
HETATM   19  C   UNK N   1      30.844  17.120   6.540  0.00  0.00     0.088 A 
HETATM   20  F   UNK N   1      30.467  16.942   4.199  0.00  0.00    -0.203 F 
HETATM   21  C   UNK N   1      31.714  17.341   7.609  0.00  0.00     0.125 A 
HETATM   22  F   UNK N   1      31.209  17.341   8.864  0.00  0.00    -0.205 F 
ENDBRANCH  13  14
ENDBRANCH  12  13
BRANCH  12  23
HETATM   23  N   UNK N   1      34.960  17.067  10.608  0.00  0.00    -0.425 N 
HETATM   24  H   UNK N   1      35.442  17.728  11.217  0.00  0.00     0.150 HD
HETATM   25  H   UNK N   1      34.829  16.251  11.206  0.00  0.00     0.150 HD
ENDBRANCH  12  23
ENDBRANCH  11  12
ENDBRANCH   8  11
BRANCH   1  26
HETATM   26  C   UNK N   1      35.603  13.558  12.142  0.00  0.00     0.203 C 
BRANCH  26  27
HETATM   27  O   UNK N   1      36.763  13.751  12.917  0.00  0.00    -0.379 OA
BRANCH  27  28
HETATM   28  C   UNK N   1      36.521  13.348  14.255  0.00  0.00     0.050 C 
HETATM   29  C   UNK N   1      35.025  13.196  14.429  0.00  0.00     0.045 C 
HETATM   30  C   UNK N   1      37.149  11.993  14.574  0.00  0.00     0.045 C 
HETATM   31  C   UNK N   1      36.985  14.396  15.262  0.00  0.00     0.045 C 
ENDBRANCH  27  28
ENDBRANCH  26  27
ENDBRANCH   1  26
TORSDOF 8
ENDMDL
MODEL 6
REMARK VINA RESULT:      -6.6      8.972     11.760
REMARK  8 active torsions:
REMARK  status: ('A' for Active; 'I' for Inactive)
REMARK    1  A    between atoms: C_2  and  O_5 
REMARK    2  A    between atoms: O_5  and  C_6 
REMARK    3  A    between atoms: C_7  and  C_6 
REMARK       I    between atoms: N_13  and  C_14 
REMARK    4  A    between atoms: C_14  and  C_16 
REMARK    5  A    between atoms: C_16  and  C_17 
REMARK    6  A    between atoms: C_17  and  C_18 
REMARK    7  A    between atoms: C_17  and  N_28 
REMARK    8  A    between atoms: C_18  and  C_19 
ROOT
HETATM    1  C   UNK N   1      32.853  15.238   8.684  0.00  0.00     0.203 C 
HETATM    2  C   UNK N   1      33.824  16.087   9.502  0.00  0.00     0.242 C 
HETATM    3  O   UNK N   1      34.565  15.544  10.303  0.00  0.00    -0.271 OA
HETATM    4  N   UNK N   1      33.935  17.430   9.314  0.00  0.00    -0.358 N 
HETATM    5  C   UNK N   1      33.188  18.146   8.313  0.00  0.00     0.142 C 
HETATM    6  C   UNK N   1      31.861  17.484   8.102  0.00  0.00     0.146 C 
HETATM    7  N   UNK N   1      32.033  16.073   7.798  0.00  0.00    -0.335 N 
HETATM    8  C   UNK N   1      31.467  15.567   6.659  0.00  0.00     0.222 C 
HETATM    9  O   UNK N   1      31.307  14.359   6.532  0.00  0.00    -0.273 OA
HETATM   10  H   UNK N   1      34.555  17.936   9.889  0.00  0.00     0.162 HD
ENDROOT
BRANCH   8  11
HETATM   11  C   UNK N   1      31.259  16.425   5.444  0.00  0.00     0.127 C 
BRANCH  11  12
HETATM   12  C   UNK N   1      29.940  16.367   4.723  0.00  0.00     0.087 C 
BRANCH  12  13
HETATM   13  C   UNK N   1      28.765  16.574   5.669  0.00  0.00     0.067 C 
BRANCH  13  14
HETATM   14  C   UNK N   1      28.287  17.994   5.750  0.00  0.00    -0.015 A 
HETATM   15  C   UNK N   1      27.917  18.629   4.563  0.00  0.00     0.055 A 
HETATM   16  C   UNK N   1      27.493  19.958   4.573  0.00  0.00     0.155 A 
HETATM   17  C   UNK N   1      27.437  20.662   5.780  0.00  0.00     0.157 A 
HETATM   18  F   UNK N   1      27.147  20.563   3.413  0.00  0.00    -0.203 F 
HETATM   19  C   UNK N   1      27.804  20.037   6.972  0.00  0.00     0.088 A 
HETATM   20  F   UNK N   1      27.038  21.956   5.796  0.00  0.00    -0.203 F 
HETATM   21  C   UNK N   1      28.231  18.708   6.966  0.00  0.00     0.125 A 
HETATM   22  F   UNK N   1      28.610  18.144   8.137  0.00  0.00    -0.205 F 
ENDBRANCH  13  14
ENDBRANCH  12  13
BRANCH  12  23
HETATM   23  N   UNK N   1      29.844  15.085   4.042  0.00  0.00    -0.425 N 
HETATM   24  H   UNK N   1      29.390  14.409   3.427  0.00  0.00     0.150 HD
HETATM   25  H   UNK N   1      30.689  14.597   4.340  0.00  0.00     0.150 HD
ENDBRANCH  12  23
ENDBRANCH  11  12
ENDBRANCH   8  11
BRANCH   1  26
HETATM   26  C   UNK N   1      33.809  14.353   7.858  0.00  0.00     0.203 C 
BRANCH  26  27
HETATM   27  O   UNK N   1      34.762  15.111   7.152  0.00  0.00    -0.379 OA
BRANCH  27  28
HETATM   28  C   UNK N   1      35.190  14.399   6.003  0.00  0.00     0.050 C 
HETATM   29  C   UNK N   1      34.733  12.963   6.153  0.00  0.00     0.045 C 
HETATM   30  C   UNK N   1      34.562  14.938   4.720  0.00  0.00     0.045 C 
HETATM   31  C   UNK N   1      36.710  14.374   5.878  0.00  0.00     0.045 C 
ENDBRANCH  27  28
ENDBRANCH  26  27
ENDBRANCH   1  26
TORSDOF 8
ENDMDL
MODEL 7
REMARK VINA RESULT:      -6.4     12.347     14.671
REMARK  8 active torsions:
REMARK  status: ('A' for Active; 'I' for Inactive)
REMARK    1  A    between atoms: C_2  and  O_5 
REMARK    2  A    between atoms: O_5  and  C_6 
REMARK    3  A    between atoms: C_7  and  C_6 
REMARK       I    between atoms: N_13  and  C_14 
REMARK    4  A    between atoms: C_14  and  C_16 
REMARK    5  A    between atoms: C_16  and  C_17 
REMARK    6  A    between atoms: C_17  and  C_18 
REMARK    7  A    between atoms: C_17  and  N_28 
REMARK    8  A    between atoms: C_18  and  C_19 
ROOT
HETATM    1  C   UNK N   1      36.194  14.794   9.914  0.00  0.00     0.203 C 
HETATM    2  C   UNK N   1      36.102  15.913  10.949  0.00  0.00     0.242 C 
HETATM    3  O   UNK N   1      35.953  17.063  10.574  0.00  0.00    -0.271 OA
HETATM    4  N   UNK N   1      36.111  15.656  12.285  0.00  0.00    -0.358 N 
HETATM    5  C   UNK N   1      36.166  14.324  12.826  0.00  0.00     0.142 C 
HETATM    6  C   UNK N   1      36.941  13.433  11.904  0.00  0.00     0.146 C 
HETATM    7  N   UNK N   1      36.396  13.490  10.557  0.00  0.00    -0.335 N 
HETATM    8  C   UNK N   1      36.032  12.323   9.941  0.00  0.00     0.222 C 
HETATM    9  O   UNK N   1      35.884  12.287   8.726  0.00  0.00    -0.273 OA
HETATM   10  H   UNK N   1      36.080  16.418  12.910  0.00  0.00     0.162 HD
ENDROOT
BRANCH   8  11
HETATM   11  C   UNK N   1      35.564  11.135  10.732  0.00  0.00     0.127 C 
BRANCH  11  12
HETATM   12  C   UNK N   1      34.152  11.108  11.248  0.00  0.00     0.087 C 
BRANCH  12  13
HETATM   13  C   UNK N   1      33.934   9.983  12.251  0.00  0.00     0.067 C 
BRANCH  13  14
HETATM   14  C   UNK N   1      34.421  10.295  13.635  0.00  0.00    -0.015 A 
HETATM   15  C   UNK N   1      34.061  11.522  14.195  0.00  0.00     0.055 A 
HETATM   16  C   UNK N   1      34.509  11.878  15.468  0.00  0.00     0.155 A 
HETATM   17  C   UNK N   1      35.326  11.002  16.190  0.00  0.00     0.157 A 
HETATM   18  F   UNK N   1      34.159  13.075  15.994  0.00  0.00    -0.203 F 
HETATM   19  C   UNK N   1      35.692   9.773  15.639  0.00  0.00     0.088 A 
HETATM   20  F   UNK N   1      35.775  11.346  17.420  0.00  0.00    -0.203 F 
HETATM   21  C   UNK N   1      35.246   9.414  14.366  0.00  0.00     0.125 A 
HETATM   22  F   UNK N   1      35.648   8.228  13.851  0.00  0.00    -0.205 F 
ENDBRANCH  13  14
ENDBRANCH  12  13
BRANCH  12  23
HETATM   23  N   UNK N   1      33.250  10.980  10.113  0.00  0.00    -0.425 N 
HETATM   24  H   UNK N   1      33.032  10.763   9.140  0.00  0.00     0.150 HD
HETATM   25  H   UNK N   1      32.347  11.257  10.499  0.00  0.00     0.150 HD
ENDBRANCH  12  23
ENDBRANCH  11  12
ENDBRANCH   8  11
BRANCH   1  26
HETATM   26  C   UNK N   1      34.807  14.854   9.241  0.00  0.00     0.203 C 
BRANCH  26  27
HETATM   27  O   UNK N   1      34.875  15.346   7.923  0.00  0.00    -0.379 OA
BRANCH  27  28
HETATM   28  C   UNK N   1      33.662  16.002   7.592  0.00  0.00     0.050 C 
HETATM   29  C   UNK N   1      34.013  17.283   6.866  0.00  0.00     0.045 C 
HETATM   30  C   UNK N   1      32.795  15.175   6.647  0.00  0.00     0.045 C 
HETATM   31  C   UNK N   1      32.866  16.394   8.833  0.00  0.00     0.045 C 
ENDBRANCH  27  28
ENDBRANCH  26  27
ENDBRANCH   1  26
TORSDOF 8
ENDMDL
MODEL 8
REMARK VINA RESULT:      -6.4     13.253     15.373
REMARK  8 active torsions:
REMARK  status: ('A' for Active; 'I' for Inactive)
REMARK    1  A    between atoms: C_2  and  O_5 
REMARK    2  A    between atoms: O_5  and  C_6 
REMARK    3  A    between atoms: C_7  and  C_6 
REMARK       I    between atoms: N_13  and  C_14 
REMARK    4  A    between atoms: C_14  and  C_16 
REMARK    5  A    between atoms: C_16  and  C_17 
REMARK    6  A    between atoms: C_17  and  C_18 
REMARK    7  A    between atoms: C_17  and  N_28 
REMARK    8  A    between atoms: C_18  and  C_19 
ROOT
HETATM    1  C   UNK N   1      36.069  13.766   8.782  0.00  0.00     0.203 C 
HETATM    2  C   UNK N   1      37.405  13.696   8.046  0.00  0.00     0.242 C 
HETATM    3  O   UNK N   1      37.435  13.888   6.842  0.00  0.00    -0.271 OA
HETATM    4  N   UNK N   1      38.578  13.494   8.706  0.00  0.00    -0.358 N 
HETATM    5  C   UNK N   1      38.660  13.373  10.137  0.00  0.00     0.142 C 
HETATM    6  C   UNK N   1      37.405  12.749  10.666  0.00  0.00     0.146 C 
HETATM    7  N   UNK N   1      36.236  13.485  10.213  0.00  0.00    -0.335 N 
HETATM    8  C   UNK N   1      35.342  13.945  11.142  0.00  0.00     0.222 C 
HETATM    9  O   UNK N   1      34.211  14.270  10.804  0.00  0.00    -0.273 OA
HETATM   10  H   UNK N   1      39.408  13.427   8.179  0.00  0.00     0.162 HD
ENDROOT
BRANCH   8  11
HETATM   11  C   UNK N   1      35.778  14.302  12.534  0.00  0.00     0.127 C 
BRANCH  11  12
HETATM   12  C   UNK N   1      35.315  13.456  13.688  0.00  0.00     0.087 C 
BRANCH  12  13
HETATM   13  C   UNK N   1      36.474  13.020  14.575  0.00  0.00     0.067 C 
BRANCH  13  14
HETATM   14  C   UNK N   1      36.057  12.538  15.933  0.00  0.00    -0.015 A 
HETATM   15  C   UNK N   1      35.571  13.481  16.841  0.00  0.00     0.055 A 
HETATM   16  C   UNK N   1      35.195  13.095  18.128  0.00  0.00     0.155 A 
HETATM   17  C   UNK N   1      35.306  11.755  18.516  0.00  0.00     0.157 A 
HETATM   18  F   UNK N   1      34.735  14.022  19.001  0.00  0.00    -0.203 F 
HETATM   19  C   UNK N   1      35.791  10.806  17.615  0.00  0.00     0.088 A 
HETATM   20  F   UNK N   1      34.955  11.376  19.767  0.00  0.00    -0.203 F 
HETATM   21  C   UNK N   1      36.168  11.188  16.327  0.00  0.00     0.125 A 
HETATM   22  F   UNK N   1      36.664  10.245  15.492  0.00  0.00    -0.205 F 
ENDBRANCH  13  14
ENDBRANCH  12  13
BRANCH  12  23
HETATM   23  N   UNK N   1      34.601  12.305  13.156  0.00  0.00    -0.425 N 
HETATM   24  H   UNK N   1      34.425  11.304  13.058  0.00  0.00     0.150 HD
HETATM   25  H   UNK N   1      33.892  12.726  12.556  0.00  0.00     0.150 HD
ENDBRANCH  12  23
ENDBRANCH  11  12
ENDBRANCH   8  11
BRANCH   1  26
HETATM   26  C   UNK N   1      35.653  15.236   8.567  0.00  0.00     0.203 C 
BRANCH  26  27
HETATM   27  O   UNK N   1      34.613  15.364   7.627  0.00  0.00    -0.379 OA
BRANCH  27  28
HETATM   28  C   UNK N   1      33.855  16.530   7.903  0.00  0.00     0.050 C 
HETATM   29  C   UNK N   1      33.851  17.385   6.654  0.00  0.00     0.045 C 
HETATM   30  C   UNK N   1      32.399  16.210   8.232  0.00  0.00     0.045 C 
HETATM   31  C   UNK N   1      34.477  17.366   9.017  0.00  0.00     0.045 C 
ENDBRANCH  27  28
ENDBRANCH  26  27
ENDBRANCH   1  26
TORSDOF 8
ENDMDL
MODEL 9
REMARK VINA RESULT:      -6.4      2.063      3.974
REMARK  8 active torsions:
REMARK  status: ('A' for Active; 'I' for Inactive)
REMARK    1  A    between atoms: C_2  and  O_5 
REMARK    2  A    between atoms: O_5  and  C_6 
REMARK    3  A    between atoms: C_7  and  C_6 
REMARK       I    between atoms: N_13  and  C_14 
REMARK    4  A    between atoms: C_14  and  C_16 
REMARK    5  A    between atoms: C_16  and  C_17 
REMARK    6  A    between atoms: C_17  and  C_18 
REMARK    7  A    between atoms: C_17  and  N_28 
REMARK    8  A    between atoms: C_18  and  C_19 
ROOT
HETATM    1  C   UNK N   1      21.238  16.990   7.274  0.00  0.00     0.203 C 
HETATM    2  C   UNK N   1      20.306  17.843   8.132  0.00  0.00     0.242 C 
HETATM    3  O   UNK N   1      20.285  19.051   7.973  0.00  0.00    -0.271 OA
HETATM    4  N   UNK N   1      19.445  17.285   9.026  0.00  0.00    -0.358 N 
HETATM    5  C   UNK N   1      19.312  15.863   9.204  0.00  0.00     0.142 C 
HETATM    6  C   UNK N   1      20.627  15.194   8.938  0.00  0.00     0.146 C 
HETATM    7  N   UNK N   1      21.138  15.570   7.630  0.00  0.00    -0.335 N 
HETATM    8  C   UNK N   1      21.465  14.583   6.739  0.00  0.00     0.222 C 
HETATM    9  O   UNK N   1      22.187  14.831   5.781  0.00  0.00    -0.273 OA
HETATM   10  H   UNK N   1      18.887  17.883   9.577  0.00  0.00     0.162 HD
ENDROOT
BRANCH   8  11
HETATM   11  C   UNK N   1      20.766  13.254   6.755  0.00  0.00     0.127 C 
BRANCH  11  12
HETATM   12  C   UNK N   1      21.488  12.052   7.299  0.00  0.00     0.087 C 
BRANCH  12  13
HETATM   13  C   UNK N   1      22.847  12.419   7.879  0.00  0.00     0.067 C 
BRANCH  13  14
HETATM   14  C   UNK N   1      22.945  12.246   9.366  0.00  0.00    -0.015 A 
HETATM   15  C   UNK N   1      21.758  12.104  10.088  0.00  0.00     0.055 A 
HETATM   16  C   UNK N   1      21.786  11.969  11.476  0.00  0.00     0.155 A 
HETATM   17  C   UNK N   1      23.010  11.976  12.153  0.00  0.00     0.157 A 
HETATM   18  F   UNK N   1      20.626  11.842  12.163  0.00  0.00    -0.203 F 
HETATM   19  C   UNK N   1      24.201  12.117  11.441  0.00  0.00     0.088 A 
HETATM   20  F   UNK N   1      23.044  11.858  13.502  0.00  0.00    -0.203 F 
HETATM   21  C   UNK N   1      24.177  12.254  10.052  0.00  0.00     0.125 A 
HETATM   22  F   UNK N   1      25.351  12.421   9.398  0.00  0.00    -0.205 F 
ENDBRANCH  13  14
ENDBRANCH  12  13
BRANCH  12  23
HETATM   23  N   UNK N   1      21.622  11.074   6.230  0.00  0.00    -0.425 N 
HETATM   24  H   UNK N   1      21.263  10.358   5.597  0.00  0.00     0.150 HD
HETATM   25  H   UNK N   1      22.607  11.138   5.976  0.00  0.00     0.150 HD
ENDBRANCH  12  23
ENDBRANCH  11  12
ENDBRANCH   8  11
BRANCH   1  26
HETATM   26  C   UNK N   1      20.686  17.230   5.854  0.00  0.00     0.203 C 
BRANCH  26  27
HETATM   27  O   UNK N   1      21.527  18.059   5.087  0.00  0.00    -0.379 OA
BRANCH  27  28
HETATM   28  C   UNK N   1      21.250  17.883   3.708  0.00  0.00     0.050 C 
HETATM   29  C   UNK N   1      21.469  19.213   3.019  0.00  0.00     0.045 C 
HETATM   30  C   UNK N   1      22.193  16.878   3.051  0.00  0.00     0.045 C 
HETATM   31  C   UNK N   1      19.798  17.484   3.462  0.00  0.00     0.045 C 
ENDBRANCH  27  28
ENDBRANCH  26  27
ENDBRANCH   1  26
TORSDOF 8
ENDMDL
