MODEL 1
REMARK VINA RESULT:      -8.1      0.000      0.000
REMARK  7 active torsions:
REMARK  status: ('A' for Active; 'I' for Inactive)
REMARK    1  A    between atoms: C_2  and  C_3 
REMARK    2  A    between atoms: C_2  and  O_7 
REMARK    3  A    between atoms: O_7  and  C_8 
REMARK    4  A    between atoms: C_11  and  S_34 
REMARK    5  A    between atoms: C_13  and  C_14 
REMARK       I    between atoms: C_14  and  N_16 
REMARK    6  A    between atoms: N_19  and  C_22 
REMARK    7  A    between atoms: C_25  and  C_29 
ROOT
HETATM    1  C   UNK N   1      24.345  16.861   5.111  0.00  0.00     0.256 C 
HETATM    2  O   UNK N   1      23.697  16.443   6.058  0.00  0.00    -0.267 OA
HETATM    3  N   UNK N   1      25.375  16.121   4.607  0.00  0.00    -0.345 N 
HETATM    4  C   UNK N   1      25.709  14.846   5.224  0.00  0.00     0.146 C 
HETATM    5  C   UNK N   1      27.184  14.502   5.029  0.00  0.00     0.144 C 
HETATM    6  N   UNK N   1      27.922  15.691   4.666  0.00  0.00    -0.362 N 
HETATM    7  C   UNK N   1      27.539  16.383   3.456  0.00  0.00     0.144 C 
HETATM    8  C   UNK N   1      26.018  16.492   3.359  0.00  0.00     0.146 C 
ENDROOT
BRANCH   1   9
HETATM    9  C   UNK N   1      23.895  18.091   4.427  0.00  0.00     0.067 A 
HETATM   10  C   UNK N   1      22.686  18.023   3.734  0.00  0.00     0.043 A 
HETATM   11  C   UNK N   1      22.224  19.107   2.998  0.00  0.00     0.060 A 
HETATM   12  C   UNK N   1      22.965  20.289   2.961  0.00  0.00     0.026 A 
HETATM   13  C   UNK N   1      24.162  20.384   3.677  0.00  0.00     0.039 A 
HETATM   14  C   UNK N   1      24.648  19.289   4.417  0.00  0.00     0.085 A 
BRANCH  11  15
HETATM   15  S   UNK N   1      20.718  18.948   2.049  0.00  0.00     0.171 S 
HETATM   16  O   UNK N   1      20.836  19.857   0.817  0.00  0.00    -0.223 OA
HETATM   17  O   UNK N   1      19.634  19.726   2.811  0.00  0.00    -0.223 OA
HETATM   18  C   UNK N   1      19.956  17.382   1.545  0.00  0.00     0.167 C 
ENDBRANCH  11  15
BRANCH  14  19
HETATM   19  O   UNK N   1      25.790  19.384   5.164  0.00  0.00    -0.336 OA
BRANCH  19  20
HETATM   20  C   UNK N   1      26.760  20.383   5.084  0.00  0.00     0.232 C 
HETATM   21  C   UNK N   1      28.064  19.914   4.441  0.00  0.00     0.049 C 
BRANCH  20  22
HETATM   22  C   UNK N   1      26.953  21.147   6.395  0.00  0.00     0.413 C 
HETATM   23  F   UNK N   1      28.138  21.853   6.336  0.00  0.00    -0.168 F 
HETATM   24  F   UNK N   1      25.912  22.027   6.616  0.00  0.00    -0.168 F 
HETATM   25  F   UNK N   1      27.029  20.258   7.453  0.00  0.00    -0.168 F 
ENDBRANCH  20  22
ENDBRANCH  19  20
ENDBRANCH  14  19
ENDBRANCH   1   9
BRANCH   6  26
HETATM   26  C   UNK N   1      28.995  16.191   5.463  0.00  0.00     0.142 A 
HETATM   27  C   UNK N   1      28.770  16.993   6.604  0.00  0.00     0.161 A 
HETATM   28  C   UNK N   1      29.856  17.407   7.371  0.00  0.00     0.063 A 
HETATM   29  F   UNK N   1      27.525  17.370   6.985  0.00  0.00    -0.202 F 
HETATM   30  C   UNK N   1      31.153  17.036   7.013  0.00  0.00     0.066 A 
HETATM   31  C   UNK N   1      31.344  16.266   5.864  0.00  0.00     0.106 A 
HETATM   32  N   UNK N   1      30.277  15.868   5.126  0.00  0.00    -0.349 N 
ATOM     33  HN  UNK N   1      30.439  15.306   4.290  1.00  0.00     0.167 HD
BRANCH  30  34
HETATM   34  C   UNK N   1      32.329  17.424   7.857  0.00  0.00     0.418 C 
HETATM   35  F   UNK N   1      31.978  18.499   8.655  0.00  0.00    -0.166 F 
HETATM   36  F   UNK N   1      32.699  16.362   8.660  0.00  0.00    -0.166 F 
HETATM   37  F   UNK N   1      33.408  17.790   7.069  0.00  0.00    -0.166 F 
ENDBRANCH  30  34
ENDBRANCH   6  26
TORSDOF 7
ENDMDL
MODEL 2
REMARK VINA RESULT:      -7.7      3.893      8.185
REMARK  7 active torsions:
REMARK  status: ('A' for Active; 'I' for Inactive)
REMARK    1  A    between atoms: C_2  and  C_3 
REMARK    2  A    between atoms: C_2  and  O_7 
REMARK    3  A    between atoms: O_7  and  C_8 
REMARK    4  A    between atoms: C_11  and  S_34 
REMARK    5  A    between atoms: C_13  and  C_14 
REMARK       I    between atoms: C_14  and  N_16 
REMARK    6  A    between atoms: N_19  and  C_22 
REMARK    7  A    between atoms: C_25  and  C_29 
ROOT
HETATM    1  C   UNK N   1      28.484  17.391   6.753  0.00  0.00     0.256 C 
HETATM    2  O   UNK N   1      28.343  17.322   7.964  0.00  0.00    -0.267 OA
HETATM    3  N   UNK N   1      28.163  18.541   6.091  0.00  0.00    -0.345 N 
HETATM    4  C   UNK N   1      27.628  19.670   6.836  0.00  0.00     0.146 C 
HETATM    5  C   UNK N   1      26.734  20.544   5.960  0.00  0.00     0.144 C 
HETATM    6  N   UNK N   1      26.331  19.809   4.782  0.00  0.00    -0.362 N 
HETATM    7  C   UNK N   1      27.367  19.329   3.895  0.00  0.00     0.144 C 
HETATM    8  C   UNK N   1      28.519  18.721   4.694  0.00  0.00     0.146 C 
ENDROOT
BRANCH   1   9
HETATM    9  C   UNK N   1      29.154  16.278   6.048  0.00  0.00     0.067 A 
HETATM   10  C   UNK N   1      28.336  15.265   5.548  0.00  0.00     0.043 A 
HETATM   11  C   UNK N   1      28.884  14.142   4.940  0.00  0.00     0.060 A 
HETATM   12  C   UNK N   1      30.269  14.028   4.809  0.00  0.00     0.026 A 
HETATM   13  C   UNK N   1      31.100  15.051   5.275  0.00  0.00     0.039 A 
HETATM   14  C   UNK N   1      30.558  16.189   5.904  0.00  0.00     0.085 A 
BRANCH  11  15
HETATM   15  S   UNK N   1      27.808  12.823   4.397  0.00  0.00     0.171 S 
HETATM   16  O   UNK N   1      26.633  12.733   5.381  0.00  0.00    -0.223 OA
HETATM   17  O   UNK N   1      28.514  11.504   4.754  0.00  0.00    -0.223 OA
HETATM   18  C   UNK N   1      27.172  12.614   2.712  0.00  0.00     0.167 C 
ENDBRANCH  11  15
BRANCH  14  19
HETATM   19  O   UNK N   1      31.355  17.221   6.319  0.00  0.00    -0.336 OA
BRANCH  19  20
HETATM   20  C   UNK N   1      32.252  17.206   7.387  0.00  0.00     0.232 C 
HETATM   21  C   UNK N   1      31.742  17.951   8.619  0.00  0.00     0.049 C 
BRANCH  20  22
HETATM   22  C   UNK N   1      33.681  17.577   6.984  0.00  0.00     0.413 C 
HETATM   23  F   UNK N   1      34.090  18.668   7.724  0.00  0.00    -0.168 F 
HETATM   24  F   UNK N   1      34.549  16.527   7.208  0.00  0.00    -0.168 F 
HETATM   25  F   UNK N   1      33.719  17.920   5.643  0.00  0.00    -0.168 F 
ENDBRANCH  20  22
ENDBRANCH  19  20
ENDBRANCH  14  19
ENDBRANCH   1   9
BRANCH   6  26
HETATM   26  C   UNK N   1      24.961  19.544   4.484  0.00  0.00     0.142 A 
HETATM   27  C   UNK N   1      24.288  20.183   3.417  0.00  0.00     0.161 A 
HETATM   28  C   UNK N   1      22.966  19.842   3.144  0.00  0.00     0.063 A 
HETATM   29  F   UNK N   1      24.893  21.115   2.641  0.00  0.00    -0.202 F 
HETATM   30  C   UNK N   1      22.311  18.883   3.919  0.00  0.00     0.066 A 
HETATM   31  C   UNK N   1      22.994  18.292   4.982  0.00  0.00     0.106 A 
HETATM   32  N   UNK N   1      24.284  18.630   5.237  0.00  0.00    -0.349 N 
ATOM     33  HN  UNK N   1      24.763  18.186   6.020  1.00  0.00     0.167 HD
BRANCH  30  34
HETATM   34  C   UNK N   1      20.907  18.463   3.605  0.00  0.00     0.418 C 
HETATM   35  F   UNK N   1      20.129  19.592   3.415  0.00  0.00    -0.166 F 
HETATM   36  F   UNK N   1      20.894  17.701   2.453  0.00  0.00    -0.166 F 
HETATM   37  F   UNK N   1      20.366  17.722   4.642  0.00  0.00    -0.166 F 
ENDBRANCH  30  34
ENDBRANCH   6  26
TORSDOF 7
ENDMDL
MODEL 3
REMARK VINA RESULT:      -7.7      4.305      8.777
REMARK  7 active torsions:
REMARK  status: ('A' for Active; 'I' for Inactive)
REMARK    1  A    between atoms: C_2  and  C_3 
REMARK    2  A    between atoms: C_2  and  O_7 
REMARK    3  A    between atoms: O_7  and  C_8 
REMARK    4  A    between atoms: C_11  and  S_34 
REMARK    5  A    between atoms: C_13  and  C_14 
REMARK       I    between atoms: C_14  and  N_16 
REMARK    6  A    between atoms: N_19  and  C_22 
REMARK    7  A    between atoms: C_25  and  C_29 
ROOT
HETATM    1  C   UNK N   1      28.549  18.195   7.063  0.00  0.00     0.256 C 
HETATM    2  O   UNK N   1      28.402  18.296   8.271  0.00  0.00    -0.267 OA
HETATM    3  N   UNK N   1      28.092  19.179   6.234  0.00  0.00    -0.345 N 
HETATM    4  C   UNK N   1      27.409  20.332   6.800  0.00  0.00     0.146 C 
HETATM    5  C   UNK N   1      26.423  20.940   5.805  0.00  0.00     0.144 C 
HETATM    6  N   UNK N   1      26.132  19.987   4.757  0.00  0.00    -0.362 N 
HETATM    7  C   UNK N   1      27.232  19.512   3.948  0.00  0.00     0.144 C 
HETATM    8  C   UNK N   1      28.441  19.185   4.823  0.00  0.00     0.146 C 
ENDROOT
BRANCH   1   9
HETATM    9  C   UNK N   1      29.363  17.081   6.534  0.00  0.00     0.067 A 
HETATM   10  C   UNK N   1      30.742  17.159   6.727  0.00  0.00     0.043 A 
HETATM   11  C   UNK N   1      31.592  16.196   6.197  0.00  0.00     0.060 A 
HETATM   12  C   UNK N   1      31.064  15.125   5.475  0.00  0.00     0.026 A 
HETATM   13  C   UNK N   1      29.682  15.015   5.301  0.00  0.00     0.039 A 
HETATM   14  C   UNK N   1      28.810  15.990   5.823  0.00  0.00     0.085 A 
BRANCH  11  15
HETATM   15  S   UNK N   1      33.359  16.382   6.386  0.00  0.00     0.171 S 
HETATM   16  O   UNK N   1      33.724  17.831   6.036  0.00  0.00    -0.223 OA
HETATM   17  O   UNK N   1      34.006  15.680   5.181  0.00  0.00    -0.223 OA
HETATM   18  C   UNK N   1      34.317  15.876   7.840  0.00  0.00     0.167 C 
ENDBRANCH  11  15
BRANCH  14  19
HETATM   19  O   UNK N   1      27.452  15.869   5.706  0.00  0.00    -0.336 OA
BRANCH  19  20
HETATM   20  C   UNK N   1      26.687  14.737   5.985  0.00  0.00     0.232 C 
HETATM   21  C   UNK N   1      25.980  14.163   4.758  0.00  0.00     0.049 C 
BRANCH  20  22
HETATM   22  C   UNK N   1      25.777  14.904   7.204  0.00  0.00     0.413 C 
HETATM   23  F   UNK N   1      26.405  15.714   8.128  0.00  0.00    -0.168 F 
HETATM   24  F   UNK N   1      24.570  15.472   6.849  0.00  0.00    -0.168 F 
HETATM   25  F   UNK N   1      25.544  13.672   7.791  0.00  0.00    -0.168 F 
ENDBRANCH  20  22
ENDBRANCH  19  20
ENDBRANCH  14  19
ENDBRANCH   1   9
BRANCH   6  26
HETATM   26  C   UNK N   1      24.810  19.507   4.513  0.00  0.00     0.142 A 
HETATM   27  C   UNK N   1      24.015  20.006   3.457  0.00  0.00     0.161 A 
HETATM   28  C   UNK N   1      22.753  19.460   3.238  0.00  0.00     0.063 A 
HETATM   29  F   UNK N   1      24.444  20.999   2.640  0.00  0.00    -0.202 F 
HETATM   30  C   UNK N   1      22.278  18.434   4.056  0.00  0.00     0.066 A 
HETATM   31  C   UNK N   1      23.077  17.982   5.107  0.00  0.00     0.106 A 
HETATM   32  N   UNK N   1      24.306  18.521   5.310  0.00  0.00    -0.349 N 
ATOM     33  HN  UNK N   1      24.872  18.177   6.085  1.00  0.00     0.167 HD
BRANCH  30  34
HETATM   34  C   UNK N   1      20.946  17.795   3.800  0.00  0.00     0.418 C 
HETATM   35  F   UNK N   1      20.550  17.106   4.933  0.00  0.00    -0.166 F 
HETATM   36  F   UNK N   1      20.009  18.768   3.508  0.00  0.00    -0.166 F 
HETATM   37  F   UNK N   1      21.017  16.905   2.741  0.00  0.00    -0.166 F 
ENDBRANCH  30  34
ENDBRANCH   6  26
TORSDOF 7
ENDMDL
MODEL 4
REMARK VINA RESULT:      -7.6      5.102      9.370
REMARK  7 active torsions:
REMARK  status: ('A' for Active; 'I' for Inactive)
REMARK    1  A    between atoms: C_2  and  C_3 
REMARK    2  A    between atoms: C_2  and  O_7 
REMARK    3  A    between atoms: O_7  and  C_8 
REMARK    4  A    between atoms: C_11  and  S_34 
REMARK    5  A    between atoms: C_13  and  C_14 
REMARK       I    between atoms: C_14  and  N_16 
REMARK    6  A    between atoms: N_19  and  C_22 
REMARK    7  A    between atoms: C_25  and  C_29 
ROOT
HETATM    1  C   UNK N   1      33.118  16.990   5.686  0.00  0.00     0.256 C 
HETATM    2  O   UNK N   1      33.865  17.904   5.376  0.00  0.00    -0.267 OA
HETATM    3  N   UNK N   1      32.317  16.411   4.744  0.00  0.00    -0.345 N 
HETATM    4  C   UNK N   1      32.345  16.910   3.378  0.00  0.00     0.146 C 
HETATM    5  C   UNK N   1      31.013  16.669   2.669  0.00  0.00     0.144 C 
HETATM    6  N   UNK N   1      29.979  16.403   3.644  0.00  0.00    -0.362 N 
HETATM    7  C   UNK N   1      30.148  15.263   4.517  0.00  0.00     0.144 C 
HETATM    8  C   UNK N   1      31.583  15.193   5.038  0.00  0.00     0.146 C 
ENDROOT
BRANCH   1   9
HETATM    9  C   UNK N   1      33.214  16.421   7.046  0.00  0.00     0.067 A 
HETATM   10  C   UNK N   1      34.363  15.691   7.347  0.00  0.00     0.043 A 
HETATM   11  C   UNK N   1      34.504  15.055   8.575  0.00  0.00     0.060 A 
HETATM   12  C   UNK N   1      33.493  15.159   9.531  0.00  0.00     0.026 A 
HETATM   13  C   UNK N   1      32.350  15.915   9.258  0.00  0.00     0.039 A 
HETATM   14  C   UNK N   1      32.189  16.555   8.013  0.00  0.00     0.085 A 
BRANCH  11  15
HETATM   15  S   UNK N   1      35.950  14.052   8.885  0.00  0.00     0.171 S 
HETATM   16  O   UNK N   1      36.694  13.867   7.555  0.00  0.00    -0.223 OA
HETATM   17  O   UNK N   1      35.452  12.611   9.077  0.00  0.00    -0.223 OA
HETATM   18  C   UNK N   1      37.168  14.345  10.196  0.00  0.00     0.167 C 
ENDBRANCH  11  15
BRANCH  14  19
HETATM   19  O   UNK N   1      31.100  17.340   7.750  0.00  0.00    -0.336 OA
BRANCH  19  20
HETATM   20  C   UNK N   1      29.857  17.283   8.382  0.00  0.00     0.232 C 
HETATM   21  C   UNK N   1      28.701  17.005   7.423  0.00  0.00     0.049 C 
BRANCH  20  22
HETATM   22  C   UNK N   1      29.606  18.453   9.334  0.00  0.00     0.413 C 
HETATM   23  F   UNK N   1      28.400  19.043   9.017  0.00  0.00    -0.168 F 
HETATM   24  F   UNK N   1      29.571  18.027  10.647  0.00  0.00    -0.168 F 
HETATM   25  F   UNK N   1      30.606  19.401   9.191  0.00  0.00    -0.168 F 
ENDBRANCH  20  22
ENDBRANCH  19  20
ENDBRANCH  14  19
ENDBRANCH   1   9
BRANCH   6  26
HETATM   26  C   UNK N   1      28.821  17.228   3.767  0.00  0.00     0.142 A 
HETATM   27  C   UNK N   1      27.528  16.757   3.445  0.00  0.00     0.161 A 
HETATM   28  C   UNK N   1      26.432  17.594   3.637  0.00  0.00     0.063 A 
HETATM   29  F   UNK N   1      27.316  15.509   2.962  0.00  0.00    -0.202 F 
HETATM   30  C   UNK N   1      26.610  18.885   4.138  0.00  0.00     0.066 A 
HETATM   31  C   UNK N   1      27.903  19.329   4.419  0.00  0.00     0.106 A 
HETATM   32  N   UNK N   1      28.963  18.503   4.230  0.00  0.00    -0.349 N 
ATOM     33  HN  UNK N   1      29.900  18.849   4.442  1.00  0.00     0.167 HD
BRANCH  30  34
HETATM   34  C   UNK N   1      25.437  19.779   4.404  0.00  0.00     0.418 C 
HETATM   35  F   UNK N   1      24.437  19.044   5.016  0.00  0.00    -0.166 F 
HETATM   36  F   UNK N   1      25.817  20.814   5.237  0.00  0.00    -0.166 F 
HETATM   37  F   UNK N   1      24.939  20.310   3.225  0.00  0.00    -0.166 F 
ENDBRANCH  30  34
ENDBRANCH   6  26
TORSDOF 7
ENDMDL
MODEL 5
REMARK VINA RESULT:      -7.5      1.429      2.037
REMARK  7 active torsions:
REMARK  status: ('A' for Active; 'I' for Inactive)
REMARK    1  A    between atoms: C_2  and  C_3 
REMARK    2  A    between atoms: C_2  and  O_7 
REMARK    3  A    between atoms: O_7  and  C_8 
REMARK    4  A    between atoms: C_11  and  S_34 
REMARK    5  A    between atoms: C_13  and  C_14 
REMARK       I    between atoms: C_14  and  N_16 
REMARK    6  A    between atoms: N_19  and  C_22 
REMARK    7  A    between atoms: C_25  and  C_29 
ROOT
HETATM    1  C   UNK N   1      24.799  16.923   4.995  0.00  0.00     0.256 C 
HETATM    2  O   UNK N   1      24.325  16.605   6.074  0.00  0.00    -0.267 OA
HETATM    3  N   UNK N   1      25.616  16.058   4.325  0.00  0.00    -0.345 N 
HETATM    4  C   UNK N   1      25.935  14.769   4.920  0.00  0.00     0.146 C 
HETATM    5  C   UNK N   1      27.291  14.255   4.442  0.00  0.00     0.144 C 
HETATM    6  N   UNK N   1      28.059  15.343   3.878  0.00  0.00    -0.362 N 
HETATM    7  C   UNK N   1      27.506  16.045   2.742  0.00  0.00     0.144 C 
HETATM    8  C   UNK N   1      26.018  16.323   2.955  0.00  0.00     0.146 C 
ENDROOT
BRANCH   1   9
HETATM    9  C   UNK N   1      24.349  18.179   4.360  0.00  0.00     0.067 A 
HETATM   10  C   UNK N   1      23.021  18.231   3.936  0.00  0.00     0.043 A 
HETATM   11  C   UNK N   1      22.532  19.343   3.260  0.00  0.00     0.060 A 
HETATM   12  C   UNK N   1      23.370  20.431   3.014  0.00  0.00     0.026 A 
HETATM   13  C   UNK N   1      24.694  20.407   3.462  0.00  0.00     0.039 A 
HETATM   14  C   UNK N   1      25.206  19.282   4.138  0.00  0.00     0.085 A 
BRANCH  11  15
HETATM   15  S   UNK N   1      20.852  19.333   2.651  0.00  0.00     0.171 S 
HETATM   16  O   UNK N   1      20.806  20.178   1.371  0.00  0.00    -0.223 OA
HETATM   17  O   UNK N   1      20.044  20.261   3.573  0.00  0.00    -0.223 OA
HETATM   18  C   UNK N   1      19.833  17.853   2.407  0.00  0.00     0.167 C 
ENDBRANCH  11  15
BRANCH  14  19
HETATM   19  O   UNK N   1      26.483  19.265   4.627  0.00  0.00    -0.336 OA
BRANCH  19  20
HETATM   20  C   UNK N   1      26.902  19.702   5.884  0.00  0.00     0.232 C 
HETATM   21  C   UNK N   1      27.215  21.197   5.933  0.00  0.00     0.049 C 
BRANCH  20  22
HETATM   22  C   UNK N   1      27.988  18.820   6.502  0.00  0.00     0.413 C 
HETATM   23  F   UNK N   1      27.454  17.579   6.787  0.00  0.00    -0.168 F 
HETATM   24  F   UNK N   1      29.056  18.666   5.640  0.00  0.00    -0.168 F 
HETATM   25  F   UNK N   1      28.437  19.383   7.685  0.00  0.00    -0.168 F 
ENDBRANCH  20  22
ENDBRANCH  19  20
ENDBRANCH  14  19
ENDBRANCH   1   9
BRANCH   6  26
HETATM   26  C   UNK N   1      29.322  15.737   4.412  0.00  0.00     0.142 A 
HETATM   27  C   UNK N   1      30.301  16.382   3.622  0.00  0.00     0.161 A 
HETATM   28  C   UNK N   1      31.493  16.790   4.214  0.00  0.00     0.063 A 
HETATM   29  F   UNK N   1      30.115  16.626   2.302  0.00  0.00    -0.202 F 
HETATM   30  C   UNK N   1      31.720  16.560   5.573  0.00  0.00     0.066 A 
HETATM   31  C   UNK N   1      30.745  15.896   6.318  0.00  0.00     0.106 A 
HETATM   32  N   UNK N   1      29.586  15.505   5.730  0.00  0.00    -0.349 N 
ATOM     33  HN  UNK N   1      28.887  15.021   6.294  1.00  0.00     0.167 HD
BRANCH  30  34
HETATM   34  C   UNK N   1      32.973  17.042   6.239  0.00  0.00     0.418 C 
HETATM   35  F   UNK N   1      33.732  17.746   5.321  0.00  0.00    -0.166 F 
HETATM   36  F   UNK N   1      32.651  17.873   7.296  0.00  0.00    -0.166 F 
HETATM   37  F   UNK N   1      33.723  15.980   6.714  0.00  0.00    -0.166 F 
ENDBRANCH  30  34
ENDBRANCH   6  26
TORSDOF 7
ENDMDL
MODEL 6
REMARK VINA RESULT:      -7.3      3.931      8.161
REMARK  7 active torsions:
REMARK  status: ('A' for Active; 'I' for Inactive)
REMARK    1  A    between atoms: C_2  and  C_3 
REMARK    2  A    between atoms: C_2  and  O_7 
REMARK    3  A    between atoms: O_7  and  C_8 
REMARK    4  A    between atoms: C_11  and  S_34 
REMARK    5  A    between atoms: C_13  and  C_14 
REMARK       I    between atoms: C_14  and  N_16 
REMARK    6  A    between atoms: N_19  and  C_22 
REMARK    7  A    between atoms: C_25  and  C_29 
ROOT
HETATM    1  C   UNK N   1      28.220  16.545   4.675  0.00  0.00     0.256 C 
HETATM    2  O   UNK N   1      28.894  16.559   3.657  0.00  0.00    -0.267 OA
HETATM    3  N   UNK N   1      27.034  15.869   4.702  0.00  0.00    -0.345 N 
HETATM    4  C   UNK N   1      26.572  15.188   3.503  0.00  0.00     0.146 C 
HETATM    5  C   UNK N   1      25.048  15.088   3.471  0.00  0.00     0.144 C 
HETATM    6  N   UNK N   1      24.474  16.037   4.398  0.00  0.00    -0.362 N 
HETATM    7  C   UNK N   1      24.826  15.917   5.796  0.00  0.00     0.144 C 
HETATM    8  C   UNK N   1      26.324  15.661   5.952  0.00  0.00     0.146 C 
ENDROOT
BRANCH   1   9
HETATM    9  C   UNK N   1      28.782  17.131   5.910  0.00  0.00     0.067 A 
HETATM   10  C   UNK N   1      29.981  16.592   6.376  0.00  0.00     0.043 A 
HETATM   11  C   UNK N   1      30.542  17.028   7.571  0.00  0.00     0.060 A 
HETATM   12  C   UNK N   1      29.912  18.030   8.310  0.00  0.00     0.026 A 
HETATM   13  C   UNK N   1      28.727  18.604   7.838  0.00  0.00     0.039 A 
HETATM   14  C   UNK N   1      28.142  18.163   6.636  0.00  0.00     0.085 A 
BRANCH  11  15
HETATM   15  S   UNK N   1      32.028  16.247   8.181  0.00  0.00     0.171 S 
HETATM   16  O   UNK N   1      31.674  15.498   9.474  0.00  0.00    -0.223 OA
HETATM   17  O   UNK N   1      32.894  17.363   8.788  0.00  0.00    -0.223 OA
HETATM   18  C   UNK N   1      33.149  15.214   7.200  0.00  0.00     0.167 C 
ENDBRANCH  11  15
BRANCH  14  19
HETATM   19  O   UNK N   1      27.011  18.750   6.136  0.00  0.00    -0.336 OA
BRANCH  19  20
HETATM   20  C   UNK N   1      26.926  19.984   5.491  0.00  0.00     0.232 C 
HETATM   21  C   UNK N   1      27.920  20.138   4.341  0.00  0.00     0.049 C 
BRANCH  20  22
HETATM   22  C   UNK N   1      26.903  21.172   6.455  0.00  0.00     0.413 C 
HETATM   23  F   UNK N   1      28.175  21.698   6.554  0.00  0.00    -0.168 F 
HETATM   24  F   UNK N   1      26.039  22.155   6.013  0.00  0.00    -0.168 F 
HETATM   25  F   UNK N   1      26.506  20.752   7.713  0.00  0.00    -0.168 F 
ENDBRANCH  20  22
ENDBRANCH  19  20
ENDBRANCH  14  19
ENDBRANCH   1   9
BRANCH   6  26
HETATM   26  C   UNK N   1      23.591  17.075   3.974  0.00  0.00     0.142 A 
HETATM   27  C   UNK N   1      22.230  16.828   3.683  0.00  0.00     0.161 A 
HETATM   28  C   UNK N   1      21.407  17.892   3.324  0.00  0.00     0.063 A 
HETATM   29  F   UNK N   1      21.693  15.585   3.750  0.00  0.00    -0.202 F 
HETATM   30  C   UNK N   1      21.922  19.188   3.249  0.00  0.00     0.066 A 
HETATM   31  C   UNK N   1      23.277  19.393   3.515  0.00  0.00     0.106 A 
HETATM   32  N   UNK N   1      24.069  18.348   3.866  0.00  0.00    -0.349 N 
ATOM     33  HN  UNK N   1      25.056  18.521   4.055  1.00  0.00     0.167 HD
BRANCH  30  34
HETATM   34  C   UNK N   1      21.039  20.353   2.920  0.00  0.00     0.418 C 
HETATM   35  F   UNK N   1      20.381  20.100   1.729  0.00  0.00    -0.166 F 
HETATM   36  F   UNK N   1      20.108  20.533   3.925  0.00  0.00    -0.166 F 
HETATM   37  F   UNK N   1      21.780  21.514   2.779  0.00  0.00    -0.166 F 
ENDBRANCH  30  34
ENDBRANCH   6  26
TORSDOF 7
ENDMDL
MODEL 7
REMARK VINA RESULT:      -7.3      4.192      8.242
REMARK  7 active torsions:
REMARK  status: ('A' for Active; 'I' for Inactive)
REMARK    1  A    between atoms: C_2  and  C_3 
REMARK    2  A    between atoms: C_2  and  O_7 
REMARK    3  A    between atoms: O_7  and  C_8 
REMARK    4  A    between atoms: C_11  and  S_34 
REMARK    5  A    between atoms: C_13  and  C_14 
REMARK       I    between atoms: C_14  and  N_16 
REMARK    6  A    between atoms: N_19  and  C_22 
REMARK    7  A    between atoms: C_25  and  C_29 
ROOT
HETATM    1  C   UNK N   1      28.402  16.797   4.297  0.00  0.00     0.256 C 
HETATM    2  O   UNK N   1      28.937  17.229   3.288  0.00  0.00    -0.267 OA
HETATM    3  N   UNK N   1      27.529  15.751   4.215  0.00  0.00    -0.345 N 
HETATM    4  C   UNK N   1      27.225  15.174   2.914  0.00  0.00     0.146 C 
HETATM    5  C   UNK N   1      25.833  14.546   2.895  0.00  0.00     0.144 C 
HETATM    6  N   UNK N   1      25.051  15.050   4.002  0.00  0.00    -0.362 N 
HETATM    7  C   UNK N   1      25.545  14.818   5.341  0.00  0.00     0.144 C 
HETATM    8  C   UNK N   1      27.048  15.087   5.414  0.00  0.00     0.146 C 
ENDROOT
BRANCH   1   9
HETATM    9  C   UNK N   1      28.834  17.317   5.611  0.00  0.00     0.067 A 
HETATM   10  C   UNK N   1      29.998  16.772   6.154  0.00  0.00     0.043 A 
HETATM   11  C   UNK N   1      30.437  17.144   7.419  0.00  0.00     0.060 A 
HETATM   12  C   UNK N   1      29.719  18.087   8.155  0.00  0.00     0.026 A 
HETATM   13  C   UNK N   1      28.569  18.667   7.610  0.00  0.00     0.039 A 
HETATM   14  C   UNK N   1      28.106  18.291   6.334  0.00  0.00     0.085 A 
BRANCH  11  15
HETATM   15  S   UNK N   1      31.879  16.354   8.117  0.00  0.00     0.171 S 
HETATM   16  O   UNK N   1      31.464  15.688   9.437  0.00  0.00    -0.223 OA
HETATM   17  O   UNK N   1      32.762  17.475   8.688  0.00  0.00    -0.223 OA
HETATM   18  C   UNK N   1      32.996  15.235   7.229  0.00  0.00     0.167 C 
ENDBRANCH  11  15
BRANCH  14  19
HETATM   19  O   UNK N   1      27.013  18.886   5.768  0.00  0.00    -0.336 OA
BRANCH  19  20
HETATM   20  C   UNK N   1      26.991  20.083   5.051  0.00  0.00     0.232 C 
HETATM   21  C   UNK N   1      26.768  21.313   5.929  0.00  0.00     0.049 C 
BRANCH  20  22
HETATM   22  C   UNK N   1      26.094  20.032   3.813  0.00  0.00     0.413 C 
HETATM   23  F   UNK N   1      24.798  20.331   4.182  0.00  0.00    -0.168 F 
HETATM   24  F   UNK N   1      26.513  20.937   2.858  0.00  0.00    -0.168 F 
HETATM   25  F   UNK N   1      26.110  18.759   3.270  0.00  0.00    -0.168 F 
ENDBRANCH  20  22
ENDBRANCH  19  20
ENDBRANCH  14  19
ENDBRANCH   1   9
BRANCH   6  26
HETATM   26  C   UNK N   1      23.831  15.764   3.808  0.00  0.00     0.142 A 
HETATM   27  C   UNK N   1      23.576  16.999   4.446  0.00  0.00     0.161 A 
HETATM   28  C   UNK N   1      22.388  17.673   4.175  0.00  0.00     0.063 A 
HETATM   29  F   UNK N   1      24.456  17.557   5.313  0.00  0.00    -0.202 F 
HETATM   30  C   UNK N   1      21.458  17.131   3.284  0.00  0.00     0.066 A 
HETATM   31  C   UNK N   1      21.729  15.897   2.692  0.00  0.00     0.106 A 
HETATM   32  N   UNK N   1      22.891  15.251   2.963  0.00  0.00    -0.349 N 
ATOM     33  HN  UNK N   1      23.067  14.349   2.520  1.00  0.00     0.167 HD
BRANCH  30  34
HETATM   34  C   UNK N   1      20.201  17.869   2.937  0.00  0.00     0.418 C 
HETATM   35  F   UNK N   1      19.187  17.460   3.785  0.00  0.00    -0.166 F 
HETATM   36  F   UNK N   1      20.399  19.228   3.086  0.00  0.00    -0.166 F 
HETATM   37  F   UNK N   1      19.818  17.611   1.631  0.00  0.00    -0.166 F 
ENDBRANCH  30  34
ENDBRANCH   6  26
TORSDOF 7
ENDMDL
MODEL 8
REMARK VINA RESULT:      -7.2      6.455      9.894
REMARK  7 active torsions:
REMARK  status: ('A' for Active; 'I' for Inactive)
REMARK    1  A    between atoms: C_2  and  C_3 
REMARK    2  A    between atoms: C_2  and  O_7 
REMARK    3  A    between atoms: O_7  and  C_8 
REMARK    4  A    between atoms: C_11  and  S_34 
REMARK    5  A    between atoms: C_13  and  C_14 
REMARK       I    between atoms: C_14  and  N_16 
REMARK    6  A    between atoms: N_19  and  C_22 
REMARK    7  A    between atoms: C_25  and  C_29 
ROOT
HETATM    1  C   UNK N   1      34.012  16.961   6.716  0.00  0.00     0.256 C 
HETATM    2  O   UNK N   1      34.391  18.121   6.702  0.00  0.00    -0.267 OA
HETATM    3  N   UNK N   1      34.150  16.210   7.847  0.00  0.00    -0.345 N 
HETATM    4  C   UNK N   1      34.775  16.796   9.024  0.00  0.00     0.146 C 
HETATM    5  C   UNK N   1      35.443  15.730   9.890  0.00  0.00     0.144 C 
HETATM    6  N   UNK N   1      35.636  14.522   9.120  0.00  0.00    -0.362 N 
HETATM    7  C   UNK N   1      34.466  13.874   8.570  0.00  0.00     0.144 C 
HETATM    8  C   UNK N   1      33.520  14.906   7.957  0.00  0.00     0.146 C 
ENDROOT
BRANCH   1   9
HETATM    9  C   UNK N   1      33.264  16.441   5.553  0.00  0.00     0.067 A 
HETATM   10  C   UNK N   1      33.962  15.619   4.668  0.00  0.00     0.043 A 
HETATM   11  C   UNK N   1      33.360  15.148   3.507  0.00  0.00     0.060 A 
HETATM   12  C   UNK N   1      32.035  15.483   3.225  0.00  0.00     0.026 A 
HETATM   13  C   UNK N   1      31.312  16.278   4.119  0.00  0.00     0.039 A 
HETATM   14  C   UNK N   1      31.913  16.772   5.293  0.00  0.00     0.085 A 
BRANCH  11  15
HETATM   15  S   UNK N   1      34.317  14.176   2.354  0.00  0.00     0.171 S 
HETATM   16  O   UNK N   1      34.819  15.112   1.245  0.00  0.00    -0.223 OA
HETATM   17  O   UNK N   1      33.312  13.356   1.529  0.00  0.00    -0.223 OA
HETATM   18  C   UNK N   1      35.654  13.035   2.799  0.00  0.00     0.167 C 
ENDBRANCH  11  15
BRANCH  14  19
HETATM   19  O   UNK N   1      31.203  17.508   6.202  0.00  0.00    -0.336 OA
BRANCH  19  20
HETATM   20  C   UNK N   1      30.296  17.023   7.144  0.00  0.00     0.232 C 
HETATM   21  C   UNK N   1      28.836  17.241   6.751  0.00  0.00     0.049 C 
BRANCH  20  22
HETATM   22  C   UNK N   1      30.623  17.448   8.577  0.00  0.00     0.413 C 
HETATM   23  F   UNK N   1      29.525  18.082   9.122  0.00  0.00    -0.168 F 
HETATM   24  F   UNK N   1      30.950  16.357   9.358  0.00  0.00    -0.168 F 
HETATM   25  F   UNK N   1      31.684  18.339   8.574  0.00  0.00    -0.168 F 
ENDBRANCH  20  22
ENDBRANCH  19  20
ENDBRANCH  14  19
ENDBRANCH   1   9
BRANCH   6  26
HETATM   26  C   UNK N   1      36.930  13.968   8.889  0.00  0.00     0.142 A 
HETATM   27  C   UNK N   1      37.748  13.506   9.946  0.00  0.00     0.161 A 
HETATM   28  C   UNK N   1      38.979  12.927   9.652  0.00  0.00     0.063 A 
HETATM   29  F   UNK N   1      37.368  13.600  11.244  0.00  0.00    -0.202 F 
HETATM   30  C   UNK N   1      39.403  12.808   8.327  0.00  0.00     0.066 A 
HETATM   31  C   UNK N   1      38.585  13.299   7.309  0.00  0.00     0.106 A 
HETATM   32  N   UNK N   1      37.385  13.860   7.608  0.00  0.00    -0.349 N 
ATOM     33  HN  UNK N   1      36.804  14.213   6.848  1.00  0.00     0.167 HD
BRANCH  30  34
HETATM   34  C   UNK N   1      40.699  12.137   7.987  0.00  0.00     0.418 C 
HETATM   35  F   UNK N   1      41.356  11.803   9.158  0.00  0.00    -0.166 F 
HETATM   36  F   UNK N   1      40.455  10.988   7.259  0.00  0.00    -0.166 F 
HETATM   37  F   UNK N   1      41.514  12.976   7.245  0.00  0.00    -0.166 F 
ENDBRANCH  30  34
ENDBRANCH   6  26
TORSDOF 7
ENDMDL
MODEL 9
REMARK VINA RESULT:      -7.2      9.011     13.631
REMARK  7 active torsions:
REMARK  status: ('A' for Active; 'I' for Inactive)
REMARK    1  A    between atoms: C_2  and  C_3 
REMARK    2  A    between atoms: C_2  and  O_7 
REMARK    3  A    between atoms: O_7  and  C_8 
REMARK    4  A    between atoms: C_11  and  S_34 
REMARK    5  A    between atoms: C_13  and  C_14 
REMARK       I    between atoms: C_14  and  N_16 
REMARK    6  A    between atoms: N_19  and  C_22 
REMARK    7  A    between atoms: C_25  and  C_29 
ROOT
HETATM    1  C   UNK N   1      34.459  11.192  13.085  0.00  0.00     0.256 C 
HETATM    2  O   UNK N   1      33.860  11.317  14.141  0.00  0.00    -0.267 OA
HETATM    3  N   UNK N   1      35.299  12.178  12.654  0.00  0.00    -0.345 N 
HETATM    4  C   UNK N   1      35.453  13.386  13.452  0.00  0.00     0.146 C 
HETATM    5  C   UNK N   1      35.832  14.583  12.583  0.00  0.00     0.144 C 
HETATM    6  N   UNK N   1      35.531  14.300  11.198  0.00  0.00    -0.362 N 
HETATM    7  C   UNK N   1      36.186  13.169  10.579  0.00  0.00     0.144 C 
HETATM    8  C   UNK N   1      36.179  11.964  11.519  0.00  0.00     0.146 C 
ENDROOT
BRANCH   1   9
HETATM    9  C   UNK N   1      34.384   9.901  12.370  0.00  0.00     0.067 A 
HETATM   10  C   UNK N   1      33.475   9.814  11.316  0.00  0.00     0.043 A 
HETATM   11  C   UNK N   1      33.282   8.617  10.637  0.00  0.00     0.060 A 
HETATM   12  C   UNK N   1      34.016   7.487  10.999  0.00  0.00     0.026 A 
HETATM   13  C   UNK N   1      34.955   7.567  12.031  0.00  0.00     0.039 A 
HETATM   14  C   UNK N   1      35.153   8.771  12.735  0.00  0.00     0.085 A 
BRANCH  11  15
HETATM   15  S   UNK N   1      32.040   8.523   9.356  0.00  0.00     0.171 S 
HETATM   16  O   UNK N   1      31.597   9.953   9.018  0.00  0.00    -0.223 OA
HETATM   17  O   UNK N   1      30.749   8.030  10.030  0.00  0.00    -0.223 OA
HETATM   18  C   UNK N   1      32.194   7.582   7.813  0.00  0.00     0.167 C 
ENDBRANCH  11  15
BRANCH  14  19
HETATM   19  O   UNK N   1      36.104   8.878  13.712  0.00  0.00    -0.336 OA
BRANCH  19  20
HETATM   20  C   UNK N   1      37.452   9.189  13.535  0.00  0.00     0.232 C 
HETATM   21  C   UNK N   1      38.333   7.963  13.298  0.00  0.00     0.049 C 
BRANCH  20  22
HETATM   22  C   UNK N   1      37.997  10.150  14.593  0.00  0.00     0.413 C 
HETATM   23  F   UNK N   1      39.195   9.661  15.073  0.00  0.00    -0.168 F 
HETATM   24  F   UNK N   1      38.202  11.409  14.064  0.00  0.00    -0.168 F 
HETATM   25  F   UNK N   1      37.109  10.241  15.651  0.00  0.00    -0.168 F 
ENDBRANCH  20  22
ENDBRANCH  19  20
ENDBRANCH  14  19
ENDBRANCH   1   9
BRANCH   6  26
HETATM   26  C   UNK N   1      34.613  15.090  10.443  0.00  0.00     0.142 A 
HETATM   27  C   UNK N   1      34.908  16.418  10.058  0.00  0.00     0.161 A 
HETATM   28  C   UNK N   1      33.993  17.120   9.277  0.00  0.00     0.063 A 
HETATM   29  F   UNK N   1      36.061  17.033  10.418  0.00  0.00    -0.202 F 
HETATM   30  C   UNK N   1      32.797  16.518   8.882  0.00  0.00     0.066 A 
HETATM   31  C   UNK N   1      32.524  15.216   9.302  0.00  0.00     0.106 A 
HETATM   32  N   UNK N   1      33.424  14.542  10.062  0.00  0.00    -0.349 N 
ATOM     33  HN  UNK N   1      33.203  13.591  10.358  1.00  0.00     0.167 HD
BRANCH  30  34
HETATM   34  C   UNK N   1      31.827  17.238   7.994  0.00  0.00     0.418 C 
HETATM   35  F   UNK N   1      32.470  17.607   6.827  0.00  0.00    -0.166 F 
HETATM   36  F   UNK N   1      30.768  16.405   7.687  0.00  0.00    -0.166 F 
HETATM   37  F   UNK N   1      31.339  18.378   8.612  0.00  0.00    -0.166 F 
ENDBRANCH  30  34
ENDBRANCH   6  26
TORSDOF 7
ENDMDL
