MODEL 1
REMARK VINA RESULT:      -8.8      0.000      0.000
REMARK  6 active torsions:
REMARK  status: ('A' for Active; 'I' for Inactive)
REMARK    1  A    between atoms: N_4  and  C_8 
REMARK    2  A    between atoms: C_8  and  C_9 
REMARK    3  A    between atoms: C_12  and  C_15 
REMARK    4  A    between atoms: C_15  and  C_16 
REMARK       I    between atoms: C_16  and  N_18 
REMARK    5  A    between atoms: C_21  and  N_24 
REMARK    6  A    between atoms: N_24  and  C_25 
ROOT
HETATM    1  C   UNK N   1      34.514  17.501   8.424  0.00  0.00     0.224 C 
HETATM    2  O   UNK N   1      34.770  18.677   8.660  0.00  0.00    -0.273 OA
HETATM    3  N   UNK N   1      34.780  16.516   9.337  0.00  0.00    -0.352 N 
HETATM    4  C   UNK N   1      35.361  16.784  10.655  0.00  0.00     0.127 C 
HETATM    5  C   UNK N   1      35.952  15.518  11.359  0.00  0.00     0.045 C 
HETATM    6  C   UNK N   1      35.286  14.215  10.894  0.00  0.00     0.084 C 
HETATM    7  C   UNK N   1      35.396  14.176   9.400  0.00  0.00     0.045 C 
HETATM    8  C   UNK N   1      34.366  15.167   8.986  0.00  0.00     0.127 C 
ENDROOT
BRANCH   1   9
HETATM    9  C   UNK N   1      33.910  17.068   7.116  0.00  0.00     0.141 C 
BRANCH   9  10
HETATM   10  C   UNK N   1      32.558  17.112   6.510  0.00  0.00    -0.049 A 
HETATM   11  C   UNK N   1      32.251  17.237   5.147  0.00  0.00     0.008 A 
HETATM   12  C   UNK N   1      30.895  17.302   4.751  0.00  0.00     0.009 A 
HETATM   13  C   UNK N   1      29.866  17.235   5.715  0.00  0.00    -0.030 A 
HETATM   14  C   UNK N   1      30.209  17.100   7.058  0.00  0.00     0.009 A 
HETATM   15  C   UNK N   1      31.531  17.045   7.445  0.00  0.00     0.008 A 
BRANCH  13  16
HETATM   16  C   UNK N   1      28.412  17.357   5.311  0.00  0.00     0.311 C 
BRANCH  16  17
HETATM   17  N   UNK N   1      28.004  18.711   4.892  0.00  0.00     0.096 N 
HETATM   18  C   UNK N   1      27.500  19.400   6.080  0.00  0.00     0.296 C 
HETATM   19  C   UNK N   1      27.042  20.824   5.725  0.00  0.00     0.100 C 
HETATM   20  C   UNK N   1      26.446  21.471   6.958  0.00  0.00     0.033 C 
HETATM   21  N   UNK N   1      26.027  20.798   4.669  0.00  0.00    -0.414 N 
HETATM   22  C   UNK N   1      26.550  20.086   3.507  0.00  0.00     0.144 C 
HETATM   23  H   UNK N   1      25.098  21.214   4.735  0.00  0.00     0.153 HD
HETATM   24  C   UNK N   1      26.908  18.663   3.920  0.00  0.00     0.292 C 
ENDBRANCH  16  17
ENDBRANCH  13  16
ENDBRANCH   9  10
ENDBRANCH   1   9
BRANCH   6  25
HETATM   25  N   UNK N   1      35.842  13.017  11.492  0.00  0.00    -0.385 N 
HETATM   26  H   UNK N   1      36.704  12.675  11.161  0.00  0.00     0.160 HD
BRANCH  25  27
HETATM   27  C   UNK N   1      35.178  12.315  12.548  0.00  0.00     0.031 A 
HETATM   28  C   UNK N   1      34.568  11.084  12.286  0.00  0.00     0.029 A 
HETATM   29  C   UNK N   1      33.892  10.398  13.305  0.00  0.00     0.005 A 
HETATM   30  C   UNK N   1      33.807  10.948  14.587  0.00  0.00     0.042 A 
HETATM   31  C   UNK N   1      34.408  12.178  14.859  0.00  0.00     0.118 A 
HETATM   32  C   UNK N   1      35.096  12.851  13.848  0.00  0.00     0.071 A 
HETATM   33  F   UNK N   1      34.311  12.727  16.095  0.00  0.00    -0.206 F 
ENDBRANCH  25  27
ENDBRANCH   6  25
TORSDOF 6
ENDMDL
MODEL 2
REMARK VINA RESULT:      -8.6      3.161     10.882
REMARK  6 active torsions:
REMARK  status: ('A' for Active; 'I' for Inactive)
REMARK    1  A    between atoms: N_4  and  C_8 
REMARK    2  A    between atoms: C_8  and  C_9 
REMARK    3  A    between atoms: C_12  and  C_15 
REMARK    4  A    between atoms: C_15  and  C_16 
REMARK       I    between atoms: C_16  and  N_18 
REMARK    5  A    between atoms: C_21  and  N_24 
REMARK    6  A    between atoms: N_24  and  C_25 
ROOT
HETATM    1  C   UNK N   1      33.717  17.331   7.096  0.00  0.00     0.224 C 
HETATM    2  O   UNK N   1      34.566  17.506   6.229  0.00  0.00    -0.273 OA
HETATM    3  N   UNK N   1      32.391  17.210   6.781  0.00  0.00    -0.352 N 
HETATM    4  C   UNK N   1      31.889  17.256   5.404  0.00  0.00     0.127 C 
HETATM    5  C   UNK N   1      30.348  17.508   5.297  0.00  0.00     0.045 C 
HETATM    6  C   UNK N   1      29.581  17.037   6.541  0.00  0.00     0.084 C 
HETATM    7  C   UNK N   1      30.216  17.703   7.725  0.00  0.00     0.045 C 
HETATM    8  C   UNK N   1      31.478  16.928   7.877  0.00  0.00     0.127 C 
ENDROOT
BRANCH   1   9
HETATM    9  C   UNK N   1      34.076  17.257   8.555  0.00  0.00     0.141 C 
BRANCH   9  10
HETATM   10  C   UNK N   1      34.618  16.213   9.458  0.00  0.00    -0.049 A 
HETATM   11  C   UNK N   1      34.505  14.823   9.301  0.00  0.00     0.008 A 
HETATM   12  C   UNK N   1      35.055  13.973  10.288  0.00  0.00     0.009 A 
HETATM   13  C   UNK N   1      35.713  14.517  11.413  0.00  0.00    -0.030 A 
HETATM   14  C   UNK N   1      35.814  15.901  11.530  0.00  0.00     0.009 A 
HETATM   15  C   UNK N   1      35.272  16.730  10.570  0.00  0.00     0.008 A 
BRANCH  13  16
HETATM   16  C   UNK N   1      36.258  13.620  12.503  0.00  0.00     0.311 C 
BRANCH  16  17
HETATM   17  N   UNK N   1      35.236  13.070  13.413  0.00  0.00     0.096 N 
HETATM   18  C   UNK N   1      35.667  13.362  14.780  0.00  0.00     0.296 C 
HETATM   19  C   UNK N   1      34.654  12.809  15.795  0.00  0.00     0.100 C 
HETATM   20  C   UNK N   1      35.178  13.051  17.195  0.00  0.00     0.033 C 
HETATM   21  N   UNK N   1      34.459  11.370  15.608  0.00  0.00    -0.414 N 
HETATM   22  C   UNK N   1      34.051  11.107  14.231  0.00  0.00     0.144 C 
HETATM   23  H   UNK N   1      34.587  10.659  16.329  0.00  0.00     0.153 HD
HETATM   24  C   UNK N   1      35.139  11.613  13.290  0.00  0.00     0.292 C 
ENDBRANCH  16  17
ENDBRANCH  13  16
ENDBRANCH   9  10
ENDBRANCH   1   9
BRANCH   6  25
HETATM   25  N   UNK N   1      28.156  17.299   6.494  0.00  0.00    -0.385 N 
HETATM   26  H   UNK N   1      27.544  16.690   6.965  0.00  0.00     0.160 HD
BRANCH  25  27
HETATM   27  C   UNK N   1      27.610  18.415   5.783  0.00  0.00     0.031 A 
HETATM   28  C   UNK N   1      27.048  18.222   4.516  0.00  0.00     0.029 A 
HETATM   29  C   UNK N   1      26.533  19.311   3.799  0.00  0.00     0.005 A 
HETATM   30  C   UNK N   1      26.595  20.601   4.334  0.00  0.00     0.042 A 
HETATM   31  C   UNK N   1      27.159  20.805   5.594  0.00  0.00     0.118 A 
HETATM   32  C   UNK N   1      27.655  19.718   6.316  0.00  0.00     0.071 A 
HETATM   33  F   UNK N   1      27.242  22.056   6.110  0.00  0.00    -0.206 F 
ENDBRANCH  25  27
ENDBRANCH   6  25
TORSDOF 6
ENDMDL
MODEL 3
REMARK VINA RESULT:      -8.5      2.585      4.331
REMARK  6 active torsions:
REMARK  status: ('A' for Active; 'I' for Inactive)
REMARK    1  A    between atoms: N_4  and  C_8 
REMARK    2  A    between atoms: C_8  and  C_9 
REMARK    3  A    between atoms: C_12  and  C_15 
REMARK    4  A    between atoms: C_15  and  C_16 
REMARK       I    between atoms: C_16  and  N_18 
REMARK    5  A    between atoms: C_21  and  N_24 
REMARK    6  A    between atoms: N_24  and  C_25 
ROOT
HETATM    1  C   UNK N   1      36.723  14.541  10.553  0.00  0.00     0.224 C 
HETATM    2  O   UNK N   1      37.498  14.262   9.645  0.00  0.00    -0.273 OA
HETATM    3  N   UNK N   1      36.651  13.778  11.687  0.00  0.00    -0.352 N 
HETATM    4  C   UNK N   1      37.493  12.600  11.913  0.00  0.00     0.127 C 
HETATM    5  C   UNK N   1      36.976  11.657  13.051  0.00  0.00     0.045 C 
HETATM    6  C   UNK N   1      36.129  12.397  14.096  0.00  0.00     0.084 C 
HETATM    7  C   UNK N   1      35.031  13.097  13.353  0.00  0.00     0.045 C 
HETATM    8  C   UNK N   1      35.754  14.241  12.734  0.00  0.00     0.127 C 
ENDROOT
BRANCH   1   9
HETATM    9  C   UNK N   1      35.797  15.724  10.472  0.00  0.00     0.141 C 
BRANCH   9  10
HETATM   10  C   UNK N   1      34.777  16.203   9.509  0.00  0.00    -0.049 A 
HETATM   11  C   UNK N   1      34.650  17.504   8.998  0.00  0.00     0.008 A 
HETATM   12  C   UNK N   1      33.586  17.793   8.112  0.00  0.00     0.009 A 
HETATM   13  C   UNK N   1      32.670  16.784   7.744  0.00  0.00    -0.030 A 
HETATM   14  C   UNK N   1      32.834  15.502   8.263  0.00  0.00     0.009 A 
HETATM   15  C   UNK N   1      33.868  15.222   9.133  0.00  0.00     0.008 A 
BRANCH  13  16
HETATM   16  C   UNK N   1      31.496  17.092   6.839  0.00  0.00     0.311 C 
BRANCH  16  17
HETATM   17  N   UNK N   1      30.174  16.896   7.462  0.00  0.00     0.096 N 
HETATM   18  C   UNK N   1      29.175  16.963   6.395  0.00  0.00     0.296 C 
HETATM   19  C   UNK N   1      27.760  16.776   6.967  0.00  0.00     0.100 C 
HETATM   20  C   UNK N   1      26.752  16.940   5.849  0.00  0.00     0.033 C 
HETATM   21  N   UNK N   1      27.480  17.771   8.004  0.00  0.00    -0.414 N 
HETATM   22  C   UNK N   1      28.504  17.696   9.042  0.00  0.00     0.144 C 
HETATM   23  H   UNK N   1      26.691  18.418   8.002  0.00  0.00     0.153 HD
HETATM   24  C   UNK N   1      29.866  17.968   8.413  0.00  0.00     0.292 C 
ENDBRANCH  16  17
ENDBRANCH  13  16
ENDBRANCH   9  10
ENDBRANCH   1   9
BRANCH   6  25
HETATM   25  N   UNK N   1      35.595  11.544  15.139  0.00  0.00    -0.385 N 
HETATM   26  H   UNK N   1      35.286  10.639  14.904  0.00  0.00     0.160 HD
BRANCH  25  27
HETATM   27  C   UNK N   1      35.500  11.975  16.501  0.00  0.00     0.031 A 
HETATM   28  C   UNK N   1      35.509  11.028  17.531  0.00  0.00     0.029 A 
HETATM   29  C   UNK N   1      35.390  11.435  18.866  0.00  0.00     0.005 A 
HETATM   30  C   UNK N   1      35.242  12.790  19.180  0.00  0.00     0.042 A 
HETATM   31  C   UNK N   1      35.227  13.742  18.160  0.00  0.00     0.118 A 
HETATM   32  C   UNK N   1      35.363  13.338  16.831  0.00  0.00     0.071 A 
HETATM   33  F   UNK N   1      35.062  15.056  18.455  0.00  0.00    -0.206 F 
ENDBRANCH  25  27
ENDBRANCH   6  25
TORSDOF 6
ENDMDL
MODEL 4
REMARK VINA RESULT:      -8.3      1.265      1.829
REMARK  6 active torsions:
REMARK  status: ('A' for Active; 'I' for Inactive)
REMARK    1  A    between atoms: N_4  and  C_8 
REMARK    2  A    between atoms: C_8  and  C_9 
REMARK    3  A    between atoms: C_12  and  C_15 
REMARK    4  A    between atoms: C_15  and  C_16 
REMARK       I    between atoms: C_16  and  N_18 
REMARK    5  A    between atoms: C_21  and  N_24 
REMARK    6  A    between atoms: N_24  and  C_25 
ROOT
HETATM    1  C   UNK N   1      34.544  17.399   8.958  0.00  0.00     0.224 C 
HETATM    2  O   UNK N   1      35.185  18.440   9.056  0.00  0.00    -0.273 OA
HETATM    3  N   UNK N   1      34.740  16.358   9.825  0.00  0.00    -0.352 N 
HETATM    4  C   UNK N   1      35.699  16.409  10.931  0.00  0.00     0.127 C 
HETATM    5  C   UNK N   1      36.057  15.007  11.528  0.00  0.00     0.045 C 
HETATM    6  C   UNK N   1      34.942  13.972  11.323  0.00  0.00     0.084 C 
HETATM    7  C   UNK N   1      34.639  13.939   9.855  0.00  0.00     0.045 C 
HETATM    8  C   UNK N   1      33.873  15.201   9.667  0.00  0.00     0.127 C 
ENDROOT
BRANCH   1   9
HETATM    9  C   UNK N   1      33.518  17.196   7.876  0.00  0.00     0.141 C 
BRANCH   9  10
HETATM   10  C   UNK N   1      32.059  17.425   7.747  0.00  0.00    -0.049 A 
HETATM   11  C   UNK N   1      31.221  18.055   8.679  0.00  0.00     0.008 A 
HETATM   12  C   UNK N   1      29.837  18.151   8.404  0.00  0.00     0.009 A 
HETATM   13  C   UNK N   1      29.310  17.625   7.204  0.00  0.00    -0.030 A 
HETATM   14  C   UNK N   1      30.174  17.016   6.299  0.00  0.00     0.009 A 
HETATM   15  C   UNK N   1      31.522  16.916   6.570  0.00  0.00     0.008 A 
BRANCH  13  16
HETATM   16  C   UNK N   1      27.823  17.673   6.922  0.00  0.00     0.311 C 
BRANCH  16  17
HETATM   17  N   UNK N   1      27.472  17.691   5.490  0.00  0.00     0.096 N 
HETATM   18  C   UNK N   1      26.756  18.941   5.232  0.00  0.00     0.296 C 
HETATM   19  C   UNK N   1      26.344  19.032   3.754  0.00  0.00     0.100 C 
HETATM   20  C   UNK N   1      25.530  20.293   3.548  0.00  0.00     0.033 C 
HETATM   21  N   UNK N   1      25.530  17.878   3.366  0.00  0.00    -0.414 N 
HETATM   22  C   UNK N   1      26.261  16.647   3.655  0.00  0.00     0.144 C 
HETATM   23  H   UNK N   1      24.598  17.926   2.956  0.00  0.00     0.153 HD
HETATM   24  C   UNK N   1      26.564  16.592   5.148  0.00  0.00     0.292 C 
ENDBRANCH  16  17
ENDBRANCH  13  16
ENDBRANCH   9  10
ENDBRANCH   1   9
BRANCH   6  25
HETATM   25  N   UNK N   1      35.261  12.649  11.822  0.00  0.00    -0.385 N 
HETATM   26  H   UNK N   1      35.738  12.019  11.235  0.00  0.00     0.160 HD
BRANCH  25  27
HETATM   27  C   UNK N   1      34.904  12.227  13.143  0.00  0.00     0.031 A 
HETATM   28  C   UNK N   1      34.151  11.061  13.319  0.00  0.00     0.029 A 
HETATM   29  C   UNK N   1      33.772  10.651  14.604  0.00  0.00     0.005 A 
HETATM   30  C   UNK N   1      34.128  11.414  15.721  0.00  0.00     0.042 A 
HETATM   31  C   UNK N   1      34.874  12.582  15.556  0.00  0.00     0.118 A 
HETATM   32  C   UNK N   1      35.266  12.980  14.277  0.00  0.00     0.071 A 
HETATM   33  F   UNK N   1      35.204  13.338  16.633  0.00  0.00    -0.206 F 
ENDBRANCH  25  27
ENDBRANCH   6  25
TORSDOF 6
ENDMDL
MODEL 5
REMARK VINA RESULT:      -8.1      1.586      2.045
REMARK  6 active torsions:
REMARK  status: ('A' for Active; 'I' for Inactive)
REMARK    1  A    between atoms: N_4  and  C_8 
REMARK    2  A    between atoms: C_8  and  C_9 
REMARK    3  A    between atoms: C_12  and  C_15 
REMARK    4  A    between atoms: C_15  and  C_16 
REMARK       I    between atoms: C_16  and  N_18 
REMARK    5  A    between atoms: C_21  and  N_24 
REMARK    6  A    between atoms: N_24  and  C_25 
ROOT
HETATM    1  C   UNK N   1      34.876  15.892   7.412  0.00  0.00     0.224 C 
HETATM    2  O   UNK N   1      35.560  15.696   6.413  0.00  0.00    -0.273 OA
HETATM    3  N   UNK N   1      35.074  15.178   8.562  0.00  0.00    -0.352 N 
HETATM    4  C   UNK N   1      36.113  14.155   8.699  0.00  0.00     0.127 C 
HETATM    5  C   UNK N   1      35.905  13.196   9.919  0.00  0.00     0.045 C 
HETATM    6  C   UNK N   1      35.095  13.843  11.051  0.00  0.00     0.084 C 
HETATM    7  C   UNK N   1      33.813  14.332  10.448  0.00  0.00     0.045 C 
HETATM    8  C   UNK N   1      34.259  15.545   9.710  0.00  0.00     0.127 C 
ENDROOT
BRANCH   1   9
HETATM    9  C   UNK N   1      33.772  16.914   7.429  0.00  0.00     0.141 C 
BRANCH   9  10
HETATM   10  C   UNK N   1      32.343  16.932   7.034  0.00  0.00    -0.049 A 
HETATM   11  C   UNK N   1      31.825  16.759   5.741  0.00  0.00     0.008 A 
HETATM   12  C   UNK N   1      30.428  16.848   5.544  0.00  0.00     0.009 A 
HETATM   13  C   UNK N   1      29.567  17.100   6.634  0.00  0.00    -0.030 A 
HETATM   14  C   UNK N   1      30.116  17.255   7.904  0.00  0.00     0.009 A 
HETATM   15  C   UNK N   1      31.480  17.177   8.096  0.00  0.00     0.008 A 
BRANCH  13  16
HETATM   16  C   UNK N   1      28.074  17.249   6.427  0.00  0.00     0.311 C 
BRANCH  16  17
HETATM   17  N   UNK N   1      27.688  18.356   5.533  0.00  0.00     0.096 N 
HETATM   18  C   UNK N   1      27.505  19.546   6.366  0.00  0.00     0.296 C 
HETATM   19  C   UNK N   1      27.088  20.749   5.504  0.00  0.00     0.100 C 
HETATM   20  C   UNK N   1      26.823  21.933   6.410  0.00  0.00     0.033 C 
HETATM   21  N   UNK N   1      25.871  20.453   4.747  0.00  0.00    -0.414 N 
HETATM   22  C   UNK N   1      26.075  19.251   3.944  0.00  0.00     0.144 C 
HETATM   23  H   UNK N   1      25.012  21.002   4.776  0.00  0.00     0.153 HD
HETATM   24  C   UNK N   1      26.407  18.088   4.873  0.00  0.00     0.292 C 
ENDBRANCH  16  17
ENDBRANCH  13  16
ENDBRANCH   9  10
ENDBRANCH   1   9
BRANCH   6  25
HETATM   25  N   UNK N   1      34.843  12.965  12.177  0.00  0.00    -0.385 N 
HETATM   26  H   UNK N   1      34.290  12.162  12.042  0.00  0.00     0.160 HD
BRANCH  25  27
HETATM   27  C   UNK N   1      35.371  13.229  13.482  0.00  0.00     0.031 A 
HETATM   28  C   UNK N   1      34.984  12.428  14.562  0.00  0.00     0.029 A 
HETATM   29  C   UNK N   1      35.473  12.693  15.848  0.00  0.00     0.005 A 
HETATM   30  C   UNK N   1      36.336  13.771  16.066  0.00  0.00     0.042 A 
HETATM   31  C   UNK N   1      36.724  14.580  14.997  0.00  0.00     0.118 A 
HETATM   32  C   UNK N   1      36.251  14.305  13.713  0.00  0.00     0.071 A 
HETATM   33  F   UNK N   1      37.544  15.640  15.205  0.00  0.00    -0.206 F 
ENDBRANCH  25  27
ENDBRANCH   6  25
TORSDOF 6
ENDMDL
MODEL 6
REMARK VINA RESULT:      -8.1      1.667      2.451
REMARK  6 active torsions:
REMARK  status: ('A' for Active; 'I' for Inactive)
REMARK    1  A    between atoms: N_4  and  C_8 
REMARK    2  A    between atoms: C_8  and  C_9 
REMARK    3  A    between atoms: C_12  and  C_15 
REMARK    4  A    between atoms: C_15  and  C_16 
REMARK       I    between atoms: C_16  and  N_18 
REMARK    5  A    between atoms: C_21  and  N_24 
REMARK    6  A    between atoms: N_24  and  C_25 
ROOT
HETATM    1  C   UNK N   1      34.667  17.344   8.474  0.00  0.00     0.224 C 
HETATM    2  O   UNK N   1      34.840  18.538   8.693  0.00  0.00    -0.273 OA
HETATM    3  N   UNK N   1      34.904  16.401   9.437  0.00  0.00    -0.352 N 
HETATM    4  C   UNK N   1      35.354  16.736  10.791  0.00  0.00     0.127 C 
HETATM    5  C   UNK N   1      35.948  15.524  11.583  0.00  0.00     0.045 C 
HETATM    6  C   UNK N   1      35.393  14.174  11.105  0.00  0.00     0.084 C 
HETATM    7  C   UNK N   1      35.634  14.100   9.627  0.00  0.00     0.045 C 
HETATM    8  C   UNK N   1      34.593  15.021   9.096  0.00  0.00     0.127 C 
ENDROOT
BRANCH   1   9
HETATM    9  C   UNK N   1      34.202  16.842   7.134  0.00  0.00     0.141 C 
BRANCH   9  10
HETATM   10  C   UNK N   1      33.011  17.061   6.279  0.00  0.00    -0.049 A 
HETATM   11  C   UNK N   1      33.004  17.466   4.935  0.00  0.00     0.008 A 
HETATM   12  C   UNK N   1      31.764  17.664   4.284  0.00  0.00     0.009 A 
HETATM   13  C   UNK N   1      30.552  17.450   4.976  0.00  0.00    -0.030 A 
HETATM   14  C   UNK N   1      30.599  17.038   6.306  0.00  0.00     0.009 A 
HETATM   15  C   UNK N   1      31.808  16.852   6.943  0.00  0.00     0.008 A 
BRANCH  13  16
HETATM   16  C   UNK N   1      29.219  17.709   4.307  0.00  0.00     0.311 C 
BRANCH  16  17
HETATM   17  N   UNK N   1      28.188  16.691   4.582  0.00  0.00     0.096 N 
HETATM   18  C   UNK N   1      27.701  16.205   3.290  0.00  0.00     0.296 C 
HETATM   19  C   UNK N   1      26.609  15.142   3.490  0.00  0.00     0.100 C 
HETATM   20  C   UNK N   1      26.070  14.731   2.136  0.00  0.00     0.033 C 
HETATM   21  N   UNK N   1      25.507  15.670   4.296  0.00  0.00    -0.414 N 
HETATM   22  C   UNK N   1      26.025  16.166   5.568  0.00  0.00     0.144 C 
HETATM   23  H   UNK N   1      24.527  15.687   4.013  0.00  0.00     0.153 HD
HETATM   24  C   UNK N   1      27.041  17.268   5.289  0.00  0.00     0.292 C 
ENDBRANCH  16  17
ENDBRANCH  13  16
ENDBRANCH   9  10
ENDBRANCH   1   9
BRANCH   6  25
HETATM   25  N   UNK N   1      35.958  13.026  11.786  0.00  0.00    -0.385 N 
HETATM   26  H   UNK N   1      36.851  12.706  11.523  0.00  0.00     0.160 HD
BRANCH  25  27
HETATM   27  C   UNK N   1      35.257  12.339  12.829  0.00  0.00     0.031 A 
HETATM   28  C   UNK N   1      34.593  11.141  12.546  0.00  0.00     0.029 A 
HETATM   29  C   UNK N   1      33.881  10.473  13.552  0.00  0.00     0.005 A 
HETATM   30  C   UNK N   1      33.814  11.007  14.842  0.00  0.00     0.042 A 
HETATM   31  C   UNK N   1      34.469  12.205  15.134  0.00  0.00     0.118 A 
HETATM   32  C   UNK N   1      35.192  12.860  14.136  0.00  0.00     0.071 A 
HETATM   33  F   UNK N   1      34.391  12.740  16.378  0.00  0.00    -0.206 F 
ENDBRANCH  25  27
ENDBRANCH   6  25
TORSDOF 6
ENDMDL
MODEL 7
REMARK VINA RESULT:      -7.9      4.623     12.740
REMARK  6 active torsions:
REMARK  status: ('A' for Active; 'I' for Inactive)
REMARK    1  A    between atoms: N_4  and  C_8 
REMARK    2  A    between atoms: C_8  and  C_9 
REMARK    3  A    between atoms: C_12  and  C_15 
REMARK    4  A    between atoms: C_15  and  C_16 
REMARK       I    between atoms: C_16  and  N_18 
REMARK    5  A    between atoms: C_21  and  N_24 
REMARK    6  A    between atoms: N_24  and  C_25 
ROOT
HETATM    1  C   UNK N   1      36.755  13.137  12.460  0.00  0.00     0.224 C 
HETATM    2  O   UNK N   1      37.395  12.183  12.032  0.00  0.00    -0.273 OA
HETATM    3  N   UNK N   1      36.102  13.993  11.616  0.00  0.00    -0.352 N 
HETATM    4  C   UNK N   1      36.098  13.831  10.159  0.00  0.00     0.127 C 
HETATM    5  C   UNK N   1      35.656  15.113   9.377  0.00  0.00     0.045 C 
HETATM    6  C   UNK N   1      34.741  16.027  10.205  0.00  0.00     0.084 C 
HETATM    7  C   UNK N   1      35.461  16.324  11.485  0.00  0.00     0.045 C 
HETATM    8  C   UNK N   1      35.310  15.046  12.232  0.00  0.00     0.127 C 
ENDROOT
BRANCH   1   9
HETATM    9  C   UNK N   1      36.661  13.434  13.932  0.00  0.00     0.141 C 
BRANCH   9  10
HETATM   10  C   UNK N   1      36.346  12.650  15.150  0.00  0.00    -0.049 A 
HETATM   11  C   UNK N   1      36.632  11.294  15.375  0.00  0.00     0.008 A 
HETATM   12  C   UNK N   1      36.220  10.697  16.589  0.00  0.00     0.009 A 
HETATM   13  C   UNK N   1      35.537  11.458  17.563  0.00  0.00    -0.030 A 
HETATM   14  C   UNK N   1      35.280  12.803  17.309  0.00  0.00     0.009 A 
HETATM   15  C   UNK N   1      35.675  13.383  16.122  0.00  0.00     0.008 A 
BRANCH  13  16
HETATM   16  C   UNK N   1      35.044  10.819  18.844  0.00  0.00     0.311 C 
BRANCH  16  17
HETATM   17  N   UNK N   1      35.134   9.347  18.868  0.00  0.00     0.096 N 
HETATM   18  C   UNK N   1      33.800   8.834  19.180  0.00  0.00     0.296 C 
HETATM   19  C   UNK N   1      33.810   7.298  19.234  0.00  0.00     0.100 C 
HETATM   20  C   UNK N   1      32.437   6.811  19.645  0.00  0.00     0.033 C 
HETATM   21  N   UNK N   1      34.792   6.816  20.207  0.00  0.00    -0.414 N 
HETATM   22  C   UNK N   1      36.108   7.361  19.883  0.00  0.00     0.144 C 
HETATM   23  H   UNK N   1      34.589   6.195  20.990  0.00  0.00     0.153 HD
HETATM   24  C   UNK N   1      36.035   8.883  19.926  0.00  0.00     0.292 C 
ENDBRANCH  16  17
ENDBRANCH  13  16
ENDBRANCH   9  10
ENDBRANCH   1   9
BRANCH   6  25
HETATM   25  N   UNK N   1      34.351  17.247   9.526  0.00  0.00    -0.385 N 
HETATM   26  H   UNK N   1      34.696  18.108   9.857  0.00  0.00     0.160 HD
BRANCH  25  27
HETATM   27  C   UNK N   1      33.478  17.242   8.392  0.00  0.00     0.031 A 
HETATM   28  C   UNK N   1      32.135  16.884   8.551  0.00  0.00     0.029 A 
HETATM   29  C   UNK N   1      31.277  16.849   7.444  0.00  0.00     0.005 A 
HETATM   30  C   UNK N   1      31.760  17.155   6.168  0.00  0.00     0.042 A 
HETATM   31  C   UNK N   1      33.099  17.509   5.997  0.00  0.00     0.118 A 
HETATM   32  C   UNK N   1      33.949  17.560   7.103  0.00  0.00     0.071 A 
HETATM   33  F   UNK N   1      33.579  17.785   4.759  0.00  0.00    -0.206 F 
ENDBRANCH  25  27
ENDBRANCH   6  25
TORSDOF 6
ENDMDL
MODEL 8
REMARK VINA RESULT:      -7.7      4.048     11.686
REMARK  6 active torsions:
REMARK  status: ('A' for Active; 'I' for Inactive)
REMARK    1  A    between atoms: N_4  and  C_8 
REMARK    2  A    between atoms: C_8  and  C_9 
REMARK    3  A    between atoms: C_12  and  C_15 
REMARK    4  A    between atoms: C_15  and  C_16 
REMARK       I    between atoms: C_16  and  N_18 
REMARK    5  A    between atoms: C_21  and  N_24 
REMARK    6  A    between atoms: N_24  and  C_25 
ROOT
HETATM    1  C   UNK N   1      30.115  17.520   8.382  0.00  0.00     0.224 C 
HETATM    2  O   UNK N   1      29.807  17.831   9.528  0.00  0.00    -0.273 OA
HETATM    3  N   UNK N   1      29.442  18.023   7.302  0.00  0.00    -0.352 N 
HETATM    4  C   UNK N   1      28.333  18.973   7.423  0.00  0.00     0.127 C 
HETATM    5  C   UNK N   1      27.458  19.098   6.131  0.00  0.00     0.045 C 
HETATM    6  C   UNK N   1      28.232  18.744   4.853  0.00  0.00     0.084 C 
HETATM    7  C   UNK N   1      28.810  17.376   5.056  0.00  0.00     0.045 C 
HETATM    8  C   UNK N   1      29.938  17.649   5.987  0.00  0.00     0.127 C 
ENDROOT
BRANCH   1   9
HETATM    9  C   UNK N   1      31.235  16.558   8.095  0.00  0.00     0.141 C 
BRANCH   9  10
HETATM   10  C   UNK N   1      32.451  16.106   8.813  0.00  0.00    -0.049 A 
HETATM   11  C   UNK N   1      32.609  14.910   9.529  0.00  0.00     0.008 A 
HETATM   12  C   UNK N   1      33.835  14.662  10.189  0.00  0.00     0.009 A 
HETATM   13  C   UNK N   1      34.886  15.602  10.121  0.00  0.00    -0.030 A 
HETATM   14  C   UNK N   1      34.696  16.773   9.392  0.00  0.00     0.009 A 
HETATM   15  C   UNK N   1      33.498  17.019   8.755  0.00  0.00     0.008 A 
BRANCH  13  16
HETATM   16  C   UNK N   1      36.184  15.373  10.866  0.00  0.00     0.311 C 
BRANCH  16  17
HETATM   17  N   UNK N   1      36.206  14.155  11.696  0.00  0.00     0.096 N 
HETATM   18  C   UNK N   1      36.342  14.580  13.090  0.00  0.00     0.296 C 
HETATM   19  C   UNK N   1      36.384  13.360  14.025  0.00  0.00     0.100 C 
HETATM   20  C   UNK N   1      36.615  13.837  15.444  0.00  0.00     0.033 C 
HETATM   21  N   UNK N   1      37.469  12.452  13.651  0.00  0.00    -0.414 N 
HETATM   22  C   UNK N   1      37.320  12.062  12.252  0.00  0.00     0.144 C 
HETATM   23  H   UNK N   1      38.215  12.138  14.272  0.00  0.00     0.153 HD
HETATM   24  C   UNK N   1      37.366  13.315  11.384  0.00  0.00     0.292 C 
ENDBRANCH  16  17
ENDBRANCH  13  16
ENDBRANCH   9  10
ENDBRANCH   1   9
BRANCH   6  25
HETATM   25  N   UNK N   1      27.437  18.803   3.642  0.00  0.00    -0.385 N 
HETATM   26  H   UNK N   1      27.894  18.782   2.771  0.00  0.00     0.160 HD
BRANCH  25  27
HETATM   27  C   UNK N   1      26.009  18.893   3.673  0.00  0.00     0.031 A 
HETATM   28  C   UNK N   1      25.250  17.766   4.005  0.00  0.00     0.029 A 
HETATM   29  C   UNK N   1      23.850  17.834   4.013  0.00  0.00     0.005 A 
HETATM   30  C   UNK N   1      23.200  19.024   3.670  0.00  0.00     0.042 A 
HETATM   31  C   UNK N   1      23.947  20.152   3.332  0.00  0.00     0.118 A 
HETATM   32  C   UNK N   1      25.342  20.089   3.342  0.00  0.00     0.071 A 
HETATM   33  F   UNK N   1      23.323  21.303   2.978  0.00  0.00    -0.206 F 
ENDBRANCH  25  27
ENDBRANCH   6  25
TORSDOF 6
ENDMDL
MODEL 9
REMARK VINA RESULT:      -7.6      1.813      2.647
REMARK  6 active torsions:
REMARK  status: ('A' for Active; 'I' for Inactive)
REMARK    1  A    between atoms: N_4  and  C_8 
REMARK    2  A    between atoms: C_8  and  C_9 
REMARK    3  A    between atoms: C_12  and  C_15 
REMARK    4  A    between atoms: C_15  and  C_16 
REMARK       I    between atoms: C_16  and  N_18 
REMARK    5  A    between atoms: C_21  and  N_24 
REMARK    6  A    between atoms: N_24  and  C_25 
ROOT
HETATM    1  C   UNK N   1      32.835  17.233   8.287  0.00  0.00     0.224 C 
HETATM    2  O   UNK N   1      33.309  18.255   7.803  0.00  0.00    -0.273 OA
HETATM    3  N   UNK N   1      33.535  16.481   9.191  0.00  0.00    -0.352 N 
HETATM    4  C   UNK N   1      34.875  16.840   9.662  0.00  0.00     0.127 C 
HETATM    5  C   UNK N   1      35.643  15.664  10.353  0.00  0.00     0.045 C 
HETATM    6  C   UNK N   1      34.701  14.619  10.968  0.00  0.00     0.084 C 
HETATM    7  C   UNK N   1      33.773  14.171   9.878  0.00  0.00     0.045 C 
HETATM    8  C   UNK N   1      32.849  15.331   9.760  0.00  0.00     0.127 C 
ENDROOT
BRANCH   1   9
HETATM    9  C   UNK N   1      31.467  16.736   7.907  0.00  0.00     0.141 C 
BRANCH   9  10
HETATM   10  C   UNK N   1      30.416  17.160   6.951  0.00  0.00    -0.049 A 
HETATM   11  C   UNK N   1      29.134  17.636   7.267  0.00  0.00     0.008 A 
HETATM   12  C   UNK N   1      28.243  17.959   6.218  0.00  0.00     0.009 A 
HETATM   13  C   UNK N   1      28.642  17.810   4.871  0.00  0.00    -0.030 A 
HETATM   14  C   UNK N   1      29.925  17.344   4.597  0.00  0.00     0.009 A 
HETATM   15  C   UNK N   1      30.791  17.022   5.620  0.00  0.00     0.008 A 
BRANCH  13  16
HETATM   16  C   UNK N   1      27.680  18.101   3.739  0.00  0.00     0.311 C 
BRANCH  16  17
HETATM   17  N   UNK N   1      26.349  18.567   4.170  0.00  0.00     0.096 N 
HETATM   18  C   UNK N   1      25.392  17.507   3.853  0.00  0.00     0.296 C 
HETATM   19  C   UNK N   1      23.970  17.922   4.265  0.00  0.00     0.100 C 
HETATM   20  C   UNK N   1      23.000  16.839   3.839  0.00  0.00     0.033 C 
HETATM   21  N   UNK N   1      23.586  19.179   3.620  0.00  0.00    -0.414 N 
HETATM   22  C   UNK N   1      24.569  20.211   3.937  0.00  0.00     0.144 C 
HETATM   23  H   UNK N   1      22.758  19.314   3.040  0.00  0.00     0.153 HD
HETATM   24  C   UNK N   1      25.935  19.762   3.429  0.00  0.00     0.292 C 
ENDBRANCH  16  17
ENDBRANCH  13  16
ENDBRANCH   9  10
ENDBRANCH   1   9
BRANCH   6  25
HETATM   25  N   UNK N   1      35.379  13.492  11.575  0.00  0.00    -0.385 N 
HETATM   26  H   UNK N   1      35.712  12.768  10.998  0.00  0.00     0.160 HD
BRANCH  25  27
HETATM   27  C   UNK N   1      35.580  13.396  12.990  0.00  0.00     0.031 A 
HETATM   28  C   UNK N   1      34.859  12.453  13.730  0.00  0.00     0.029 A 
HETATM   29  C   UNK N   1      35.028  12.367  15.119  0.00  0.00     0.005 A 
HETATM   30  C   UNK N   1      35.903  13.235  15.778  0.00  0.00     0.042 A 
HETATM   31  C   UNK N   1      36.623  14.183  15.050  0.00  0.00     0.118 A 
HETATM   32  C   UNK N   1      36.468  14.256  13.665  0.00  0.00     0.071 A 
HETATM   33  F   UNK N   1      37.457  15.042  15.686  0.00  0.00    -0.206 F 
ENDBRANCH  25  27
ENDBRANCH   6  25
TORSDOF 6
ENDMDL
