MODEL 1
REMARK VINA RESULT:      -8.5      0.000      0.000
REMARK  14 active torsions:
REMARK  status: ('A' for Active; 'I' for Inactive)
REMARK    1  A    between atoms: C_7  and  C_40 
REMARK    2  A    between atoms: N_10  and  C_13 
REMARK    3  A    between atoms: C_14  and  C_13 
REMARK    4  A    between atoms: N_18  and  C_19 
REMARK    5  A    between atoms: C_19  and  C_20 
REMARK    6  A    between atoms: C_20  and  C_21 
REMARK    7  A    between atoms: C_21  and  C_22 
REMARK    8  A    between atoms: C_22  and  C_23 
REMARK    9  A    between atoms: C_26  and  O_29 
REMARK   10  A    between atoms: O_29  and  C_30 
REMARK   11  A    between atoms: C_30  and  C_31 
REMARK   12  A    between atoms: C_31  and  C_32 
REMARK   13  A    between atoms: C_32  and  N_33 
REMARK   14  A    between atoms: C_40  and  C_41 
ROOT
HETATM    1  C   UNK N   1      21.676  18.473   3.500  0.00  0.00     0.242 C 
HETATM    2  C   UNK N   1      20.403  18.627   2.694  0.00  0.00     0.039 C 
HETATM    3  C   UNK N   1      20.311  20.122   2.426  0.00  0.00     0.032 C 
HETATM    4  C   UNK N   1      21.704  20.664   2.723  0.00  0.00     0.273 C 
HETATM    5  N   UNK N   1      22.539  19.490   2.927  0.00  0.00     0.094 N 
ENDROOT
BRANCH   1   6
HETATM    6  C   UNK N   1      21.352  18.694   4.990  0.00  0.00     0.188 C 
BRANCH   6   7
HETATM    7  N   UNK N   1      21.585  17.426   5.663  0.00  0.00    -0.255 N 
HETATM    8  N   UNK N   1      22.089  16.426   4.940  0.00  0.00    -0.299 N 
HETATM    9  C   UNK N   1      22.189  15.156   5.411  0.00  0.00     0.041 A 
ATOM     10  HN  UNK N   1      22.414  16.624   3.994  1.00  0.00     0.187 HD
HETATM   11  C   UNK N   1      21.716  14.869   6.700  0.00  0.00     0.004 A 
HETATM   12  C   UNK N   1      21.208  15.923   7.492  0.00  0.00     0.046 A 
HETATM   13  C   UNK N   1      21.736  13.566   7.216  0.00  0.00     0.014 A 
HETATM   14  C   UNK N   1      20.728  15.656   8.782  0.00  0.00     0.018 A 
HETATM   15  C   UNK N   1      21.164  17.215   6.959  0.00  0.00     0.273 A 
HETATM   16  C   UNK N   1      20.742  14.352   9.281  0.00  0.00     0.001 A 
HETATM   17  C   UNK N   1      21.242  13.309   8.498  0.00  0.00     0.001 A 
HETATM   18  O   UNK N   1      20.716  18.141   7.621  0.00  0.00    -0.266 OA
BRANCH   9  19
HETATM   19  C   UNK N   1      22.784  14.083   4.529  0.00  0.00     0.098 C 
BRANCH  19  20
HETATM   20  C   UNK N   1      24.157  14.452   4.044  0.00  0.00    -0.052 A 
HETATM   21  C   UNK N   1      25.239  14.371   4.925  0.00  0.00     0.009 A 
HETATM   22  C   UNK N   1      26.508  14.791   4.518  0.00  0.00     0.024 A 
HETATM   23  C   UNK N   1      26.698  15.299   3.230  0.00  0.00     0.034 A 
HETATM   24  C   UNK N   1      25.621  15.370   2.340  0.00  0.00     0.024 A 
HETATM   25 Cl   UNK N   1      28.281  15.857   2.734  0.00  0.00    -0.084 Cl
HETATM   26  C   UNK N   1      24.352  14.948   2.746  0.00  0.00     0.009 A 
ENDBRANCH  19  20
ENDBRANCH   9  19
ENDBRANCH   6   7
ENDBRANCH   1   6
BRANCH   5  27
HETATM   27  C   UNK N   1      23.857  19.660   3.551  0.00  0.00     0.273 C 
BRANCH  27  28
HETATM   28  C   UNK N   1      24.884  20.358   2.670  0.00  0.00     0.030 C 
BRANCH  28  29
HETATM   29  C   UNK N   1      26.170  20.625   3.462  0.00  0.00     0.006 C 
BRANCH  29  30
HETATM   30  C   UNK N   1      27.005  19.360   3.749  0.00  0.00     0.038 C 
BRANCH  30  31
HETATM   31  C   UNK N   1      27.226  19.175   5.212  0.00  0.00    -0.058 A 
HETATM   32  C   UNK N   1      27.385  20.290   6.043  0.00  0.00     0.010 A 
HETATM   33  C   UNK N   1      27.766  20.119   7.372  0.00  0.00     0.037 A 
HETATM   34  C   UNK N   1      27.982  18.829   7.881  0.00  0.00     0.068 A 
HETATM   35  C   UNK N   1      27.766  17.715   7.063  0.00  0.00     0.037 A 
HETATM   36  C   UNK N   1      27.399  17.887   5.728  0.00  0.00     0.010 A 
BRANCH  34  37
HETATM   37  O   UNK N   1      28.441  18.635   9.134  0.00  0.00    -0.351 OA
BRANCH  37  38
HETATM   38  C   UNK N   1      29.465  17.765   9.449  0.00  0.00     0.177 C 
BRANCH  38  39
HETATM   39  C   UNK N   1      30.784  18.245   8.832  0.00  0.00     0.057 C 
BRANCH  39  40
HETATM   40  C   UNK N   1      31.736  17.104   8.450  0.00  0.00     0.274 C 
BRANCH  40  41
HETATM   41  N   UNK N   1      32.126  17.165   7.047  0.00  0.00     0.088 N 
HETATM   42  C   UNK N   1      33.166  16.163   6.828  0.00  0.00     0.272 C 
HETATM   43  C   UNK N   1      34.055  16.554   5.659  0.00  0.00     0.030 C 
HETATM   44  C   UNK N   1      33.291  16.499   4.345  0.00  0.00     0.002 C 
HETATM   45  C   UNK N   1      32.303  17.654   4.262  0.00  0.00     0.002 C 
HETATM   46  C   UNK N   1      30.939  17.312   4.867  0.00  0.00     0.030 C 
HETATM   47  C   UNK N   1      30.970  16.718   6.280  0.00  0.00     0.272 C 
ENDBRANCH  40  41
ENDBRANCH  39  40
ENDBRANCH  38  39
ENDBRANCH  37  38
ENDBRANCH  34  37
ENDBRANCH  30  31
ENDBRANCH  29  30
ENDBRANCH  28  29
ENDBRANCH  27  28
ENDBRANCH   5  27
TORSDOF 14
ENDMDL
MODEL 2
REMARK VINA RESULT:      -8.2      1.772      2.802
REMARK  14 active torsions:
REMARK  status: ('A' for Active; 'I' for Inactive)
REMARK    1  A    between atoms: C_7  and  C_40 
REMARK    2  A    between atoms: N_10  and  C_13 
REMARK    3  A    between atoms: C_14  and  C_13 
REMARK    4  A    between atoms: N_18  and  C_19 
REMARK    5  A    between atoms: C_19  and  C_20 
REMARK    6  A    between atoms: C_20  and  C_21 
REMARK    7  A    between atoms: C_21  and  C_22 
REMARK    8  A    between atoms: C_22  and  C_23 
REMARK    9  A    between atoms: C_26  and  O_29 
REMARK   10  A    between atoms: O_29  and  C_30 
REMARK   11  A    between atoms: C_30  and  C_31 
REMARK   12  A    between atoms: C_31  and  C_32 
REMARK   13  A    between atoms: C_32  and  N_33 
REMARK   14  A    between atoms: C_40  and  C_41 
ROOT
HETATM    1  C   UNK N   1      22.156  15.157   4.470  0.00  0.00     0.242 C 
HETATM    2  C   UNK N   1      21.723  13.973   3.631  0.00  0.00     0.039 C 
HETATM    3  C   UNK N   1      20.695  14.555   2.671  0.00  0.00     0.032 C 
HETATM    4  C   UNK N   1      20.902  16.064   2.735  0.00  0.00     0.273 C 
HETATM    5  N   UNK N   1      22.113  16.253   3.520  0.00  0.00     0.094 N 
ENDROOT
BRANCH   1   6
HETATM    6  C   UNK N   1      21.180  15.315   5.652  0.00  0.00     0.188 C 
BRANCH   6   7
HETATM    7  N   UNK N   1      21.846  14.767   6.823  0.00  0.00    -0.255 N 
HETATM    8  N   UNK N   1      23.169  14.624   6.770  0.00  0.00    -0.299 N 
HETATM    9  C   UNK N   1      23.876  13.971   7.729  0.00  0.00     0.041 A 
ATOM     10  HN  UNK N   1      23.672  15.022   5.978  1.00  0.00     0.187 HD
HETATM   11  C   UNK N   1      23.189  13.394   8.807  0.00  0.00     0.004 A 
HETATM   12  C   UNK N   1      21.790  13.563   8.895  0.00  0.00     0.046 A 
HETATM   13  C   UNK N   1      23.858  12.655   9.792  0.00  0.00     0.014 A 
HETATM   14  C   UNK N   1      21.084  12.992   9.963  0.00  0.00     0.018 A 
HETATM   15  C   UNK N   1      21.126  14.276   7.891  0.00  0.00     0.273 A 
HETATM   16  C   UNK N   1      21.760  12.248  10.933  0.00  0.00     0.001 A 
HETATM   17  C   UNK N   1      23.144  12.077  10.846  0.00  0.00     0.001 A 
HETATM   18  O   UNK N   1      19.913  14.424   7.939  0.00  0.00    -0.266 OA
BRANCH   9  19
HETATM   19  C   UNK N   1      25.378  13.863   7.598  0.00  0.00     0.098 C 
BRANCH  19  20
HETATM   20  C   UNK N   1      25.836  14.090   6.186  0.00  0.00    -0.052 A 
HETATM   21  C   UNK N   1      26.042  12.991   5.347  0.00  0.00     0.009 A 
HETATM   22  C   UNK N   1      26.551  13.177   4.059  0.00  0.00     0.024 A 
HETATM   23  C   UNK N   1      26.860  14.463   3.607  0.00  0.00     0.034 A 
HETATM   24  C   UNK N   1      26.644  15.567   4.437  0.00  0.00     0.024 A 
HETATM   25 Cl   UNK N   1      27.530  14.690   2.006  0.00  0.00    -0.084 Cl
HETATM   26  C   UNK N   1      26.133  15.382   5.725  0.00  0.00     0.009 A 
ENDBRANCH  19  20
ENDBRANCH   9  19
ENDBRANCH   6   7
ENDBRANCH   1   6
BRANCH   5  27
HETATM   27  C   UNK N   1      22.413  17.590   4.046  0.00  0.00     0.273 C 
BRANCH  27  28
HETATM   28  C   UNK N   1      23.869  18.010   3.903  0.00  0.00     0.030 C 
BRANCH  28  29
HETATM   29  C   UNK N   1      23.963  19.517   3.630  0.00  0.00     0.006 C 
BRANCH  29  30
HETATM   30  C   UNK N   1      25.356  19.986   3.164  0.00  0.00     0.038 C 
BRANCH  30  31
HETATM   31  C   UNK N   1      26.363  19.869   4.259  0.00  0.00    -0.058 A 
HETATM   32  C   UNK N   1      27.467  19.025   4.107  0.00  0.00     0.010 A 
HETATM   33  C   UNK N   1      28.310  18.779   5.189  0.00  0.00     0.037 A 
HETATM   34  C   UNK N   1      28.056  19.385   6.429  0.00  0.00     0.068 A 
HETATM   35  C   UNK N   1      26.984  20.272   6.562  0.00  0.00     0.037 A 
HETATM   36  C   UNK N   1      26.131  20.508   5.481  0.00  0.00     0.010 A 
BRANCH  34  37
HETATM   37  O   UNK N   1      28.795  19.094   7.519  0.00  0.00    -0.351 OA
BRANCH  37  38
HETATM   38  C   UNK N   1      29.137  17.810   7.892  0.00  0.00     0.177 C 
BRANCH  38  39
HETATM   39  C   UNK N   1      30.506  17.800   8.582  0.00  0.00     0.057 C 
BRANCH  39  40
HETATM   40  C   UNK N   1      31.523  16.863   7.917  0.00  0.00     0.274 C 
BRANCH  40  41
HETATM   41  N   UNK N   1      31.274  16.712   6.489  0.00  0.00     0.088 N 
HETATM   42  C   UNK N   1      32.454  17.197   5.777  0.00  0.00     0.272 C 
HETATM   43  C   UNK N   1      32.084  17.676   4.382  0.00  0.00     0.030 C 
HETATM   44  C   UNK N   1      31.645  16.516   3.501  0.00  0.00     0.002 C 
HETATM   45  C   UNK N   1      30.272  16.020   3.931  0.00  0.00     0.002 C 
HETATM   46  C   UNK N   1      30.345  14.940   5.013  0.00  0.00     0.030 C 
HETATM   47  C   UNK N   1      31.211  15.279   6.232  0.00  0.00     0.272 C 
ENDBRANCH  40  41
ENDBRANCH  39  40
ENDBRANCH  38  39
ENDBRANCH  37  38
ENDBRANCH  34  37
ENDBRANCH  30  31
ENDBRANCH  29  30
ENDBRANCH  28  29
ENDBRANCH  27  28
ENDBRANCH   5  27
TORSDOF 14
ENDMDL
MODEL 3
REMARK VINA RESULT:      -8.1      1.646      2.492
REMARK  14 active torsions:
REMARK  status: ('A' for Active; 'I' for Inactive)
REMARK    1  A    between atoms: C_7  and  C_40 
REMARK    2  A    between atoms: N_10  and  C_13 
REMARK    3  A    between atoms: C_14  and  C_13 
REMARK    4  A    between atoms: N_18  and  C_19 
REMARK    5  A    between atoms: C_19  and  C_20 
REMARK    6  A    between atoms: C_20  and  C_21 
REMARK    7  A    between atoms: C_21  and  C_22 
REMARK    8  A    between atoms: C_22  and  C_23 
REMARK    9  A    between atoms: C_26  and  O_29 
REMARK   10  A    between atoms: O_29  and  C_30 
REMARK   11  A    between atoms: C_30  and  C_31 
REMARK   12  A    between atoms: C_31  and  C_32 
REMARK   13  A    between atoms: C_32  and  N_33 
REMARK   14  A    between atoms: C_40  and  C_41 
ROOT
HETATM    1  C   UNK N   1      21.616  16.945   4.169  0.00  0.00     0.242 C 
HETATM    2  C   UNK N   1      20.360  16.667   3.370  0.00  0.00     0.039 C 
HETATM    3  C   UNK N   1      19.754  18.043   3.137  0.00  0.00     0.032 C 
HETATM    4  C   UNK N   1      20.876  19.027   3.445  0.00  0.00     0.273 C 
HETATM    5  N   UNK N   1      22.068  18.210   3.620  0.00  0.00     0.094 N 
ENDROOT
BRANCH   1   6
HETATM    6  C   UNK N   1      21.250  17.008   5.665  0.00  0.00     0.188 C 
BRANCH   6   7
HETATM    7  N   UNK N   1      22.050  15.995   6.335  0.00  0.00    -0.255 N 
HETATM    8  N   UNK N   1      23.371  16.167   6.360  0.00  0.00    -0.299 N 
HETATM    9  C   UNK N   1      24.228  15.211   6.804  0.00  0.00     0.041 A 
ATOM     10  HN  UNK N   1      23.753  17.054   6.034  1.00  0.00     0.187 HD
HETATM   11  C   UNK N   1      23.711  13.977   7.226  0.00  0.00     0.004 A 
HETATM   12  C   UNK N   1      22.312  13.789   7.236  0.00  0.00     0.046 A 
HETATM   13  C   UNK N   1      24.551  12.931   7.634  0.00  0.00     0.014 A 
HETATM   14  C   UNK N   1      21.776  12.562   7.651  0.00  0.00     0.018 A 
HETATM   15  C   UNK N   1      21.483  14.826   6.798  0.00  0.00     0.273 A 
HETATM   16  C   UNK N   1      22.622  11.523   8.045  0.00  0.00     0.001 A 
HETATM   17  C   UNK N   1      24.008  11.707   8.034  0.00  0.00     0.001 A 
HETATM   18  O   UNK N   1      20.268  14.682   6.785  0.00  0.00    -0.266 OA
BRANCH   9  19
HETATM   19  C   UNK N   1      25.713  15.492   6.809  0.00  0.00     0.098 C 
BRANCH  19  20
HETATM   20  C   UNK N   1      26.340  15.224   5.472  0.00  0.00    -0.052 A 
HETATM   21  C   UNK N   1      27.578  14.575   5.412  0.00  0.00     0.009 A 
HETATM   22  C   UNK N   1      28.216  14.396   4.183  0.00  0.00     0.024 A 
HETATM   23  C   UNK N   1      27.623  14.867   3.009  0.00  0.00     0.034 A 
HETATM   24  C   UNK N   1      26.380  15.505   3.061  0.00  0.00     0.024 A 
HETATM   25 Cl   UNK N   1      28.442  14.671   1.474  0.00  0.00    -0.084 Cl
HETATM   26  C   UNK N   1      25.738  15.684   4.290  0.00  0.00     0.009 A 
ENDBRANCH  19  20
ENDBRANCH   9  19
ENDBRANCH   6   7
ENDBRANCH   1   6
BRANCH   5  27
HETATM   27  C   UNK N   1      23.252  18.812   4.245  0.00  0.00     0.273 C 
BRANCH  27  28
HETATM   28  C   UNK N   1      23.877  19.946   3.444  0.00  0.00     0.030 C 
BRANCH  28  29
HETATM   29  C   UNK N   1      25.238  19.512   2.883  0.00  0.00     0.006 C 
BRANCH  29  30
HETATM   30  C   UNK N   1      26.395  20.470   3.230  0.00  0.00     0.038 C 
BRANCH  30  31
HETATM   31  C   UNK N   1      26.987  20.147   4.560  0.00  0.00    -0.058 A 
HETATM   32  C   UNK N   1      27.537  18.882   4.793  0.00  0.00     0.010 A 
HETATM   33  C   UNK N   1      27.929  18.518   6.079  0.00  0.00     0.037 A 
HETATM   34  C   UNK N   1      27.779  19.424   7.142  0.00  0.00     0.068 A 
HETATM   35  C   UNK N   1      27.282  20.707   6.895  0.00  0.00     0.037 A 
HETATM   36  C   UNK N   1      26.877  21.066   5.608  0.00  0.00     0.010 A 
BRANCH  34  37
HETATM   37  O   UNK N   1      28.060  19.071   8.412  0.00  0.00    -0.351 OA
BRANCH  37  38
HETATM   38  C   UNK N   1      28.082  17.764   8.857  0.00  0.00     0.177 C 
BRANCH  38  39
HETATM   39  C   UNK N   1      29.394  17.472   9.593  0.00  0.00     0.057 C 
BRANCH  39  40
HETATM   40  C   UNK N   1      30.646  17.747   8.752  0.00  0.00     0.274 C 
BRANCH  40  41
HETATM   41  N   UNK N   1      31.303  16.516   8.331  0.00  0.00     0.088 N 
HETATM   42  C   UNK N   1      31.160  16.406   6.882  0.00  0.00     0.272 C 
HETATM   43  C   UNK N   1      31.215  14.951   6.442  0.00  0.00     0.030 C 
HETATM   44  C   UNK N   1      32.600  14.363   6.662  0.00  0.00     0.002 C 
HETATM   45  C   UNK N   1      32.851  14.150   8.147  0.00  0.00     0.002 C 
HETATM   46  C   UNK N   1      33.458  15.380   8.827  0.00  0.00     0.030 C 
HETATM   47  C   UNK N   1      32.726  16.704   8.580  0.00  0.00     0.272 C 
ENDBRANCH  40  41
ENDBRANCH  39  40
ENDBRANCH  38  39
ENDBRANCH  37  38
ENDBRANCH  34  37
ENDBRANCH  30  31
ENDBRANCH  29  30
ENDBRANCH  28  29
ENDBRANCH  27  28
ENDBRANCH   5  27
TORSDOF 14
ENDMDL
MODEL 4
REMARK VINA RESULT:      -8.0     12.416     15.758
REMARK  14 active torsions:
REMARK  status: ('A' for Active; 'I' for Inactive)
REMARK    1  A    between atoms: C_7  and  C_40 
REMARK    2  A    between atoms: N_10  and  C_13 
REMARK    3  A    between atoms: C_14  and  C_13 
REMARK    4  A    between atoms: N_18  and  C_19 
REMARK    5  A    between atoms: C_19  and  C_20 
REMARK    6  A    between atoms: C_20  and  C_21 
REMARK    7  A    between atoms: C_21  and  C_22 
REMARK    8  A    between atoms: C_22  and  C_23 
REMARK    9  A    between atoms: C_26  and  O_29 
REMARK   10  A    between atoms: O_29  and  C_30 
REMARK   11  A    between atoms: C_30  and  C_31 
REMARK   12  A    between atoms: C_31  and  C_32 
REMARK   13  A    between atoms: C_32  and  N_33 
REMARK   14  A    between atoms: C_40  and  C_41 
ROOT
HETATM    1  C   UNK N   1      28.494  28.844  -2.812  0.00  0.00     0.242 C 
HETATM    2  C   UNK N   1      29.149  29.554  -1.645  0.00  0.00     0.039 C 
HETATM    3  C   UNK N   1      28.676  30.995  -1.775  0.00  0.00     0.032 C 
HETATM    4  C   UNK N   1      27.488  30.938  -2.728  0.00  0.00     0.273 C 
HETATM    5  N   UNK N   1      27.216  29.520  -2.919  0.00  0.00     0.094 N 
ENDROOT
BRANCH   1   6
HETATM    6  C   UNK N   1      29.391  28.999  -4.056  0.00  0.00     0.188 C 
BRANCH   6   7
HETATM    7  N   UNK N   1      29.194  27.807  -4.867  0.00  0.00    -0.255 N 
HETATM    8  N   UNK N   1      28.981  26.656  -4.231  0.00  0.00    -0.299 N 
HETATM    9  C   UNK N   1      28.953  25.458  -4.871  0.00  0.00     0.041 A 
ATOM     10  HN  UNK N   1      28.831  26.676  -3.222  1.00  0.00     0.187 HD
HETATM   11  C   UNK N   1      29.188  25.419  -6.253  0.00  0.00     0.004 A 
HETATM   12  C   UNK N   1      29.384  26.633  -6.947  0.00  0.00     0.046 A 
HETATM   13  C   UNK N   1      29.234  24.207  -6.955  0.00  0.00     0.014 A 
HETATM   14  C   UNK N   1      29.623  26.615  -8.329  0.00  0.00     0.018 A 
HETATM   15  C   UNK N   1      29.368  27.836  -6.234  0.00  0.00     0.273 A 
HETATM   16  C   UNK N   1      29.679  25.401  -9.016  0.00  0.00     0.001 A 
HETATM   17  C   UNK N   1      29.487  24.199  -8.330  0.00  0.00     0.001 A 
HETATM   18  O   UNK N   1      29.548  28.899  -6.811  0.00  0.00    -0.266 OA
BRANCH   9  19
HETATM   19  C   UNK N   1      28.694  24.199  -4.075  0.00  0.00     0.098 C 
BRANCH  19  20
HETATM   20  C   UNK N   1      29.956  23.428  -3.817  0.00  0.00    -0.052 A 
HETATM   21  C   UNK N   1      31.173  23.926  -4.291  0.00  0.00     0.009 A 
HETATM   22  C   UNK N   1      32.344  23.180  -4.136  0.00  0.00     0.024 A 
HETATM   23  C   UNK N   1      32.302  21.931  -3.510  0.00  0.00     0.034 A 
HETATM   24  C   UNK N   1      31.089  21.434  -3.023  0.00  0.00     0.024 A 
HETATM   25 Cl   UNK N   1      33.764  20.983  -3.348  0.00  0.00    -0.084 Cl
HETATM   26  C   UNK N   1      29.917  22.180  -3.176  0.00  0.00     0.009 A 
ENDBRANCH  19  20
ENDBRANCH   9  19
ENDBRANCH   6   7
ENDBRANCH   1   6
BRANCH   5  27
HETATM   27  C   UNK N   1      26.347  29.111  -4.030  0.00  0.00     0.273 C 
BRANCH  27  28
HETATM   28  C   UNK N   1      25.645  27.777  -3.820  0.00  0.00     0.030 C 
BRANCH  28  29
HETATM   29  C   UNK N   1      24.942  27.337  -5.111  0.00  0.00     0.006 C 
BRANCH  29  30
HETATM   30  C   UNK N   1      25.844  27.373  -6.361  0.00  0.00     0.038 C 
BRANCH  30  31
HETATM   31  C   UNK N   1      25.851  26.057  -7.064  0.00  0.00    -0.058 A 
HETATM   32  C   UNK N   1      25.924  26.010  -8.460  0.00  0.00     0.010 A 
HETATM   33  C   UNK N   1      25.753  24.798  -9.126  0.00  0.00     0.037 A 
HETATM   34  C   UNK N   1      25.515  23.623  -8.396  0.00  0.00     0.068 A 
HETATM   35  C   UNK N   1      25.499  23.665  -6.998  0.00  0.00     0.037 A 
HETATM   36  C   UNK N   1      25.656  24.882  -6.332  0.00  0.00     0.010 A 
BRANCH  34  37
HETATM   37  O   UNK N   1      25.251  22.453  -9.013  0.00  0.00    -0.351 OA
BRANCH  37  38
HETATM   38  C   UNK N   1      26.151  21.797  -9.828  0.00  0.00     0.177 C 
BRANCH  38  39
HETATM   39  C   UNK N   1      27.164  21.014  -8.986  0.00  0.00     0.057 C 
BRANCH  39  40
HETATM   40  C   UNK N   1      28.499  20.767  -9.701  0.00  0.00     0.274 C 
BRANCH  40  41
HETATM   41  N   UNK N   1      29.634  20.875  -8.792  0.00  0.00     0.088 N 
HETATM   42  C   UNK N   1      29.408  19.952  -7.684  0.00  0.00     0.272 C 
HETATM   43  C   UNK N   1      30.135  20.420  -6.434  0.00  0.00     0.030 C 
HETATM   44  C   UNK N   1      31.644  20.330  -6.610  0.00  0.00     0.002 C 
HETATM   45  C   UNK N   1      32.127  21.415  -7.561  0.00  0.00     0.002 C 
HETATM   46  C   UNK N   1      32.107  20.970  -9.026  0.00  0.00     0.030 C 
HETATM   47  C   UNK N   1      30.789  20.360  -9.516  0.00  0.00     0.272 C 
ENDBRANCH  40  41
ENDBRANCH  39  40
ENDBRANCH  38  39
ENDBRANCH  37  38
ENDBRANCH  34  37
ENDBRANCH  30  31
ENDBRANCH  29  30
ENDBRANCH  28  29
ENDBRANCH  27  28
ENDBRANCH   5  27
TORSDOF 14
ENDMDL
MODEL 5
REMARK VINA RESULT:      -8.0      2.561      5.701
REMARK  14 active torsions:
REMARK  status: ('A' for Active; 'I' for Inactive)
REMARK    1  A    between atoms: C_7  and  C_40 
REMARK    2  A    between atoms: N_10  and  C_13 
REMARK    3  A    between atoms: C_14  and  C_13 
REMARK    4  A    between atoms: N_18  and  C_19 
REMARK    5  A    between atoms: C_19  and  C_20 
REMARK    6  A    between atoms: C_20  and  C_21 
REMARK    7  A    between atoms: C_21  and  C_22 
REMARK    8  A    between atoms: C_22  and  C_23 
REMARK    9  A    between atoms: C_26  and  O_29 
REMARK   10  A    between atoms: O_29  and  C_30 
REMARK   11  A    between atoms: C_30  and  C_31 
REMARK   12  A    between atoms: C_31  and  C_32 
REMARK   13  A    between atoms: C_32  and  N_33 
REMARK   14  A    between atoms: C_40  and  C_41 
ROOT
HETATM    1  C   UNK N   1      21.348  16.077   5.430  0.00  0.00     0.242 C 
HETATM    2  C   UNK N   1      20.657  15.965   6.773  0.00  0.00     0.039 C 
HETATM    3  C   UNK N   1      19.175  16.025   6.434  0.00  0.00     0.032 C 
HETATM    4  C   UNK N   1      19.100  15.754   4.936  0.00  0.00     0.273 C 
HETATM    5  N   UNK N   1      20.446  15.361   4.548  0.00  0.00     0.094 N 
ENDROOT
BRANCH   1   6
HETATM    6  C   UNK N   1      21.515  17.568   5.078  0.00  0.00     0.188 C 
BRANCH   6   7
HETATM    7  N   UNK N   1      22.915  17.765   4.735  0.00  0.00    -0.255 N 
HETATM    8  N   UNK N   1      23.793  16.870   5.186  0.00  0.00    -0.299 N 
HETATM    9  C   UNK N   1      25.136  17.039   5.076  0.00  0.00     0.041 A 
ATOM     10  HN  UNK N   1      23.441  16.023   5.632  1.00  0.00     0.187 HD
HETATM   11  C   UNK N   1      25.629  18.215   4.491  0.00  0.00     0.004 A 
HETATM   12  C   UNK N   1      24.711  19.159   3.979  0.00  0.00     0.046 A 
HETATM   13  C   UNK N   1      27.004  18.473   4.407  0.00  0.00     0.014 A 
HETATM   14  C   UNK N   1      25.183  20.343   3.394  0.00  0.00     0.018 A 
HETATM   15  C   UNK N   1      23.341  18.909   4.095  0.00  0.00     0.273 A 
HETATM   16  C   UNK N   1      26.555  20.594   3.326  0.00  0.00     0.001 A 
HETATM   17  C   UNK N   1      27.464  19.662   3.834  0.00  0.00     0.001 A 
HETATM   18  O   UNK N   1      22.527  19.718   3.671  0.00  0.00    -0.266 OA
BRANCH   9  19
HETATM   19  C   UNK N   1      26.063  15.969   5.604  0.00  0.00     0.098 C 
BRANCH  19  20
HETATM   20  C   UNK N   1      25.308  14.817   6.203  0.00  0.00    -0.052 A 
HETATM   21  C   UNK N   1      25.414  14.567   7.575  0.00  0.00     0.009 A 
HETATM   22  C   UNK N   1      24.789  13.450   8.134  0.00  0.00     0.024 A 
HETATM   23  C   UNK N   1      24.059  12.576   7.323  0.00  0.00     0.034 A 
HETATM   24  C   UNK N   1      23.940  12.828   5.953  0.00  0.00     0.024 A 
HETATM   25 Cl   UNK N   1      23.306  11.158   8.020  0.00  0.00    -0.084 Cl
HETATM   26  C   UNK N   1      24.563  13.947   5.392  0.00  0.00     0.009 A 
ENDBRANCH  19  20
ENDBRANCH   9  19
ENDBRANCH   6   7
ENDBRANCH   1   6
BRANCH   5  27
HETATM   27  C   UNK N   1      20.795  15.348   3.122  0.00  0.00     0.273 C 
BRANCH  27  28
HETATM   28  C   UNK N   1      22.273  15.119   2.839  0.00  0.00     0.030 C 
BRANCH  28  29
HETATM   29  C   UNK N   1      22.458  13.885   1.945  0.00  0.00     0.006 C 
BRANCH  29  30
HETATM   30  C   UNK N   1      23.617  14.008   0.936  0.00  0.00     0.038 C 
BRANCH  30  31
HETATM   31  C   UNK N   1      24.929  14.157   1.631  0.00  0.00    -0.058 A 
HETATM   32  C   UNK N   1      25.569  15.401   1.660  0.00  0.00     0.010 A 
HETATM   33  C   UNK N   1      26.868  15.504   2.151  0.00  0.00     0.037 A 
HETATM   34  C   UNK N   1      27.533  14.362   2.625  0.00  0.00     0.068 A 
HETATM   35  C   UNK N   1      26.870  13.132   2.647  0.00  0.00     0.037 A 
HETATM   36  C   UNK N   1      25.573  13.026   2.141  0.00  0.00     0.010 A 
BRANCH  34  37
HETATM   37  O   UNK N   1      28.822  14.412   3.018  0.00  0.00    -0.351 OA
BRANCH  37  38
HETATM   38  C   UNK N   1      29.506  15.587   3.257  0.00  0.00     0.177 C 
BRANCH  38  39
HETATM   39  C   UNK N   1      29.765  15.759   4.758  0.00  0.00     0.057 C 
BRANCH  39  40
HETATM   40  C   UNK N   1      30.508  17.055   5.109  0.00  0.00     0.274 C 
BRANCH  40  41
HETATM   41  N   UNK N   1      30.224  17.496   6.469  0.00  0.00     0.088 N 
HETATM   42  C   UNK N   1      29.038  16.781   6.932  0.00  0.00     0.272 C 
HETATM   43  C   UNK N   1      28.308  17.580   8.000  0.00  0.00     0.030 C 
HETATM   44  C   UNK N   1      29.131  17.672   9.276  0.00  0.00     0.002 C 
HETATM   45  C   UNK N   1      30.312  18.610   9.072  0.00  0.00     0.002 C 
HETATM   46  C   UNK N   1      31.552  17.892   8.533  0.00  0.00     0.030 C 
HETATM   47  C   UNK N   1      31.327  17.018   7.293  0.00  0.00     0.272 C 
ENDBRANCH  40  41
ENDBRANCH  39  40
ENDBRANCH  38  39
ENDBRANCH  37  38
ENDBRANCH  34  37
ENDBRANCH  30  31
ENDBRANCH  29  30
ENDBRANCH  28  29
ENDBRANCH  27  28
ENDBRANCH   5  27
TORSDOF 14
ENDMDL
MODEL 6
REMARK VINA RESULT:      -7.8      2.112      3.416
REMARK  14 active torsions:
REMARK  status: ('A' for Active; 'I' for Inactive)
REMARK    1  A    between atoms: C_7  and  C_40 
REMARK    2  A    between atoms: N_10  and  C_13 
REMARK    3  A    between atoms: C_14  and  C_13 
REMARK    4  A    between atoms: N_18  and  C_19 
REMARK    5  A    between atoms: C_19  and  C_20 
REMARK    6  A    between atoms: C_20  and  C_21 
REMARK    7  A    between atoms: C_21  and  C_22 
REMARK    8  A    between atoms: C_22  and  C_23 
REMARK    9  A    between atoms: C_26  and  O_29 
REMARK   10  A    between atoms: O_29  and  C_30 
REMARK   11  A    between atoms: C_30  and  C_31 
REMARK   12  A    between atoms: C_31  and  C_32 
REMARK   13  A    between atoms: C_32  and  N_33 
REMARK   14  A    between atoms: C_40  and  C_41 
ROOT
HETATM    1  C   UNK N   1      21.506  15.728   4.954  0.00  0.00     0.242 C 
HETATM    2  C   UNK N   1      21.275  14.619   3.949  0.00  0.00     0.039 C 
HETATM    3  C   UNK N   1      20.011  15.041   3.213  0.00  0.00     0.032 C 
HETATM    4  C   UNK N   1      19.836  16.518   3.543  0.00  0.00     0.273 C 
HETATM    5  N   UNK N   1      21.056  16.906   4.236  0.00  0.00     0.094 N 
ENDROOT
BRANCH   1   6
HETATM    6  C   UNK N   1      20.694  15.423   6.228  0.00  0.00     0.188 C 
BRANCH   6   7
HETATM    7  N   UNK N   1      21.629  14.884   7.203  0.00  0.00    -0.255 N 
HETATM    8  N   UNK N   1      22.924  14.905   6.893  0.00  0.00    -0.299 N 
HETATM    9  C   UNK N   1      23.869  14.280   7.643  0.00  0.00     0.041 A 
ATOM     10  HN  UNK N   1      23.219  15.413   6.059  1.00  0.00     0.187 HD
HETATM   11  C   UNK N   1      23.469  13.555   8.775  0.00  0.00     0.004 A 
HETATM   12  C   UNK N   1      22.103  13.548   9.135  0.00  0.00     0.046 A 
HETATM   13  C   UNK N   1      24.391  12.838   9.551  0.00  0.00     0.014 A 
HETATM   14  C   UNK N   1      21.683  12.826  10.261  0.00  0.00     0.018 A 
HETATM   15  C   UNK N   1      21.186  14.240   8.338  0.00  0.00     0.273 A 
HETATM   16  C   UNK N   1      22.609  12.107  11.020  0.00  0.00     0.001 A 
HETATM   17  C   UNK N   1      23.960  12.111  10.663  0.00  0.00     0.001 A 
HETATM   18  O   UNK N   1      19.996  14.238   8.623  0.00  0.00    -0.266 OA
BRANCH   9  19
HETATM   19  C   UNK N   1      25.320  14.364   7.227  0.00  0.00     0.098 C 
BRANCH  19  20
HETATM   20  C   UNK N   1      25.552  13.753   5.875  0.00  0.00    -0.052 A 
HETATM   21  C   UNK N   1      25.956  14.569   4.814  0.00  0.00     0.009 A 
HETATM   22  C   UNK N   1      26.093  14.035   3.531  0.00  0.00     0.024 A 
HETATM   23  C   UNK N   1      25.824  12.682   3.303  0.00  0.00     0.034 A 
HETATM   24  C   UNK N   1      25.432  11.859   4.362  0.00  0.00     0.024 A 
HETATM   25 Cl   UNK N   1      25.963  12.022   1.688  0.00  0.00    -0.084 Cl
HETATM   26  C   UNK N   1      25.296  12.392   5.648  0.00  0.00     0.009 A 
ENDBRANCH  19  20
ENDBRANCH   9  19
ENDBRANCH   6   7
ENDBRANCH   1   6
BRANCH   5  27
HETATM   27  C   UNK N   1      21.076  18.174   4.976  0.00  0.00     0.273 C 
BRANCH  27  28
HETATM   28  C   UNK N   1      21.023  19.415   4.096  0.00  0.00     0.030 C 
BRANCH  28  29
HETATM   29  C   UNK N   1      22.069  19.318   2.977  0.00  0.00     0.006 C 
BRANCH  29  30
HETATM   30  C   UNK N   1      23.139  20.427   3.019  0.00  0.00     0.038 C 
BRANCH  30  31
HETATM   31  C   UNK N   1      24.450  19.898   3.496  0.00  0.00    -0.058 A 
HETATM   32  C   UNK N   1      25.636  20.558   3.156  0.00  0.00     0.010 A 
HETATM   33  C   UNK N   1      26.866  19.973   3.448  0.00  0.00     0.037 A 
HETATM   34  C   UNK N   1      26.917  18.726   4.091  0.00  0.00     0.068 A 
HETATM   35  C   UNK N   1      25.730  18.097   4.480  0.00  0.00     0.037 A 
HETATM   36  C   UNK N   1      24.497  18.677   4.174  0.00  0.00     0.010 A 
BRANCH  34  37
HETATM   37  O   UNK N   1      28.087  18.090   4.303  0.00  0.00    -0.351 OA
BRANCH  37  38
HETATM   38  C   UNK N   1      28.851  18.249   5.441  0.00  0.00     0.177 C 
BRANCH  38  39
HETATM   39  C   UNK N   1      28.877  16.951   6.254  0.00  0.00     0.057 C 
BRANCH  39  40
HETATM   40  C   UNK N   1      29.797  17.010   7.480  0.00  0.00     0.274 C 
BRANCH  40  41
HETATM   41  N   UNK N   1      31.192  17.207   7.107  0.00  0.00     0.088 N 
HETATM   42  C   UNK N   1      31.956  17.423   8.332  0.00  0.00     0.272 C 
HETATM   43  C   UNK N   1      33.208  18.239   8.051  0.00  0.00     0.030 C 
HETATM   44  C   UNK N   1      34.197  17.453   7.205  0.00  0.00     0.002 C 
HETATM   45  C   UNK N   1      33.689  17.336   5.775  0.00  0.00     0.002 C 
HETATM   46  C   UNK N   1      32.800  16.109   5.561  0.00  0.00     0.030 C 
HETATM   47  C   UNK N   1      31.654  15.935   6.565  0.00  0.00     0.272 C 
ENDBRANCH  40  41
ENDBRANCH  39  40
ENDBRANCH  38  39
ENDBRANCH  37  38
ENDBRANCH  34  37
ENDBRANCH  30  31
ENDBRANCH  29  30
ENDBRANCH  28  29
ENDBRANCH  27  28
ENDBRANCH   5  27
TORSDOF 14
ENDMDL
MODEL 7
REMARK VINA RESULT:      -7.8      2.701      6.405
REMARK  14 active torsions:
REMARK  status: ('A' for Active; 'I' for Inactive)
REMARK    1  A    between atoms: C_7  and  C_40 
REMARK    2  A    between atoms: N_10  and  C_13 
REMARK    3  A    between atoms: C_14  and  C_13 
REMARK    4  A    between atoms: N_18  and  C_19 
REMARK    5  A    between atoms: C_19  and  C_20 
REMARK    6  A    between atoms: C_20  and  C_21 
REMARK    7  A    between atoms: C_21  and  C_22 
REMARK    8  A    between atoms: C_22  and  C_23 
REMARK    9  A    between atoms: C_26  and  O_29 
REMARK   10  A    between atoms: O_29  and  C_30 
REMARK   11  A    between atoms: C_30  and  C_31 
REMARK   12  A    between atoms: C_31  and  C_32 
REMARK   13  A    between atoms: C_32  and  N_33 
REMARK   14  A    between atoms: C_40  and  C_41 
ROOT
HETATM    1  C   UNK N   1      23.660  13.973   4.719  0.00  0.00     0.242 C 
HETATM    2  C   UNK N   1      24.502  12.934   5.429  0.00  0.00     0.039 C 
HETATM    3  C   UNK N   1      23.510  12.194   6.314  0.00  0.00     0.032 C 
HETATM    4  C   UNK N   1      22.137  12.563   5.766  0.00  0.00     0.273 C 
HETATM    5  N   UNK N   1      22.398  13.284   4.528  0.00  0.00     0.094 N 
ENDROOT
BRANCH   1   6
HETATM    6  C   UNK N   1      23.560  15.227   5.610  0.00  0.00     0.188 C 
BRANCH   6   7
HETATM    7  N   UNK N   1      24.222  16.306   4.893  0.00  0.00    -0.255 N 
HETATM    8  N   UNK N   1      25.554  16.332   4.909  0.00  0.00    -0.299 N 
HETATM    9  C   UNK N   1      26.273  17.377   4.424  0.00  0.00     0.041 A 
ATOM     10  HN  UNK N   1      26.053  15.534   5.301  1.00  0.00     0.187 HD
HETATM   11  C   UNK N   1      25.594  18.492   3.911  0.00  0.00     0.004 A 
HETATM   12  C   UNK N   1      24.183  18.467   3.858  0.00  0.00     0.046 A 
HETATM   13  C   UNK N   1      26.282  19.624   3.455  0.00  0.00     0.014 A 
HETATM   14  C   UNK N   1      23.485  19.573   3.352  0.00  0.00     0.018 A 
HETATM   15  C   UNK N   1      23.503  17.346   4.344  0.00  0.00     0.273 A 
HETATM   16  C   UNK N   1      24.181  20.700   2.911  0.00  0.00     0.001 A 
HETATM   17  C   UNK N   1      25.577  20.727   2.965  0.00  0.00     0.001 A 
HETATM   18  O   UNK N   1      22.281  17.307   4.320  0.00  0.00    -0.266 OA
BRANCH   9  19
HETATM   19  C   UNK N   1      27.783  17.321   4.470  0.00  0.00     0.098 C 
BRANCH  19  20
HETATM   20  C   UNK N   1      28.320  17.723   5.813  0.00  0.00    -0.052 A 
HETATM   21  C   UNK N   1      29.335  16.963   6.402  0.00  0.00     0.009 A 
HETATM   22  C   UNK N   1      29.785  17.271   7.688  0.00  0.00     0.024 A 
HETATM   23  C   UNK N   1      29.220  18.338   8.392  0.00  0.00     0.034 A 
HETATM   24  C   UNK N   1      28.214  19.109   7.803  0.00  0.00     0.024 A 
HETATM   25 Cl   UNK N   1      29.763  18.699  10.016  0.00  0.00    -0.084 Cl
HETATM   26  C   UNK N   1      27.763  18.803   6.516  0.00  0.00     0.009 A 
ENDBRANCH  19  20
ENDBRANCH   9  19
ENDBRANCH   6   7
ENDBRANCH   1   6
BRANCH   5  27
HETATM   27  C   UNK N   1      21.311  14.061   3.920  0.00  0.00     0.273 C 
BRANCH  27  28
HETATM   28  C   UNK N   1      21.554  14.453   2.469  0.00  0.00     0.030 C 
BRANCH  28  29
HETATM   29  C   UNK N   1      21.818  13.203   1.618  0.00  0.00     0.006 C 
BRANCH  29  30
HETATM   30  C   UNK N   1      22.839  13.419   0.483  0.00  0.00     0.038 C 
BRANCH  30  31
HETATM   31  C   UNK N   1      24.226  13.549   1.018  0.00  0.00    -0.058 A 
HETATM   32  C   UNK N   1      24.906  12.418   1.482  0.00  0.00     0.010 A 
HETATM   33  C   UNK N   1      26.125  12.560   2.141  0.00  0.00     0.037 A 
HETATM   34  C   UNK N   1      26.676  13.837   2.333  0.00  0.00     0.068 A 
HETATM   35  C   UNK N   1      26.020  14.960   1.818  0.00  0.00     0.037 A 
HETATM   36  C   UNK N   1      24.792  14.818   1.170  0.00  0.00     0.010 A 
BRANCH  34  37
HETATM   37  O   UNK N   1      27.804  14.016   3.049  0.00  0.00    -0.351 OA
BRANCH  37  38
HETATM   38  C   UNK N   1      27.983  13.538   4.331  0.00  0.00     0.177 C 
BRANCH  38  39
HETATM   39  C   UNK N   1      29.463  13.600   4.724  0.00  0.00     0.057 C 
BRANCH  39  40
HETATM   40  C   UNK N   1      30.360  14.224   3.647  0.00  0.00     0.274 C 
BRANCH  40  41
HETATM   41  N   UNK N   1      31.261  15.227   4.202  0.00  0.00     0.088 N 
HETATM   42  C   UNK N   1      32.209  14.541   5.076  0.00  0.00     0.272 C 
HETATM   43  C   UNK N   1      32.735  15.483   6.148  0.00  0.00     0.030 C 
HETATM   44  C   UNK N   1      33.605  16.573   5.541  0.00  0.00     0.002 C 
HETATM   45  C   UNK N   1      32.744  17.570   4.780  0.00  0.00     0.002 C 
HETATM   46  C   UNK N   1      32.531  17.173   3.317  0.00  0.00     0.030 C 
HETATM   47  C   UNK N   1      32.043  15.738   3.084  0.00  0.00     0.272 C 
ENDBRANCH  40  41
ENDBRANCH  39  40
ENDBRANCH  38  39
ENDBRANCH  37  38
ENDBRANCH  34  37
ENDBRANCH  30  31
ENDBRANCH  29  30
ENDBRANCH  28  29
ENDBRANCH  27  28
ENDBRANCH   5  27
TORSDOF 14
ENDMDL
MODEL 8
REMARK VINA RESULT:      -7.8      2.232      5.884
REMARK  14 active torsions:
REMARK  status: ('A' for Active; 'I' for Inactive)
REMARK    1  A    between atoms: C_7  and  C_40 
REMARK    2  A    between atoms: N_10  and  C_13 
REMARK    3  A    between atoms: C_14  and  C_13 
REMARK    4  A    between atoms: N_18  and  C_19 
REMARK    5  A    between atoms: C_19  and  C_20 
REMARK    6  A    between atoms: C_20  and  C_21 
REMARK    7  A    between atoms: C_21  and  C_22 
REMARK    8  A    between atoms: C_22  and  C_23 
REMARK    9  A    between atoms: C_26  and  O_29 
REMARK   10  A    between atoms: O_29  and  C_30 
REMARK   11  A    between atoms: C_30  and  C_31 
REMARK   12  A    between atoms: C_31  and  C_32 
REMARK   13  A    between atoms: C_32  and  N_33 
REMARK   14  A    between atoms: C_40  and  C_41 
ROOT
HETATM    1  C   UNK N   1      24.445  15.073   5.515  0.00  0.00     0.242 C 
HETATM    2  C   UNK N   1      25.651  15.037   6.429  0.00  0.00     0.039 C 
HETATM    3  C   UNK N   1      25.302  13.979   7.465  0.00  0.00     0.032 C 
HETATM    4  C   UNK N   1      24.138  13.203   6.861  0.00  0.00     0.273 C 
HETATM    5  N   UNK N   1      24.022  13.686   5.493  0.00  0.00     0.094 N 
ENDROOT
BRANCH   1   6
HETATM    6  C   UNK N   1      23.398  16.037   6.108  0.00  0.00     0.188 C 
BRANCH   6   7
HETATM    7  N   UNK N   1      23.183  17.083   5.121  0.00  0.00    -0.255 N 
HETATM    8  N   UNK N   1      24.187  17.927   4.886  0.00  0.00    -0.299 N 
HETATM    9  C   UNK N   1      24.048  19.038   4.118  0.00  0.00     0.041 A 
ATOM     10  HN  UNK N   1      25.098  17.729   5.300  1.00  0.00     0.187 HD
HETATM   11  C   UNK N   1      22.791  19.334   3.570  0.00  0.00     0.004 A 
HETATM   12  C   UNK N   1      21.724  18.434   3.783  0.00  0.00     0.046 A 
HETATM   13  C   UNK N   1      22.573  20.499   2.822  0.00  0.00     0.014 A 
HETATM   14  C   UNK N   1      20.459  18.713   3.246  0.00  0.00     0.018 A 
HETATM   15  C   UNK N   1      21.942  17.290   4.556  0.00  0.00     0.273 A 
HETATM   16  C   UNK N   1      20.250  19.882   2.512  0.00  0.00     0.001 A 
HETATM   17  C   UNK N   1      21.305  20.775   2.303  0.00  0.00     0.001 A 
HETATM   18  O   UNK N   1      21.030  16.502   4.765  0.00  0.00    -0.266 OA
BRANCH   9  19
HETATM   19  C   UNK N   1      25.242  19.937   3.893  0.00  0.00     0.098 C 
BRANCH  19  20
HETATM   20  C   UNK N   1      26.278  19.774   4.967  0.00  0.00    -0.052 A 
HETATM   21  C   UNK N   1      27.230  18.756   4.853  0.00  0.00     0.009 A 
HETATM   22  C   UNK N   1      28.147  18.534   5.884  0.00  0.00     0.024 A 
HETATM   23  C   UNK N   1      28.114  19.328   7.034  0.00  0.00     0.034 A 
HETATM   24  C   UNK N   1      27.173  20.356   7.147  0.00  0.00     0.024 A 
HETATM   25 Cl   UNK N   1      29.241  19.026   8.338  0.00  0.00    -0.084 Cl
HETATM   26  C   UNK N   1      26.256  20.580   6.116  0.00  0.00     0.009 A 
ENDBRANCH  19  20
ENDBRANCH   9  19
ENDBRANCH   6   7
ENDBRANCH   1   6
BRANCH   5  27
HETATM   27  C   UNK N   1      22.799  13.383   4.738  0.00  0.00     0.273 C 
BRANCH  27  28
HETATM   28  C   UNK N   1      23.039  12.679   3.410  0.00  0.00     0.030 C 
BRANCH  28  29
HETATM   29  C   UNK N   1      23.029  13.695   2.260  0.00  0.00     0.006 C 
BRANCH  29  30
HETATM   30  C   UNK N   1      24.296  13.664   1.383  0.00  0.00     0.038 C 
BRANCH  30  31
HETATM   31  C   UNK N   1      25.460  14.277   2.088  0.00  0.00    -0.058 A 
HETATM   32  C   UNK N   1      25.536  15.666   2.236  0.00  0.00     0.010 A 
HETATM   33  C   UNK N   1      26.699  16.250   2.734  0.00  0.00     0.037 A 
HETATM   34  C   UNK N   1      27.791  15.445   3.094  0.00  0.00     0.068 A 
HETATM   35  C   UNK N   1      27.690  14.054   2.998  0.00  0.00     0.037 A 
HETATM   36  C   UNK N   1      26.530  13.470   2.486  0.00  0.00     0.010 A 
BRANCH  34  37
HETATM   37  O   UNK N   1      28.962  15.985   3.489  0.00  0.00    -0.351 OA
BRANCH  37  38
HETATM   38  C   UNK N   1      30.110  15.970   2.723  0.00  0.00     0.177 C 
BRANCH  38  39
HETATM   39  C   UNK N   1      31.349  16.128   3.611  0.00  0.00     0.057 C 
BRANCH  39  40
HETATM   40  C   UNK N   1      31.444  17.498   4.295  0.00  0.00     0.274 C 
BRANCH  40  41
HETATM   41  N   UNK N   1      31.829  17.383   5.696  0.00  0.00     0.088 N 
HETATM   42  C   UNK N   1      31.397  16.072   6.172  0.00  0.00     0.272 C 
HETATM   43  C   UNK N   1      31.162  16.092   7.674  0.00  0.00     0.030 C 
HETATM   44  C   UNK N   1      32.467  16.282   8.432  0.00  0.00     0.002 C 
HETATM   45  C   UNK N   1      32.965  17.711   8.270  0.00  0.00     0.002 C 
HETATM   46  C   UNK N   1      33.858  17.891   7.040  0.00  0.00     0.030 C 
HETATM   47  C   UNK N   1      33.286  17.359   5.721  0.00  0.00     0.272 C 
ENDBRANCH  40  41
ENDBRANCH  39  40
ENDBRANCH  38  39
ENDBRANCH  37  38
ENDBRANCH  34  37
ENDBRANCH  30  31
ENDBRANCH  29  30
ENDBRANCH  28  29
ENDBRANCH  27  28
ENDBRANCH   5  27
TORSDOF 14
ENDMDL
MODEL 9
REMARK VINA RESULT:      -7.8     13.323     16.212
REMARK  14 active torsions:
REMARK  status: ('A' for Active; 'I' for Inactive)
REMARK    1  A    between atoms: C_7  and  C_40 
REMARK    2  A    between atoms: N_10  and  C_13 
REMARK    3  A    between atoms: C_14  and  C_13 
REMARK    4  A    between atoms: N_18  and  C_19 
REMARK    5  A    between atoms: C_19  and  C_20 
REMARK    6  A    between atoms: C_20  and  C_21 
REMARK    7  A    between atoms: C_21  and  C_22 
REMARK    8  A    between atoms: C_22  and  C_23 
REMARK    9  A    between atoms: C_26  and  O_29 
REMARK   10  A    between atoms: O_29  and  C_30 
REMARK   11  A    between atoms: C_30  and  C_31 
REMARK   12  A    between atoms: C_31  and  C_32 
REMARK   13  A    between atoms: C_32  and  N_33 
REMARK   14  A    between atoms: C_40  and  C_41 
ROOT
HETATM    1  C   UNK N   1      28.630  28.944  -2.737  0.00  0.00     0.242 C 
HETATM    2  C   UNK N   1      29.441  29.607  -1.643  0.00  0.00     0.039 C 
HETATM    3  C   UNK N   1      28.998  31.062  -1.682  0.00  0.00     0.032 C 
HETATM    4  C   UNK N   1      27.703  31.061  -2.485  0.00  0.00     0.273 C 
HETATM    5  N   UNK N   1      27.369  29.657  -2.674  0.00  0.00     0.094 N 
ENDROOT
BRANCH   1   6
HETATM    6  C   UNK N   1      29.375  29.107  -4.077  0.00  0.00     0.188 C 
BRANCH   6   7
HETATM    7  N   UNK N   1      29.972  27.818  -4.385  0.00  0.00    -0.255 N 
HETATM    8  N   UNK N   1      29.306  26.724  -4.016  0.00  0.00    -0.299 N 
HETATM    9  C   UNK N   1      29.839  25.477  -4.096  0.00  0.00     0.041 A 
ATOM     10  HN  UNK N   1      28.356  26.829  -3.660  1.00  0.00     0.187 HD
HETATM   11  C   UNK N   1      31.156  25.328  -4.556  0.00  0.00     0.004 A 
HETATM   12  C   UNK N   1      31.865  26.473  -4.981  0.00  0.00     0.046 A 
HETATM   13  C   UNK N   1      31.780  24.074  -4.600  0.00  0.00     0.014 A 
HETATM   14  C   UNK N   1      33.183  26.345  -5.441  0.00  0.00     0.018 A 
HETATM   15  C   UNK N   1      31.247  27.725  -4.904  0.00  0.00     0.273 A 
HETATM   16  C   UNK N   1      33.799  25.092  -5.470  0.00  0.00     0.001 A 
HETATM   17  C   UNK N   1      33.099  23.959  -5.048  0.00  0.00     0.001 A 
HETATM   18  O   UNK N   1      31.846  28.732  -5.254  0.00  0.00    -0.266 OA
BRANCH   9  19
HETATM   19  C   UNK N   1      29.010  24.289  -3.667  0.00  0.00     0.098 C 
BRANCH  19  20
HETATM   20  C   UNK N   1      28.043  23.863  -4.734  0.00  0.00    -0.052 A 
HETATM   21  C   UNK N   1      26.674  24.071  -4.541  0.00  0.00     0.009 A 
HETATM   22  C   UNK N   1      25.755  23.604  -5.483  0.00  0.00     0.024 A 
HETATM   23  C   UNK N   1      26.200  22.924  -6.620  0.00  0.00     0.034 A 
HETATM   24  C   UNK N   1      27.569  22.725  -6.824  0.00  0.00     0.024 A 
HETATM   25 Cl   UNK N   1      25.044  22.309  -7.782  0.00  0.00    -0.084 Cl
HETATM   26  C   UNK N   1      28.491  23.193  -5.883  0.00  0.00     0.009 A 
ENDBRANCH  19  20
ENDBRANCH   9  19
ENDBRANCH   6   7
ENDBRANCH   1   6
BRANCH   5  27
HETATM   27  C   UNK N   1      26.361  29.300  -3.681  0.00  0.00     0.273 C 
BRANCH  27  28
HETATM   28  C   UNK N   1      25.826  27.880  -3.558  0.00  0.00     0.030 C 
BRANCH  28  29
HETATM   29  C   UNK N   1      25.690  27.241  -4.947  0.00  0.00     0.006 C 
BRANCH  29  30
HETATM   30  C   UNK N   1      26.527  27.934  -6.042  0.00  0.00     0.038 C 
BRANCH  30  31
HETATM   31  C   UNK N   1      26.968  26.962  -7.084  0.00  0.00    -0.058 A 
HETATM   32  C   UNK N   1      28.332  26.727  -7.289  0.00  0.00     0.010 A 
HETATM   33  C   UNK N   1      28.751  25.959  -8.373  0.00  0.00     0.037 A 
HETATM   34  C   UNK N   1      27.805  25.414  -9.256  0.00  0.00     0.068 A 
HETATM   35  C   UNK N   1      26.441  25.604  -9.015  0.00  0.00     0.037 A 
HETATM   36  C   UNK N   1      26.022  26.386  -7.936  0.00  0.00     0.010 A 
BRANCH  34  37
HETATM   37  O   UNK N   1      28.181  24.747 -10.365  0.00  0.00    -0.351 OA
BRANCH  37  38
HETATM   38  C   UNK N   1      29.477  24.340 -10.613  0.00  0.00     0.177 C 
BRANCH  38  39
HETATM   39  C   UNK N   1      29.532  22.820 -10.805  0.00  0.00     0.057 C 
BRANCH  39  40
HETATM   40  C   UNK N   1      30.851  22.189 -10.340  0.00  0.00     0.274 C 
BRANCH  40  41
HETATM   41  N   UNK N   1      30.658  20.838  -9.827  0.00  0.00     0.088 N 
HETATM   42  C   UNK N   1      30.021  20.944  -8.517  0.00  0.00     0.272 C 
HETATM   43  C   UNK N   1      30.349  19.734  -7.657  0.00  0.00     0.030 C 
HETATM   44  C   UNK N   1      29.705  18.473  -8.213  0.00  0.00     0.002 C 
HETATM   45  C   UNK N   1      30.419  18.036  -9.484  0.00  0.00     0.002 C 
HETATM   46  C   UNK N   1      29.833  18.680 -10.744  0.00  0.00     0.030 C 
HETATM   47  C   UNK N   1      29.678  20.204 -10.700  0.00  0.00     0.272 C 
ENDBRANCH  40  41
ENDBRANCH  39  40
ENDBRANCH  38  39
ENDBRANCH  37  38
ENDBRANCH  34  37
ENDBRANCH  30  31
ENDBRANCH  29  30
ENDBRANCH  28  29
ENDBRANCH  27  28
ENDBRANCH   5  27
TORSDOF 14
ENDMDL
