REMARK  14 active torsions:
REMARK  status: ('A' for Active; 'I' for Inactive)
REMARK    1  A    between atoms: C_2  and  C_3 
REMARK    2  A    between atoms: C_3  and  C_4 
REMARK    3  A    between atoms: C_4  and  C_5 
REMARK    4  A    between atoms: C_8  and  C_25 
REMARK    5  A    between atoms: N_10  and  C_11 
REMARK    6  A    between atoms: C_14  and  O_17 
REMARK    7  A    between atoms: O_17  and  C_18 
REMARK    8  A    between atoms: C_28  and  O_31 
REMARK    9  A    between atoms: O_31  and  C_32 
REMARK   10  A    between atoms: C_32  and  C_33 
REMARK   11  A    between atoms: C_33  and  C_34 
REMARK   12  A    between atoms: C_34  and  N_35 
REMARK   13  A    between atoms: N_35  and  C_36 
REMARK   14  A    between atoms: N_35  and  C_38 
ROOT
HETATM    1  C   UNK N   1      -3.994   4.730  -0.488  0.00  0.00     0.088 A 
HETATM    2  N   UNK N   1      -2.787   5.341  -0.374  0.00  0.00    -0.344 N 
ATOM      3  HN  UNK N   1      -2.579   6.339  -0.408  1.00  0.00     0.167 HD
HETATM    4  C   UNK N   1      -1.926   4.307  -0.203  0.00  0.00     0.060 A 
HETATM    5  C   UNK N   1      -2.602   3.130  -0.203  0.00  0.00     0.129 A 
HETATM    6  N   UNK N   1      -3.887   3.381  -0.392  0.00  0.00    -0.310 N 
ENDROOT
BRANCH   4   7
HETATM    7  C   UNK N   1      -0.474   4.299  -0.025  0.00  0.00    -0.008 A 
HETATM    8  C   UNK N   1       0.349   5.432   0.035  0.00  0.00     0.016 A 
HETATM    9  C   UNK N   1       1.732   5.260   0.266  0.00  0.00     0.037 A 
HETATM   10  C   UNK N   1       2.264   3.966   0.453  0.00  0.00     0.068 A 
HETATM   11  C   UNK N   1       1.427   2.867   0.353  0.00  0.00     0.037 A 
HETATM   12  C   UNK N   1       0.094   3.031   0.114  0.00  0.00     0.016 A 
BRANCH  10  13
HETATM   13  O   UNK N   1       3.572   3.788   0.754  0.00  0.00    -0.351 OA
BRANCH  13  14
HETATM   14  C   UNK N   1       4.047   2.768   1.580  0.00  0.00     0.177 C 
BRANCH  14  15
HETATM   15  C   UNK N   1       3.603   1.338   1.222  0.00  0.00     0.057 C 
BRANCH  15  16
HETATM   16  C   UNK N   1       4.109   0.879  -0.133  0.00  0.00     0.274 C 
BRANCH  16  17
HETATM   17  N   UNK N   1       5.559   0.916  -0.141  0.00  0.00     0.087 N 
BRANCH  17  18
HETATM   18  C   UNK N   1       6.036  -0.380  -0.589  0.00  0.00     0.268 C 
HETATM   19  C   UNK N   1       7.424  -0.627  -0.026  0.00  0.00     0.037 C 
ENDBRANCH  17  18
BRANCH  17  20
HETATM   20  C   UNK N   1       5.951   1.910  -1.126  0.00  0.00     0.268 C 
HETATM   21  C   UNK N   1       6.583   3.094  -0.422  0.00  0.00     0.037 C 
ENDBRANCH  17  20
ENDBRANCH  16  17
ENDBRANCH  15  16
ENDBRANCH  14  15
ENDBRANCH  13  14
ENDBRANCH  10  13
ENDBRANCH   4   7
BRANCH   1  22
HETATM   22  C   UNK N   1      -5.291   5.477  -0.662  0.00  0.00     0.077 C 
BRANCH  22  23
HETATM   23  C   UNK N   1      -6.198   5.281   0.550  0.00  0.00     0.007 C 
BRANCH  23  24
HETATM   24  C   UNK N   1      -7.550   5.944   0.336  0.00  0.00    -0.004 C 
HETATM   25  C   UNK N   1      -8.541   4.958  -0.256  0.00  0.00     0.005 C 
ENDBRANCH  23  24
ENDBRANCH  22  23
ENDBRANCH   1  22
BRANCH   6  26
HETATM   26  C   UNK N   1      -4.824   2.314  -0.449  0.00  0.00     0.040 A 
HETATM   27  C   UNK N   1      -4.450   1.027   0.006  0.00  0.00     0.033 A 
HETATM   28  C   UNK N   1      -5.376  -0.012   0.055  0.00  0.00     0.039 A 
HETATM   29  C   UNK N   1      -6.676   0.234  -0.370  0.00  0.00     0.076 A 
HETATM   30  C   UNK N   1      -7.007   1.493  -0.921  0.00  0.00     0.039 A 
HETATM   31  C   UNK N   1      -6.097   2.525  -0.948  0.00  0.00     0.033 A 
BRANCH  29  32
HETATM   32  O   UNK N   1      -7.664  -0.668  -0.150  0.00  0.00    -0.311 OA
BRANCH  32  33
HETATM   33  C   UNK N   1      -8.888  -0.171   0.147  0.00  0.00     0.076 A 
HETATM   34  C   UNK N   1     -10.000  -0.540  -0.608  0.00  0.00     0.039 A 
HETATM   35  C   UNK N   1     -11.185   0.195  -0.488  0.00  0.00     0.026 A 
HETATM   36  C   UNK N   1     -11.252   1.289   0.387  0.00  0.00     0.034 A 
HETATM   37  C   UNK N   1     -10.165   1.613   1.192  0.00  0.00     0.026 A 
HETATM   38 Cl   UNK N   1     -12.680   2.292   0.442  0.00  0.00    -0.084 Cl
HETATM   39  C   UNK N   1      -8.992   0.885   1.077  0.00  0.00     0.039 A 
ENDBRANCH  32  33
ENDBRANCH  29  32
ENDBRANCH   6  26
TORSDOF 14
