MODEL 1
REMARK VINA RESULT:      -8.4      0.000      0.000
REMARK  15 active torsions:
REMARK  status: ('A' for Active; 'I' for Inactive)
REMARK    1  A    between atoms: C_4  and  C_3 
REMARK    2  A    between atoms: C_5  and  C_3 
REMARK    3  A    between atoms: C_23  and  C_4 
REMARK    4  A    between atoms: C_31  and  C_5 
REMARK    5  A    between atoms: C_18  and  C_16 
REMARK    6  A    between atoms: C_19  and  C_17 
REMARK    7  A    between atoms: N_38  and  C_18 
REMARK    8  A    between atoms: N_38  and  C_19 
REMARK    9  A    between atoms: C_30  and  C_22 
REMARK   10  A    between atoms: O_44  and  C_22 
REMARK   11  A    between atoms: N_38  and  C_25 
REMARK   12  A    between atoms: C_29  and  O_40 
REMARK   13  A    between atoms: C_35  and  C_30 
REMARK   14  A    between atoms: O_44  and  C_31 
REMARK   15  A    between atoms: C_35  and  O_43 
ROOT
HETATM    1  C   UNK N   1      35.419   9.121  13.893  0.00  0.00     0.025 C 
HETATM    2  C   UNK N   1      35.117  12.345  10.793  0.00  0.00     0.019 C 
HETATM    3  C   UNK N   1      38.396  10.144  14.471  0.00  0.00     0.036 C 
HETATM    4  C   UNK N   1      38.374  11.428  13.680  0.00  0.00     0.010 C 
HETATM    5  C   UNK N   1      34.785   9.666  16.857  0.00  0.00     0.052 C 
HETATM    6  C   UNK N   1      38.135  12.686  10.755  0.00  0.00     0.009 C 
HETATM    7  C   UNK N   1      34.741  10.478  15.787  0.00  0.00    -0.009 C 
HETATM    8  C   UNK N   1      37.527  13.678   9.768  0.00  0.00     0.047 C 
HETATM    9  C   UNK N   1      37.218   9.163  16.336  0.00  0.00     0.058 C 
HETATM   10  C   UNK N   1      35.204  13.907  12.812  0.00  0.00     0.045 C 
HETATM   11  C   UNK N   1      37.165  10.025  15.305  0.00  0.00    -0.064 C 
HETATM   12  C   UNK N   1      35.987   8.836  17.078  0.00  0.00     0.171 C 
HETATM   13  C   UNK N   1      37.110  11.543  12.821  0.00  0.00    -0.002 C 
HETATM   14  C   UNK N   1      37.277  12.829  11.998  0.00  0.00     0.002 C 
HETATM   15  C   UNK N   1      35.473  13.039  14.105  0.00  0.00     0.124 C 
HETATM   16  C   UNK N   1      35.796  11.569  13.685  0.00  0.00     0.035 C 
HETATM   17  C   UNK N   1      35.798  10.368  14.703  0.00  0.00     0.004 C 
HETATM   18  C   UNK N   1      35.954  13.407  11.539  0.00  0.00     0.001 C 
HETATM   19  C   UNK N   1      36.445  14.463  10.530  0.00  0.00     0.128 C 
HETATM   20  O   UNK N   1      35.980   7.933  17.898  0.00  0.00    -0.289 OA
ENDROOT
BRANCH  19  21
HETATM   21  C   UNK N   1      35.426  15.027   9.558  0.00  0.00     0.185 C 
HETATM   22  O   UNK N   1      35.350  14.607   8.414  0.00  0.00    -0.292 OA
BRANCH  21  23
HETATM   23  C   UNK N   1      34.544  16.167   9.971  0.00  0.00     0.260 C 
BRANCH  23  24
HETATM   24  O   UNK N   1      35.154  17.380   9.746  0.00  0.00    -0.314 OA
BRANCH  24  25
HETATM   25  C   UNK N   1      34.738  18.242   8.790  0.00  0.00     0.259 C 
HETATM   26  O   UNK N   1      35.432  19.202   8.465  0.00  0.00    -0.265 OA
BRANCH  25  27
HETATM   27  C   UNK N   1      33.457  18.002   8.066  0.00  0.00     0.111 C 
BRANCH  27  28
HETATM   28  C   UNK N   1      33.693  17.545   6.617  0.00  0.00     0.014 C 
BRANCH  28  29
HETATM   29  C   UNK N   1      32.791  16.384   6.170  0.00  0.00     0.039 C 
BRANCH  29  30
HETATM   30  C   UNK N   1      31.360  16.777   5.986  0.00  0.00    -0.058 A 
HETATM   31  C   UNK N   1      30.934  17.393   4.807  0.00  0.00     0.009 A 
HETATM   32  C   UNK N   1      29.609  17.769   4.638  0.00  0.00     0.030 A 
HETATM   33  C   UNK N   1      28.675  17.540   5.655  0.00  0.00     0.030 A 
HETATM   34  C   UNK N   1      29.099  16.894   6.832  0.00  0.00     0.030 A 
HETATM   35  C   UNK N   1      30.432  16.507   6.992  0.00  0.00     0.009 A 
BRANCH  33  36
HETATM   36  N   UNK N   1      27.330  18.011   5.507  0.00  0.00    -0.379 N 
BRANCH  36  37
HETATM   37  C   UNK N   1      27.051  19.415   5.276  0.00  0.00     0.138 C 
BRANCH  37  38
HETATM   38  C   UNK N   1      27.540  20.313   6.394  0.00  0.00     0.134 C 
HETATM   39 Cl   UNK N   1      26.423  21.697   6.501  0.00  0.00    -0.129 Cl
ENDBRANCH  37  38
ENDBRANCH  36  37
BRANCH  36  40
HETATM   40  C   UNK N   1      26.277  17.058   5.233  0.00  0.00     0.138 C 
BRANCH  40  41
HETATM   41  C   UNK N   1      25.757  17.196   3.816  0.00  0.00     0.134 C 
HETATM   42 Cl   UNK N   1      26.739  16.156   2.756  0.00  0.00    -0.129 Cl
ENDBRANCH  40  41
ENDBRANCH  36  40
ENDBRANCH  33  36
ENDBRANCH  29  30
ENDBRANCH  28  29
ENDBRANCH  27  28
ENDBRANCH  25  27
ENDBRANCH  24  25
ENDBRANCH  23  24
ENDBRANCH  21  23
ENDBRANCH  19  21
BRANCH  19  43
HETATM   43  O   UNK N   1      37.054  15.524  11.214  0.00  0.00    -0.381 OA
HETATM   44  H   UNK N   1      37.382  16.376  11.541  0.00  0.00     0.211 HD
ENDBRANCH  19  43
BRANCH  15  45
HETATM   45  O   UNK N   1      34.323  13.101  14.892  0.00  0.00    -0.395 OA
HETATM   46  H   UNK N   1      34.393  13.310  15.838  0.00  0.00     0.210 HD
ENDBRANCH  15  45
TORSDOF 15
ENDMDL
MODEL 2
REMARK VINA RESULT:      -8.3      9.059     12.810
REMARK  15 active torsions:
REMARK  status: ('A' for Active; 'I' for Inactive)
REMARK    1  A    between atoms: C_4  and  C_3 
REMARK    2  A    between atoms: C_5  and  C_3 
REMARK    3  A    between atoms: C_23  and  C_4 
REMARK    4  A    between atoms: C_31  and  C_5 
REMARK    5  A    between atoms: C_18  and  C_16 
REMARK    6  A    between atoms: C_19  and  C_17 
REMARK    7  A    between atoms: N_38  and  C_18 
REMARK    8  A    between atoms: N_38  and  C_19 
REMARK    9  A    between atoms: C_30  and  C_22 
REMARK   10  A    between atoms: O_44  and  C_22 
REMARK   11  A    between atoms: N_38  and  C_25 
REMARK   12  A    between atoms: C_29  and  O_40 
REMARK   13  A    between atoms: C_35  and  C_30 
REMARK   14  A    between atoms: O_44  and  C_31 
REMARK   15  A    between atoms: C_35  and  O_43 
ROOT
HETATM    1  C   UNK N   1      22.398  11.728   8.272  0.00  0.00     0.025 C 
HETATM    2  C   UNK N   1      21.186  14.237   4.759  0.00  0.00     0.019 C 
HETATM    3  C   UNK N   1      25.130  13.394   8.346  0.00  0.00     0.036 C 
HETATM    4  C   UNK N   1      24.778  14.490   7.371  0.00  0.00     0.010 C 
HETATM    5  C   UNK N   1      21.897  12.653  11.166  0.00  0.00     0.052 C 
HETATM    6  C   UNK N   1      24.053  15.144   4.331  0.00  0.00     0.009 C 
HETATM    7  C   UNK N   1      21.600  13.240   9.994  0.00  0.00    -0.009 C 
HETATM    8  C   UNK N   1      23.175  15.811   3.276  0.00  0.00     0.047 C 
HETATM    9  C   UNK N   1      24.333  12.546  10.461  0.00  0.00     0.058 C 
HETATM   10  C   UNK N   1      21.101  16.117   6.487  0.00  0.00     0.045 C 
HETATM   11  C   UNK N   1      24.020  13.187   9.321  0.00  0.00    -0.064 C 
HETATM   12  C   UNK N   1      23.259  12.122  11.378  0.00  0.00     0.171 C 
HETATM   13  C   UNK N   1      23.455  14.205   6.652  0.00  0.00    -0.002 C 
HETATM   14  C   UNK N   1      23.284  15.334   5.625  0.00  0.00     0.002 C 
HETATM   15  C   UNK N   1      21.646  15.558   7.862  0.00  0.00     0.124 C 
HETATM   16  C   UNK N   1      22.236  14.128   7.643  0.00  0.00     0.035 C 
HETATM   17  C   UNK N   1      22.569  13.148   8.829  0.00  0.00     0.004 C 
HETATM   18  C   UNK N   1      21.837  15.555   5.232  0.00  0.00     0.001 C 
HETATM   19  C   UNK N   1      22.016  16.493   4.022  0.00  0.00     0.128 C 
HETATM   20  O   UNK N   1      23.506  11.393  12.325  0.00  0.00    -0.289 OA
ENDROOT
BRANCH  19  21
HETATM   21  C   UNK N   1      20.829  16.669   3.094  0.00  0.00     0.185 C 
HETATM   22  O   UNK N   1      20.534  15.808   2.280  0.00  0.00    -0.292 OA
BRANCH  21  23
HETATM   23  C   UNK N   1      20.042  17.946   3.114  0.00  0.00     0.260 C 
BRANCH  23  24
HETATM   24  O   UNK N   1      20.650  18.920   2.357  0.00  0.00    -0.314 OA
BRANCH  24  25
HETATM   25  C   UNK N   1      21.005  20.125   2.863  0.00  0.00     0.259 C 
HETATM   26  O   UNK N   1      20.319  20.672   3.723  0.00  0.00    -0.265 OA
BRANCH  25  27
HETATM   27  C   UNK N   1      22.275  20.776   2.432  0.00  0.00     0.111 C 
BRANCH  27  28
HETATM   28  C   UNK N   1      23.460  20.372   3.323  0.00  0.00     0.014 C 
BRANCH  28  29
HETATM   29  C   UNK N   1      24.819  20.387   2.606  0.00  0.00     0.039 C 
BRANCH  29  30
HETATM   30  C   UNK N   1      25.911  19.724   3.385  0.00  0.00    -0.058 A 
HETATM   31  C   UNK N   1      26.931  20.479   3.969  0.00  0.00     0.009 A 
HETATM   32  C   UNK N   1      27.951  19.865   4.683  0.00  0.00     0.030 A 
HETATM   33  C   UNK N   1      27.975  18.473   4.825  0.00  0.00     0.030 A 
HETATM   34  C   UNK N   1      26.931  17.716   4.260  0.00  0.00     0.030 A 
HETATM   35  C   UNK N   1      25.900  18.340   3.552  0.00  0.00     0.009 A 
BRANCH  33  36
HETATM   36  N   UNK N   1      29.078  17.843   5.488  0.00  0.00    -0.379 N 
BRANCH  36  37
HETATM   37  C   UNK N   1      28.924  17.257   6.805  0.00  0.00     0.138 C 
BRANCH  37  38
HETATM   38  C   UNK N   1      29.252  18.219   7.929  0.00  0.00     0.134 C 
HETATM   39 Cl   UNK N   1      27.941  18.110   9.131  0.00  0.00    -0.129 Cl
ENDBRANCH  37  38
ENDBRANCH  36  37
BRANCH  36  40
HETATM   40  C   UNK N   1      30.245  17.475   4.716  0.00  0.00     0.138 C 
BRANCH  40  41
HETATM   41  C   UNK N   1      31.088  16.445   5.440  0.00  0.00     0.134 C 
HETATM   42 Cl   UNK N   1      32.632  17.205   5.894  0.00  0.00    -0.129 Cl
ENDBRANCH  40  41
ENDBRANCH  36  40
ENDBRANCH  33  36
ENDBRANCH  29  30
ENDBRANCH  28  29
ENDBRANCH  27  28
ENDBRANCH  25  27
ENDBRANCH  24  25
ENDBRANCH  23  24
ENDBRANCH  21  23
ENDBRANCH  19  21
BRANCH  19  43
HETATM   43  O   UNK N   1      22.441  17.754   4.460  0.00  0.00    -0.381 OA
HETATM   44  H   UNK N   1      22.924  18.557   4.709  0.00  0.00     0.211 HD
ENDBRANCH  19  43
BRANCH  15  45
HETATM   45  O   UNK N   1      20.573  15.534   8.754  0.00  0.00    -0.395 OA
HETATM   46  H   UNK N   1      19.993  16.308   8.836  0.00  0.00     0.210 HD
ENDBRANCH  15  45
TORSDOF 15
ENDMDL
MODEL 3
REMARK VINA RESULT:      -8.1      1.413      2.432
REMARK  15 active torsions:
REMARK  status: ('A' for Active; 'I' for Inactive)
REMARK    1  A    between atoms: C_4  and  C_3 
REMARK    2  A    between atoms: C_5  and  C_3 
REMARK    3  A    between atoms: C_23  and  C_4 
REMARK    4  A    between atoms: C_31  and  C_5 
REMARK    5  A    between atoms: C_18  and  C_16 
REMARK    6  A    between atoms: C_19  and  C_17 
REMARK    7  A    between atoms: N_38  and  C_18 
REMARK    8  A    between atoms: N_38  and  C_19 
REMARK    9  A    between atoms: C_30  and  C_22 
REMARK   10  A    between atoms: O_44  and  C_22 
REMARK   11  A    between atoms: N_38  and  C_25 
REMARK   12  A    between atoms: C_29  and  O_40 
REMARK   13  A    between atoms: C_35  and  C_30 
REMARK   14  A    between atoms: O_44  and  C_31 
REMARK   15  A    between atoms: C_35  and  O_43 
ROOT
HETATM    1  C   UNK N   1      34.497  10.119  16.238  0.00  0.00     0.025 C 
HETATM    2  C   UNK N   1      34.912  12.288  12.335  0.00  0.00     0.019 C 
HETATM    3  C   UNK N   1      37.505   9.102  15.836  0.00  0.00     0.036 C 
HETATM    4  C   UNK N   1      37.906   9.970  14.670  0.00  0.00     0.010 C 
HETATM    5  C   UNK N   1      35.408  11.386  18.893  0.00  0.00     0.052 C 
HETATM    6  C   UNK N   1      37.349  10.632  11.596  0.00  0.00     0.009 C 
HETATM    7  C   UNK N   1      35.430  11.867  17.638  0.00  0.00    -0.009 C 
HETATM    8  C   UNK N   1      37.079  11.620  10.466  0.00  0.00     0.047 C 
HETATM    9  C   UNK N   1      36.764   9.386  18.116  0.00  0.00     0.058 C 
HETATM   10  C   UNK N   1      36.578  13.726  13.632  0.00  0.00     0.045 C 
HETATM   11  C   UNK N   1      36.822   9.917  16.882  0.00  0.00    -0.064 C 
HETATM   12  C   UNK N   1      35.932  10.028  19.149  0.00  0.00     0.171 C 
HETATM   13  C   UNK N   1      36.707  10.726  14.087  0.00  0.00    -0.002 C 
HETATM   14  C   UNK N   1      37.240  11.472  12.855  0.00  0.00     0.002 C 
HETATM   15  C   UNK N   1      36.775  13.093  15.067  0.00  0.00     0.124 C 
HETATM   16  C   UNK N   1      36.053  11.709  15.127  0.00  0.00     0.035 C 
HETATM   17  C   UNK N   1      35.765  10.950  16.476  0.00  0.00     0.004 C 
HETATM   18  C   UNK N   1      36.398  12.678  12.490  0.00  0.00     0.001 C 
HETATM   19  C   UNK N   1      36.979  13.016  11.104  0.00  0.00     0.128 C 
HETATM   20  O   UNK N   1      35.729   9.472  20.216  0.00  0.00    -0.289 OA
ENDROOT
BRANCH  19  21
HETATM   21  C   UNK N   1      36.170  13.941  10.214  0.00  0.00     0.185 C 
HETATM   22  O   UNK N   1      35.732  13.557   9.141  0.00  0.00    -0.292 OA
BRANCH  21  23
HETATM   23  C   UNK N   1      35.959  15.372  10.612  0.00  0.00     0.260 C 
BRANCH  23  24
HETATM   24  O   UNK N   1      34.838  15.898  10.011  0.00  0.00    -0.314 OA
BRANCH  24  25
HETATM   25  C   UNK N   1      34.887  16.966   9.180  0.00  0.00     0.259 C 
HETATM   26  O   UNK N   1      35.279  18.057   9.583  0.00  0.00    -0.265 OA
BRANCH  25  27
HETATM   27  C   UNK N   1      34.528  16.815   7.741  0.00  0.00     0.111 C 
BRANCH  27  28
HETATM   28  C   UNK N   1      33.251  17.591   7.383  0.00  0.00     0.014 C 
BRANCH  28  29
HETATM   29  C   UNK N   1      31.951  16.905   7.834  0.00  0.00     0.039 C 
BRANCH  29  30
HETATM   30  C   UNK N   1      30.762  17.277   7.006  0.00  0.00    -0.058 A 
HETATM   31  C   UNK N   1      30.809  17.197   5.612  0.00  0.00     0.009 A 
HETATM   32  C   UNK N   1      29.711  17.552   4.841  0.00  0.00     0.030 A 
HETATM   33  C   UNK N   1      28.535  18.003   5.453  0.00  0.00     0.030 A 
HETATM   34  C   UNK N   1      28.480  18.056   6.859  0.00  0.00     0.030 A 
HETATM   35  C   UNK N   1      29.585  17.687   7.631  0.00  0.00     0.009 A 
BRANCH  33  36
HETATM   36  N   UNK N   1      27.439  18.450   4.646  0.00  0.00    -0.379 N 
BRANCH  36  37
HETATM   37  C   UNK N   1      26.177  17.737   4.638  0.00  0.00     0.138 C 
BRANCH  37  38
HETATM   38  C   UNK N   1      25.970  16.902   3.390  0.00  0.00     0.134 C 
HETATM   39 Cl   UNK N   1      26.782  15.337   3.647  0.00  0.00    -0.129 Cl
ENDBRANCH  37  38
ENDBRANCH  36  37
BRANCH  36  40
HETATM   40  C   UNK N   1      27.459  19.795   4.116  0.00  0.00     0.138 C 
BRANCH  40  41
HETATM   41  C   UNK N   1      26.450  20.684   4.815  0.00  0.00     0.134 C 
HETATM   42 Cl   UNK N   1      27.254  21.457   6.202  0.00  0.00    -0.129 Cl
ENDBRANCH  40  41
ENDBRANCH  36  40
ENDBRANCH  33  36
ENDBRANCH  29  30
ENDBRANCH  28  29
ENDBRANCH  27  28
ENDBRANCH  25  27
ENDBRANCH  24  25
ENDBRANCH  23  24
ENDBRANCH  21  23
ENDBRANCH  19  21
BRANCH  19  43
HETATM   43  O   UNK N   1      38.270  13.541  11.247  0.00  0.00    -0.381 OA
HETATM   44  H   UNK N   1      39.223  13.703  11.327  0.00  0.00     0.211 HD
ENDBRANCH  19  43
BRANCH  15  45
HETATM   45  O   UNK N   1      36.235  13.988  15.992  0.00  0.00    -0.395 OA
HETATM   46  H   UNK N   1      36.248  13.773  16.938  0.00  0.00     0.210 HD
ENDBRANCH  15  45
TORSDOF 15
ENDMDL
MODEL 4
REMARK VINA RESULT:      -8.1     10.196     13.260
REMARK  15 active torsions:
REMARK  status: ('A' for Active; 'I' for Inactive)
REMARK    1  A    between atoms: C_4  and  C_3 
REMARK    2  A    between atoms: C_5  and  C_3 
REMARK    3  A    between atoms: C_23  and  C_4 
REMARK    4  A    between atoms: C_31  and  C_5 
REMARK    5  A    between atoms: C_18  and  C_16 
REMARK    6  A    between atoms: C_19  and  C_17 
REMARK    7  A    between atoms: N_38  and  C_18 
REMARK    8  A    between atoms: N_38  and  C_19 
REMARK    9  A    between atoms: C_30  and  C_22 
REMARK   10  A    between atoms: O_44  and  C_22 
REMARK   11  A    between atoms: N_38  and  C_25 
REMARK   12  A    between atoms: C_29  and  O_40 
REMARK   13  A    between atoms: C_35  and  C_30 
REMARK   14  A    between atoms: O_44  and  C_31 
REMARK   15  A    between atoms: C_35  and  O_43 
ROOT
HETATM    1  C   UNK N   1      22.922  11.216   7.910  0.00  0.00     0.025 C 
HETATM    2  C   UNK N   1      22.169  12.815   3.790  0.00  0.00     0.019 C 
HETATM    3  C   UNK N   1      25.115  13.521   8.257  0.00  0.00     0.036 C 
HETATM    4  C   UNK N   1      24.805  14.343   7.031  0.00  0.00     0.010 C 
HETATM    5  C   UNK N   1      21.489  12.374  10.378  0.00  0.00     0.052 C 
HETATM    6  C   UNK N   1      24.785  14.360   3.838  0.00  0.00     0.009 C 
HETATM    7  C   UNK N   1      21.393  12.696   9.077  0.00  0.00    -0.009 C 
HETATM    8  C   UNK N   1      24.094  14.625   2.504  0.00  0.00     0.047 C 
HETATM    9  C   UNK N   1      23.989  12.800  10.268  0.00  0.00     0.058 C 
HETATM   10  C   UNK N   1      21.231  14.831   5.047  0.00  0.00     0.045 C 
HETATM   11  C   UNK N   1      23.858  13.174   8.982  0.00  0.00    -0.064 C 
HETATM   12  C   UNK N   1      22.829  12.246  10.989  0.00  0.00     0.171 C 
HETATM   13  C   UNK N   1      23.812  13.631   6.107  0.00  0.00    -0.002 C 
HETATM   14  C   UNK N   1      23.680  14.524   4.865  0.00  0.00     0.002 C 
HETATM   15  C   UNK N   1      21.501  14.628   6.591  0.00  0.00     0.124 C 
HETATM   16  C   UNK N   1      22.420  13.382   6.798  0.00  0.00     0.035 C 
HETATM   17  C   UNK N   1      22.631  12.695   8.199  0.00  0.00     0.004 C 
HETATM   18  C   UNK N   1      22.375  14.309   4.124  0.00  0.00     0.001 C 
HETATM   19  C   UNK N   1      22.661  15.083   2.823  0.00  0.00     0.128 C 
HETATM   20  O   UNK N   1      22.967  11.744  12.092  0.00  0.00    -0.289 OA
ENDROOT
BRANCH  19  21
HETATM   21  C   UNK N   1      21.751  14.818   1.638  0.00  0.00     0.185 C 
HETATM   22  O   UNK N   1      22.187  14.327   0.609  0.00  0.00    -0.292 OA
BRANCH  21  23
HETATM   23  C   UNK N   1      20.309  15.227   1.691  0.00  0.00     0.260 C 
BRANCH  23  24
HETATM   24  O   UNK N   1      20.171  16.513   2.159  0.00  0.00    -0.314 OA
BRANCH  24  25
HETATM   25  C   UNK N   1      20.219  17.596   1.348  0.00  0.00     0.259 C 
HETATM   26  O   UNK N   1      20.326  17.465   0.132  0.00  0.00    -0.265 OA
BRANCH  25  27
HETATM   27  C   UNK N   1      20.073  18.967   1.916  0.00  0.00     0.111 C 
BRANCH  27  28
HETATM   28  C   UNK N   1      21.253  19.875   1.536  0.00  0.00     0.014 C 
BRANCH  28  29
HETATM   29  C   UNK N   1      21.855  20.650   2.718  0.00  0.00     0.039 C 
BRANCH  29  30
HETATM   30  C   UNK N   1      23.173  20.110   3.176  0.00  0.00    -0.058 A 
HETATM   31  C   UNK N   1      23.237  19.135   4.174  0.00  0.00     0.009 A 
HETATM   32  C   UNK N   1      24.459  18.640   4.609  0.00  0.00     0.030 A 
HETATM   33  C   UNK N   1      25.652  19.118   4.053  0.00  0.00     0.030 A 
HETATM   34  C   UNK N   1      25.584  20.081   3.028  0.00  0.00     0.030 A 
HETATM   35  C   UNK N   1      24.351  20.567   2.587  0.00  0.00     0.009 A 
BRANCH  33  36
HETATM   36  N   UNK N   1      26.909  18.666   4.570  0.00  0.00    -0.379 N 
BRANCH  36  37
HETATM   37  C   UNK N   1      27.387  17.322   4.306  0.00  0.00     0.138 C 
BRANCH  37  38
HETATM   38  C   UNK N   1      27.501  16.472   5.556  0.00  0.00     0.134 C 
HETATM   39 Cl   UNK N   1      28.761  15.247   5.260  0.00  0.00    -0.129 Cl
ENDBRANCH  37  38
ENDBRANCH  36  37
BRANCH  36  40
HETATM   40  C   UNK N   1      27.864  19.640   5.051  0.00  0.00     0.138 C 
BRANCH  40  41
HETATM   41  C   UNK N   1      27.507  20.130   6.439  0.00  0.00     0.134 C 
HETATM   42 Cl   UNK N   1      26.770  21.744   6.290  0.00  0.00    -0.129 Cl
ENDBRANCH  40  41
ENDBRANCH  36  40
ENDBRANCH  33  36
ENDBRANCH  29  30
ENDBRANCH  28  29
ENDBRANCH  27  28
ENDBRANCH  25  27
ENDBRANCH  24  25
ENDBRANCH  23  24
ENDBRANCH  21  23
ENDBRANCH  19  21
BRANCH  19  43
HETATM   43  O   UNK N   1      22.674  16.460   3.084  0.00  0.00    -0.381 OA
HETATM   44  H   UNK N   1      22.653  17.352   3.463  0.00  0.00     0.211 HD
ENDBRANCH  19  43
BRANCH  15  45
HETATM   45  O   UNK N   1      20.263  14.454   7.209  0.00  0.00    -0.395 OA
HETATM   46  H   UNK N   1      19.642  13.789   6.871  0.00  0.00     0.210 HD
ENDBRANCH  15  45
TORSDOF 15
ENDMDL
MODEL 5
REMARK VINA RESULT:      -8.0      1.806      2.890
REMARK  15 active torsions:
REMARK  status: ('A' for Active; 'I' for Inactive)
REMARK    1  A    between atoms: C_4  and  C_3 
REMARK    2  A    between atoms: C_5  and  C_3 
REMARK    3  A    between atoms: C_23  and  C_4 
REMARK    4  A    between atoms: C_31  and  C_5 
REMARK    5  A    between atoms: C_18  and  C_16 
REMARK    6  A    between atoms: C_19  and  C_17 
REMARK    7  A    between atoms: N_38  and  C_18 
REMARK    8  A    between atoms: N_38  and  C_19 
REMARK    9  A    between atoms: C_30  and  C_22 
REMARK   10  A    between atoms: O_44  and  C_22 
REMARK   11  A    between atoms: N_38  and  C_25 
REMARK   12  A    between atoms: C_29  and  O_40 
REMARK   13  A    between atoms: C_35  and  C_30 
REMARK   14  A    between atoms: O_44  and  C_31 
REMARK   15  A    between atoms: C_35  and  O_43 
ROOT
HETATM    1  C   UNK N   1      34.369  10.409  16.502  0.00  0.00     0.025 C 
HETATM    2  C   UNK N   1      34.993  12.148  12.417  0.00  0.00     0.019 C 
HETATM    3  C   UNK N   1      37.318   9.184  16.282  0.00  0.00     0.036 C 
HETATM    4  C   UNK N   1      37.794   9.907  15.047  0.00  0.00     0.010 C 
HETATM    5  C   UNK N   1      35.300  11.880  19.042  0.00  0.00     0.052 C 
HETATM    6  C   UNK N   1      37.341  10.289  11.909  0.00  0.00     0.009 C 
HETATM    7  C   UNK N   1      35.376  12.231  17.747  0.00  0.00    -0.009 C 
HETATM    8  C   UNK N   1      37.153  11.173  10.680  0.00  0.00     0.047 C 
HETATM    9  C   UNK N   1      36.549   9.737  18.503  0.00  0.00     0.058 C 
HETATM   10  C   UNK N   1      36.715  13.610  13.609  0.00  0.00     0.045 C 
HETATM   11  C   UNK N   1      36.663  10.138  17.224  0.00  0.00    -0.064 C 
HETATM   12  C   UNK N   1      35.736  10.527  19.445  0.00  0.00     0.171 C 
HETATM   13  C   UNK N   1      36.655  10.669  14.361  0.00  0.00    -0.002 C 
HETATM   14  C   UNK N   1      37.257  11.256  13.076  0.00  0.00     0.002 C 
HETATM   15  C   UNK N   1      36.844  13.114  15.104  0.00  0.00     0.124 C 
HETATM   16  C   UNK N   1      36.039  11.787  15.281  0.00  0.00     0.035 C 
HETATM   17  C   UNK N   1      35.680  11.185  16.691  0.00  0.00     0.004 C 
HETATM   18  C   UNK N   1      36.496  12.465  12.572  0.00  0.00     0.001 C 
HETATM   19  C   UNK N   1      37.125  12.629  11.174  0.00  0.00     0.128 C 
HETATM   20  O   UNK N   1      35.478  10.093  20.556  0.00  0.00    -0.289 OA
ENDROOT
BRANCH  19  21
HETATM   21  C   UNK N   1      36.391  13.506  10.177  0.00  0.00     0.185 C 
HETATM   22  O   UNK N   1      35.855  13.023   9.191  0.00  0.00    -0.292 OA
BRANCH  21  23
HETATM   23  C   UNK N   1      36.378  14.995  10.352  0.00  0.00     0.260 C 
BRANCH  23  24
HETATM   24  O   UNK N   1      35.491  15.593   9.486  0.00  0.00    -0.314 OA
BRANCH  24  25
HETATM   25  C   UNK N   1      35.001  16.839   9.686  0.00  0.00     0.259 C 
HETATM   26  O   UNK N   1      35.638  17.668  10.329  0.00  0.00    -0.265 OA
BRANCH  25  27
HETATM   27  C   UNK N   1      33.705  17.245   9.069  0.00  0.00     0.111 C 
BRANCH  27  28
HETATM   28  C   UNK N   1      33.912  18.103   7.812  0.00  0.00     0.014 C 
BRANCH  28  29
HETATM   29  C   UNK N   1      33.952  17.301   6.502  0.00  0.00     0.039 C 
BRANCH  29  30
HETATM   30  C   UNK N   1      32.633  17.240   5.799  0.00  0.00    -0.058 A 
HETATM   31  C   UNK N   1      31.484  16.819   6.472  0.00  0.00     0.009 A 
HETATM   32  C   UNK N   1      30.261  16.752   5.818  0.00  0.00     0.030 A 
HETATM   33  C   UNK N   1      30.162  17.102   4.467  0.00  0.00     0.030 A 
HETATM   34  C   UNK N   1      31.316  17.553   3.798  0.00  0.00     0.030 A 
HETATM   35  C   UNK N   1      32.542  17.630   4.463  0.00  0.00     0.009 A 
BRANCH  33  36
HETATM   36  N   UNK N   1      28.915  16.945   3.780  0.00  0.00    -0.379 N 
BRANCH  36  37
HETATM   37  C   UNK N   1      28.644  15.765   2.982  0.00  0.00     0.138 C 
BRANCH  37  38
HETATM   38  C   UNK N   1      27.549  14.891   3.561  0.00  0.00     0.134 C 
HETATM   39 Cl   UNK N   1      28.316  13.743   4.687  0.00  0.00    -0.129 Cl
ENDBRANCH  37  38
ENDBRANCH  36  37
BRANCH  36  40
HETATM   40  C   UNK N   1      27.795  17.779   4.156  0.00  0.00     0.138 C 
BRANCH  40  41
HETATM   41  C   UNK N   1      28.245  19.168   4.559  0.00  0.00     0.134 C 
HETATM   42 Cl   UNK N   1      27.816  19.422   6.267  0.00  0.00    -0.129 Cl
ENDBRANCH  40  41
ENDBRANCH  36  40
ENDBRANCH  33  36
ENDBRANCH  29  30
ENDBRANCH  28  29
ENDBRANCH  27  28
ENDBRANCH  25  27
ENDBRANCH  24  25
ENDBRANCH  23  24
ENDBRANCH  21  23
ENDBRANCH  19  21
BRANCH  19  43
HETATM   43  O   UNK N   1      38.442  13.090  11.299  0.00  0.00    -0.381 OA
HETATM   44  H   UNK N   1      39.355  13.289  11.557  0.00  0.00     0.211 HD
ENDBRANCH  19  43
BRANCH  15  45
HETATM   45  O   UNK N   1      36.340  14.126  15.921  0.00  0.00    -0.395 OA
HETATM   46  H   UNK N   1      36.427  15.055  15.652  0.00  0.00     0.210 HD
ENDBRANCH  15  45
TORSDOF 15
ENDMDL
MODEL 6
REMARK VINA RESULT:      -7.8      1.517      2.262
REMARK  15 active torsions:
REMARK  status: ('A' for Active; 'I' for Inactive)
REMARK    1  A    between atoms: C_4  and  C_3 
REMARK    2  A    between atoms: C_5  and  C_3 
REMARK    3  A    between atoms: C_23  and  C_4 
REMARK    4  A    between atoms: C_31  and  C_5 
REMARK    5  A    between atoms: C_18  and  C_16 
REMARK    6  A    between atoms: C_19  and  C_17 
REMARK    7  A    between atoms: N_38  and  C_18 
REMARK    8  A    between atoms: N_38  and  C_19 
REMARK    9  A    between atoms: C_30  and  C_22 
REMARK   10  A    between atoms: O_44  and  C_22 
REMARK   11  A    between atoms: N_38  and  C_25 
REMARK   12  A    between atoms: C_29  and  O_40 
REMARK   13  A    between atoms: C_35  and  C_30 
REMARK   14  A    between atoms: O_44  and  C_31 
REMARK   15  A    between atoms: C_35  and  O_43 
ROOT
HETATM    1  C   UNK N   1      34.420  10.736  14.880  0.00  0.00     0.025 C 
HETATM    2  C   UNK N   1      34.429  13.929  11.732  0.00  0.00     0.019 C 
HETATM    3  C   UNK N   1      37.314   9.873  13.819  0.00  0.00     0.036 C 
HETATM    4  C   UNK N   1      37.600  11.038  12.905  0.00  0.00     0.010 C 
HETATM    5  C   UNK N   1      35.701  11.189  17.643  0.00  0.00     0.052 C 
HETATM    6  C   UNK N   1      36.691  12.551  10.245  0.00  0.00     0.009 C 
HETATM    7  C   UNK N   1      35.586  12.010  16.585  0.00  0.00    -0.009 C 
HETATM    8  C   UNK N   1      36.320  13.821   9.486  0.00  0.00     0.047 C 
HETATM    9  C   UNK N   1      36.873   9.494  16.163  0.00  0.00     0.058 C 
HETATM   10  C   UNK N   1      36.297  14.935  13.156  0.00  0.00     0.045 C 
HETATM   11  C   UNK N   1      36.797  10.355  15.133  0.00  0.00    -0.064 C 
HETATM   12  C   UNK N   1      36.201   9.815  17.435  0.00  0.00     0.171 C 
HETATM   13  C   UNK N   1      36.368  11.930  12.721  0.00  0.00    -0.002 C 
HETATM   14  C   UNK N   1      36.772  12.997  11.693  0.00  0.00     0.002 C 
HETATM   15  C   UNK N   1      36.646  13.918  14.314  0.00  0.00     0.124 C 
HETATM   16  C   UNK N   1      35.885  12.575  14.073  0.00  0.00     0.035 C 
HETATM   17  C   UNK N   1      35.739  11.463  15.177  0.00  0.00     0.004 C 
HETATM   18  C   UNK N   1      35.937  14.257  11.797  0.00  0.00     0.001 C 
HETATM   19  C   UNK N   1      36.354  14.977  10.500  0.00  0.00     0.128 C 
HETATM   20  O   UNK N   1      36.111   8.977  18.317  0.00  0.00    -0.289 OA
ENDROOT
BRANCH  19  21
HETATM   21  C   UNK N   1      35.476  16.119  10.022  0.00  0.00     0.185 C 
HETATM   22  O   UNK N   1      35.542  17.222  10.543  0.00  0.00    -0.292 OA
BRANCH  21  23
HETATM   23  C   UNK N   1      34.457  15.885   8.948  0.00  0.00     0.260 C 
BRANCH  23  24
HETATM   24  O   UNK N   1      34.848  16.449   7.756  0.00  0.00    -0.314 OA
BRANCH  24  25
HETATM   25  C   UNK N   1      34.240  17.538   7.227  0.00  0.00     0.259 C 
HETATM   26  O   UNK N   1      34.311  18.629   7.785  0.00  0.00    -0.265 OA
BRANCH  25  27
HETATM   27  C   UNK N   1      33.530  17.442   5.920  0.00  0.00     0.111 C 
BRANCH  27  28
HETATM   28  C   UNK N   1      32.419  16.380   5.946  0.00  0.00     0.014 C 
BRANCH  28  29
HETATM   29  C   UNK N   1      31.280  16.687   6.931  0.00  0.00     0.039 C 
BRANCH  29  30
HETATM   30  C   UNK N   1      30.008  17.100   6.261  0.00  0.00    -0.058 A 
HETATM   31  C   UNK N   1      28.938  17.600   7.007  0.00  0.00     0.009 A 
HETATM   32  C   UNK N   1      27.753  17.974   6.389  0.00  0.00     0.030 A 
HETATM   33  C   UNK N   1      27.610  17.850   5.002  0.00  0.00     0.030 A 
HETATM   34  C   UNK N   1      28.699  17.372   4.248  0.00  0.00     0.030 A 
HETATM   35  C   UNK N   1      29.894  17.008   4.874  0.00  0.00     0.009 A 
BRANCH  33  36
HETATM   36  N   UNK N   1      26.353  18.156   4.385  0.00  0.00    -0.379 N 
BRANCH  36  37
HETATM   37  C   UNK N   1      25.605  17.140   3.671  0.00  0.00     0.138 C 
BRANCH  37  38
HETATM   38  C   UNK N   1      25.416  15.865   4.468  0.00  0.00     0.134 C 
HETATM   39 Cl   UNK N   1      24.172  16.181   5.704  0.00  0.00    -0.129 Cl
ENDBRANCH  37  38
ENDBRANCH  36  37
BRANCH  36  40
HETATM   40  C   UNK N   1      25.658  19.365   4.766  0.00  0.00     0.138 C 
BRANCH  40  41
HETATM   41  C   UNK N   1      25.996  20.516   3.841  0.00  0.00     0.134 C 
HETATM   42 Cl   UNK N   1      24.782  20.563   2.540  0.00  0.00    -0.129 Cl
ENDBRANCH  40  41
ENDBRANCH  36  40
ENDBRANCH  33  36
ENDBRANCH  29  30
ENDBRANCH  28  29
ENDBRANCH  27  28
ENDBRANCH  25  27
ENDBRANCH  24  25
ENDBRANCH  23  24
ENDBRANCH  21  23
ENDBRANCH  19  21
BRANCH  19  43
HETATM   43  O   UNK N   1      37.672  15.437  10.617  0.00  0.00    -0.381 OA
HETATM   44  H   UNK N   1      38.577  15.662  10.885  0.00  0.00     0.211 HD
ENDBRANCH  19  43
BRANCH  15  45
HETATM   45  O   UNK N   1      36.260  14.512  15.517  0.00  0.00    -0.395 OA
HETATM   46  H   UNK N   1      35.340  14.441  15.818  0.00  0.00     0.210 HD
ENDBRANCH  15  45
TORSDOF 15
ENDMDL
MODEL 7
REMARK VINA RESULT:      -7.8      6.173     12.966
REMARK  15 active torsions:
REMARK  status: ('A' for Active; 'I' for Inactive)
REMARK    1  A    between atoms: C_4  and  C_3 
REMARK    2  A    between atoms: C_5  and  C_3 
REMARK    3  A    between atoms: C_23  and  C_4 
REMARK    4  A    between atoms: C_31  and  C_5 
REMARK    5  A    between atoms: C_18  and  C_16 
REMARK    6  A    between atoms: C_19  and  C_17 
REMARK    7  A    between atoms: N_38  and  C_18 
REMARK    8  A    between atoms: N_38  and  C_19 
REMARK    9  A    between atoms: C_30  and  C_22 
REMARK   10  A    between atoms: O_44  and  C_22 
REMARK   11  A    between atoms: N_38  and  C_25 
REMARK   12  A    between atoms: C_29  and  O_40 
REMARK   13  A    between atoms: C_35  and  C_30 
REMARK   14  A    between atoms: O_44  and  C_31 
REMARK   15  A    between atoms: C_35  and  O_43 
ROOT
HETATM    1  C   UNK N   1      32.195  15.021   5.943  0.00  0.00     0.025 C 
HETATM    2  C   UNK N   1      34.654  13.339   9.294  0.00  0.00     0.019 C 
HETATM    3  C   UNK N   1      33.332  17.905   6.737  0.00  0.00     0.036 C 
HETATM    4  C   UNK N   1      34.410  17.487   7.707  0.00  0.00     0.010 C 
HETATM    5  C   UNK N   1      33.379  15.460   3.134  0.00  0.00     0.052 C 
HETATM    6  C   UNK N   1      34.990  16.097  10.522  0.00  0.00     0.009 C 
HETATM    7  C   UNK N   1      33.934  14.961   4.252  0.00  0.00    -0.009 C 
HETATM    8  C   UNK N   1      35.737  15.090  11.390  0.00  0.00     0.047 C 
HETATM    9  C   UNK N   1      32.783  17.572   4.410  0.00  0.00     0.058 C 
HETATM   10  C   UNK N   1      36.623  14.018   7.816  0.00  0.00     0.045 C 
HETATM   11  C   UNK N   1      33.395  17.075   5.499  0.00  0.00    -0.064 C 
HETATM   12  C   UNK N   1      32.622  16.726   3.213  0.00  0.00     0.171 C 
HETATM   13  C   UNK N   1      34.327  15.993   8.037  0.00  0.00    -0.002 C 
HETATM   14  C   UNK N   1      35.401  15.740   9.105  0.00  0.00     0.002 C 
HETATM   15  C   UNK N   1      36.063  14.811   6.569  0.00  0.00     0.124 C 
HETATM   16  C   UNK N   1      34.538  15.084   6.770  0.00  0.00     0.035 C 
HETATM   17  C   UNK N   1      33.592  15.559   5.604  0.00  0.00     0.004 C 
HETATM   18  C   UNK N   1      35.857  14.295   9.146  0.00  0.00     0.001 C 
HETATM   19  C   UNK N   1      36.667  14.295  10.457  0.00  0.00     0.128 C 
HETATM   20  O   UNK N   1      31.923  17.095   2.284  0.00  0.00    -0.289 OA
ENDROOT
BRANCH  19  21
HETATM   21  C   UNK N   1      36.998  12.948  11.073  0.00  0.00     0.185 C 
HETATM   22  O   UNK N   1      37.955  12.297  10.682  0.00  0.00    -0.292 OA
BRANCH  21  23
HETATM   23  C   UNK N   1      36.105  12.361  12.124  0.00  0.00     0.260 C 
BRANCH  23  24
HETATM   24  O   UNK N   1      36.542  12.682  13.389  0.00  0.00    -0.314 OA
BRANCH  24  25
HETATM   25  C   UNK N   1      35.707  13.103  14.367  0.00  0.00     0.259 C 
HETATM   26  O   UNK N   1      34.491  13.102  14.198  0.00  0.00    -0.265 OA
BRANCH  25  27
HETATM   27  C   UNK N   1      36.249  13.511  15.695  0.00  0.00     0.111 C 
BRANCH  27  28
HETATM   28  C   UNK N   1      35.544  12.785  16.852  0.00  0.00     0.014 C 
BRANCH  28  29
HETATM   29  C   UNK N   1      35.871  11.286  16.945  0.00  0.00     0.039 C 
BRANCH  29  30
HETATM   30  C   UNK N   1      35.258  10.615  18.132  0.00  0.00    -0.058 A 
HETATM   31  C   UNK N   1      35.246  11.243  19.381  0.00  0.00     0.009 A 
HETATM   32  C   UNK N   1      34.687  10.618  20.487  0.00  0.00     0.030 A 
HETATM   33  C   UNK N   1      34.128   9.340  20.368  0.00  0.00     0.030 A 
HETATM   34  C   UNK N   1      34.116   8.720  19.104  0.00  0.00     0.030 A 
HETATM   35  C   UNK N   1      34.670   9.358  17.991  0.00  0.00     0.009 A 
BRANCH  33  36
HETATM   36  N   UNK N   1      33.634   8.668  21.532  0.00  0.00    -0.379 N 
BRANCH  36  37
HETATM   37  C   UNK N   1      33.464   9.373  22.788  0.00  0.00     0.138 C 
BRANCH  37  38
HETATM   38  C   UNK N   1      34.661   9.248  23.710  0.00  0.00     0.134 C 
HETATM   39 Cl   UNK N   1      34.254  10.074  25.235  0.00  0.00    -0.129 Cl
ENDBRANCH  37  38
ENDBRANCH  36  37
BRANCH  36  40
HETATM   40  C   UNK N   1      32.972   7.391  21.380  0.00  0.00     0.138 C 
BRANCH  40  41
HETATM   41  C   UNK N   1      31.480   7.505  21.619  0.00  0.00     0.134 C 
HETATM   42 Cl   UNK N   1      30.712   8.049  20.109  0.00  0.00    -0.129 Cl
ENDBRANCH  40  41
ENDBRANCH  36  40
ENDBRANCH  33  36
ENDBRANCH  29  30
ENDBRANCH  28  29
ENDBRANCH  27  28
ENDBRANCH  25  27
ENDBRANCH  24  25
ENDBRANCH  23  24
ENDBRANCH  21  23
ENDBRANCH  19  21
BRANCH  19  43
HETATM   43  O   UNK N   1      37.854  15.017  10.281  0.00  0.00    -0.381 OA
HETATM   44  H   UNK N   1      38.761  15.361  10.271  0.00  0.00     0.211 HD
ENDBRANCH  19  43
BRANCH  15  45
HETATM   45  O   UNK N   1      36.293  14.024   5.440  0.00  0.00    -0.395 OA
HETATM   46  H   UNK N   1      36.011  14.336   4.565  0.00  0.00     0.210 HD
ENDBRANCH  15  45
TORSDOF 15
ENDMDL
MODEL 8
REMARK VINA RESULT:      -7.6      2.059      3.124
REMARK  15 active torsions:
REMARK  status: ('A' for Active; 'I' for Inactive)
REMARK    1  A    between atoms: C_4  and  C_3 
REMARK    2  A    between atoms: C_5  and  C_3 
REMARK    3  A    between atoms: C_23  and  C_4 
REMARK    4  A    between atoms: C_31  and  C_5 
REMARK    5  A    between atoms: C_18  and  C_16 
REMARK    6  A    between atoms: C_19  and  C_17 
REMARK    7  A    between atoms: N_38  and  C_18 
REMARK    8  A    between atoms: N_38  and  C_19 
REMARK    9  A    between atoms: C_30  and  C_22 
REMARK   10  A    between atoms: O_44  and  C_22 
REMARK   11  A    between atoms: N_38  and  C_25 
REMARK   12  A    between atoms: C_29  and  O_40 
REMARK   13  A    between atoms: C_35  and  C_30 
REMARK   14  A    between atoms: O_44  and  C_31 
REMARK   15  A    between atoms: C_35  and  O_43 
ROOT
HETATM    1  C   UNK N   1      35.315   9.061  14.052  0.00  0.00     0.025 C 
HETATM    2  C   UNK N   1      35.031  12.213  10.876  0.00  0.00     0.019 C 
HETATM    3  C   UNK N   1      38.308  10.059  14.585  0.00  0.00     0.036 C 
HETATM    4  C   UNK N   1      38.297  11.324  13.763  0.00  0.00     0.010 C 
HETATM    5  C   UNK N   1      34.708   9.685  17.006  0.00  0.00     0.052 C 
HETATM    6  C   UNK N   1      38.054  12.514  10.810  0.00  0.00     0.009 C 
HETATM    7  C   UNK N   1      34.667  10.472  15.916  0.00  0.00    -0.009 C 
HETATM    8  C   UNK N   1      37.451  13.490   9.804  0.00  0.00     0.047 C 
HETATM    9  C   UNK N   1      37.131   9.139  16.481  0.00  0.00     0.058 C 
HETATM   10  C   UNK N   1      35.153  13.822  12.857  0.00  0.00     0.045 C 
HETATM   11  C   UNK N   1      37.081   9.976  15.430  0.00  0.00    -0.064 C 
HETATM   12  C   UNK N   1      35.901   8.845  17.239  0.00  0.00     0.171 C 
HETATM   13  C   UNK N   1      37.029  11.434  12.910  0.00  0.00    -0.002 C 
HETATM   14  C   UNK N   1      37.206  12.698  12.055  0.00  0.00     0.002 C 
HETATM   15  C   UNK N   1      35.420  12.982  14.168  0.00  0.00     0.124 C 
HETATM   16  C   UNK N   1      35.721  11.498  13.782  0.00  0.00     0.035 C 
HETATM   17  C   UNK N   1      35.715  10.322  14.829  0.00  0.00     0.004 C 
HETATM   18  C   UNK N   1      35.887  13.281  11.591  0.00  0.00     0.001 C 
HETATM   19  C   UNK N   1      36.385  14.307  10.554  0.00  0.00     0.128 C 
HETATM   20  O   UNK N   1      35.888   7.962  18.080  0.00  0.00    -0.289 OA
ENDROOT
BRANCH  19  21
HETATM   21  C   UNK N   1      35.366  14.860   9.575  0.00  0.00     0.185 C 
HETATM   22  O   UNK N   1      35.208  14.350   8.477  0.00  0.00    -0.292 OA
BRANCH  21  23
HETATM   23  C   UNK N   1      34.588  16.096   9.918  0.00  0.00     0.260 C 
BRANCH  23  24
HETATM   24  O   UNK N   1      35.283  17.234   9.580  0.00  0.00    -0.314 OA
BRANCH  24  25
HETATM   25  C   UNK N   1      34.840  18.113   8.650  0.00  0.00     0.259 C 
HETATM   26  O   UNK N   1      35.301  19.249   8.591  0.00  0.00    -0.265 OA
BRANCH  25  27
HETATM   27  C   UNK N   1      33.830  17.691   7.638  0.00  0.00     0.111 C 
BRANCH  27  28
HETATM   28  C   UNK N   1      32.433  18.250   7.952  0.00  0.00     0.014 C 
BRANCH  28  29
HETATM   29  C   UNK N   1      31.338  17.178   8.064  0.00  0.00     0.039 C 
BRANCH  29  30
HETATM   30  C   UNK N   1      31.142  16.392   6.806  0.00  0.00    -0.058 A 
HETATM   31  C   UNK N   1      30.698  17.015   5.637  0.00  0.00     0.009 A 
HETATM   32  C   UNK N   1      30.505  16.286   4.472  0.00  0.00     0.030 A 
HETATM   33  C   UNK N   1      30.749  14.908   4.452  0.00  0.00     0.030 A 
HETATM   34  C   UNK N   1      31.223  14.287   5.623  0.00  0.00     0.030 A 
HETATM   35  C   UNK N   1      31.426  15.027   6.791  0.00  0.00     0.009 A 
BRANCH  33  36
HETATM   36  N   UNK N   1      30.462  14.150   3.271  0.00  0.00    -0.379 N 
BRANCH  36  37
HETATM   37  C   UNK N   1      31.506  13.422   2.578  0.00  0.00     0.138 C 
BRANCH  37  38
HETATM   38  C   UNK N   1      31.079  12.034   2.142  0.00  0.00     0.134 C 
HETATM   39 Cl   UNK N   1      30.956  12.042   0.364  0.00  0.00    -0.129 Cl
ENDBRANCH  37  38
ENDBRANCH  36  37
BRANCH  36  40
HETATM   40  C   UNK N   1      29.088  13.818   2.964  0.00  0.00     0.138 C 
BRANCH  40  41
HETATM   41  C   UNK N   1      28.509  14.753   1.922  0.00  0.00     0.134 C 
HETATM   42 Cl   UNK N   1      27.280  15.773   2.708  0.00  0.00    -0.129 Cl
ENDBRANCH  40  41
ENDBRANCH  36  40
ENDBRANCH  33  36
ENDBRANCH  29  30
ENDBRANCH  28  29
ENDBRANCH  27  28
ENDBRANCH  25  27
ENDBRANCH  24  25
ENDBRANCH  23  24
ENDBRANCH  21  23
ENDBRANCH  19  21
BRANCH  19  43
HETATM   43  O   UNK N   1      37.012  15.375  11.208  0.00  0.00    -0.381 OA
HETATM   44  H   UNK N   1      37.331  16.233  11.530  0.00  0.00     0.211 HD
ENDBRANCH  19  43
BRANCH  15  45
HETATM   45  O   UNK N   1      34.276  13.078  14.962  0.00  0.00    -0.395 OA
HETATM   46  H   UNK N   1      34.334  12.920  15.918  0.00  0.00     0.210 HD
ENDBRANCH  15  45
TORSDOF 15
ENDMDL
MODEL 9
REMARK VINA RESULT:      -7.6      1.564      2.059
REMARK  15 active torsions:
REMARK  status: ('A' for Active; 'I' for Inactive)
REMARK    1  A    between atoms: C_4  and  C_3 
REMARK    2  A    between atoms: C_5  and  C_3 
REMARK    3  A    between atoms: C_23  and  C_4 
REMARK    4  A    between atoms: C_31  and  C_5 
REMARK    5  A    between atoms: C_18  and  C_16 
REMARK    6  A    between atoms: C_19  and  C_17 
REMARK    7  A    between atoms: N_38  and  C_18 
REMARK    8  A    between atoms: N_38  and  C_19 
REMARK    9  A    between atoms: C_30  and  C_22 
REMARK   10  A    between atoms: O_44  and  C_22 
REMARK   11  A    between atoms: N_38  and  C_25 
REMARK   12  A    between atoms: C_29  and  O_40 
REMARK   13  A    between atoms: C_35  and  C_30 
REMARK   14  A    between atoms: O_44  and  C_31 
REMARK   15  A    between atoms: C_35  and  O_43 
ROOT
HETATM    1  C   UNK N   1      35.351   9.063  14.167  0.00  0.00     0.025 C 
HETATM    2  C   UNK N   1      35.004  12.194  10.976  0.00  0.00     0.019 C 
HETATM    3  C   UNK N   1      38.329  10.115  14.684  0.00  0.00     0.036 C 
HETATM    4  C   UNK N   1      38.293  11.375  13.856  0.00  0.00     0.010 C 
HETATM    5  C   UNK N   1      34.744   9.693  17.119  0.00  0.00     0.052 C 
HETATM    6  C   UNK N   1      38.020  12.546  10.898  0.00  0.00     0.009 C 
HETATM    7  C   UNK N   1      34.685  10.473  16.026  0.00  0.00    -0.009 C 
HETATM    8  C   UNK N   1      37.398  13.506   9.889  0.00  0.00     0.047 C 
HETATM    9  C   UNK N   1      37.173   9.184  16.589  0.00  0.00     0.058 C 
HETATM   10  C   UNK N   1      35.105  13.815  12.948  0.00  0.00     0.045 C 
HETATM   11  C   UNK N   1      37.106  10.015  15.534  0.00  0.00    -0.064 C 
HETATM   12  C   UNK N   1      35.951   8.873  17.352  0.00  0.00     0.171 C 
HETATM   13  C   UNK N   1      37.021  11.459  13.007  0.00  0.00    -0.002 C 
HETATM   14  C   UNK N   1      37.174  12.722  12.145  0.00  0.00     0.002 C 
HETATM   15  C   UNK N   1      35.390  12.986  14.263  0.00  0.00     0.124 C 
HETATM   16  C   UNK N   1      35.715  11.506  13.883  0.00  0.00     0.035 C 
HETATM   17  C   UNK N   1      35.732  10.335  14.936  0.00  0.00     0.004 C 
HETATM   18  C   UNK N   1      35.844  13.280  11.682  0.00  0.00     0.001 C 
HETATM   19  C   UNK N   1      36.321  14.309  10.639  0.00  0.00     0.128 C 
HETATM   20  O   UNK N   1      35.956   7.995  18.199  0.00  0.00    -0.289 OA
ENDROOT
BRANCH  19  21
HETATM   21  C   UNK N   1      35.290  14.840   9.660  0.00  0.00     0.185 C 
HETATM   22  O   UNK N   1      35.020  14.229   8.638  0.00  0.00    -0.292 OA
BRANCH  21  23
HETATM   23  C   UNK N   1      34.638  16.169   9.903  0.00  0.00     0.260 C 
BRANCH  23  24
HETATM   24  O   UNK N   1      35.301  17.179   9.244  0.00  0.00    -0.314 OA
BRANCH  24  25
HETATM   25  C   UNK N   1      34.667  18.082   8.460  0.00  0.00     0.259 C 
HETATM   26  O   UNK N   1      35.063  19.242   8.391  0.00  0.00    -0.265 OA
BRANCH  25  27
HETATM   27  C   UNK N   1      33.512  17.663   7.614  0.00  0.00     0.111 C 
BRANCH  27  28
HETATM   28  C   UNK N   1      33.968  16.961   6.326  0.00  0.00     0.014 C 
BRANCH  28  29
HETATM   29  C   UNK N   1      33.210  17.405   5.066  0.00  0.00     0.039 C 
BRANCH  29  30
HETATM   30  C   UNK N   1      31.847  16.802   4.946  0.00  0.00    -0.058 A 
HETATM   31  C   UNK N   1      30.706  17.609   4.943  0.00  0.00     0.009 A 
HETATM   32  C   UNK N   1      29.439  17.050   4.843  0.00  0.00     0.030 A 
HETATM   33  C   UNK N   1      29.285  15.662   4.749  0.00  0.00     0.030 A 
HETATM   34  C   UNK N   1      30.436  14.853   4.725  0.00  0.00     0.030 A 
HETATM   35  C   UNK N   1      31.710  15.420   4.814  0.00  0.00     0.009 A 
BRANCH  33  36
HETATM   36  N   UNK N   1      27.971  15.091   4.736  0.00  0.00    -0.379 N 
BRANCH  36  37
HETATM   37  C   UNK N   1      27.505  14.313   3.605  0.00  0.00     0.138 C 
BRANCH  37  38
HETATM   38  C   UNK N   1      27.428  15.113   2.320  0.00  0.00     0.134 C 
HETATM   39 Cl   UNK N   1      26.154  16.342   2.526  0.00  0.00    -0.129 Cl
ENDBRANCH  37  38
ENDBRANCH  36  37
BRANCH  36  40
HETATM   40  C   UNK N   1      27.238  14.984   5.978  0.00  0.00     0.138 C 
BRANCH  40  41
HETATM   41  C   UNK N   1      25.816  14.515   5.746  0.00  0.00     0.134 C 
HETATM   42 Cl   UNK N   1      24.751  15.940   5.736  0.00  0.00    -0.129 Cl
ENDBRANCH  40  41
ENDBRANCH  36  40
ENDBRANCH  33  36
ENDBRANCH  29  30
ENDBRANCH  28  29
ENDBRANCH  27  28
ENDBRANCH  25  27
ENDBRANCH  24  25
ENDBRANCH  23  24
ENDBRANCH  21  23
ENDBRANCH  19  21
BRANCH  19  43
HETATM   43  O   UNK N   1      36.932  15.391  11.285  0.00  0.00    -0.381 OA
HETATM   44  H   UNK N   1      37.178  16.143  11.845  0.00  0.00     0.211 HD
ENDBRANCH  19  43
BRANCH  15  45
HETATM   45  O   UNK N   1      34.248  13.067  15.060  0.00  0.00    -0.395 OA
HETATM   46  H   UNK N   1      34.034  13.895  15.518  0.00  0.00     0.210 HD
ENDBRANCH  15  45
TORSDOF 15
ENDMDL
