MODEL 1
REMARK VINA RESULT:     -10.2      0.000      0.000
REMARK  13 active torsions:
REMARK  status: ('A' for Active; 'I' for Inactive)
REMARK    1  A    between atoms: C_20  and  C_11 
REMARK    2  A    between atoms: O_34  and  C_11 
REMARK    3  A    between atoms: C_17  and  N_33 
REMARK    4  A    between atoms: C_18  and  O_35 
REMARK    5  A    between atoms: C_19  and  O_45 
REMARK    6  A    between atoms: C_32  and  C_20 
REMARK    7  A    between atoms: C_21  and  O_46 
REMARK    8  A    between atoms: C_22  and  O_45 
REMARK    9  A    between atoms: C_26  and  O_37 
REMARK   10  A    between atoms: O_40  and  C_29 
REMARK   11  A    between atoms: O_41  and  C_30 
REMARK   12  A    between atoms: C_31  and  O_46 
REMARK   13  A    between atoms: C_32  and  O_42 
ROOT
HETATM    1  C   UNK N   1      21.706  11.845  11.606  0.00  0.00     0.001 A 
HETATM    2  C   UNK N   1      23.060  11.655  11.327  0.00  0.00     0.001 A 
HETATM    3  C   UNK N   1      20.945  12.723  10.828  0.00  0.00     0.016 A 
HETATM    4  C   UNK N   1      23.653  12.336  10.266  0.00  0.00     0.016 A 
HETATM    5  C   UNK N   1      20.343  17.409   4.964  0.00  0.00     0.088 C 
HETATM    6  C   UNK N   1      22.215  17.320   3.248  0.00  0.00     0.083 C 
HETATM    7  C   UNK N   1      21.536  13.415   9.759  0.00  0.00     0.029 A 
HETATM    8  C   UNK N   1      22.895  13.213   9.477  0.00  0.00     0.029 A 
HETATM    9  C   UNK N   1      21.207  16.529   5.828  0.00  0.00    -0.009 A 
HETATM   10  C   UNK N   1      23.228  16.859   4.300  0.00  0.00     0.164 C 
HETATM   11  C   UNK N   1      22.560  16.275   5.527  0.00  0.00     0.014 A 
HETATM   12  C   UNK N   1      21.358  15.047   7.771  0.00  0.00     0.066 A 
HETATM   13  C   UNK N   1      22.716  14.813   7.478  0.00  0.00     0.066 A 
HETATM   14  C   UNK N   1      20.730  14.346   8.934  0.00  0.00     0.197 A 
HETATM   15  C   UNK N   1      23.528  13.909   8.348  0.00  0.00     0.197 A 
HETATM   16  C   UNK N   1      20.608  15.914   6.941  0.00  0.00     0.088 A 
HETATM   17  C   UNK N   1      23.300  15.409   6.350  0.00  0.00     0.090 A 
HETATM   18  C   UNK N   1      20.987  18.073   3.749  0.00  0.00     0.127 C 
HETATM   19  O   UNK N   1      19.549  14.511   9.196  0.00  0.00    -0.286 OA
HETATM   20  O   UNK N   1      24.719  13.740   8.136  0.00  0.00    -0.286 OA
ENDROOT
BRANCH  10  21
HETATM   21  O   UNK N   1      24.156  17.895   4.633  0.00  0.00    -0.351 OA
BRANCH  21  22
HETATM   22  C   UNK N   1      25.067  18.222   3.572  0.00  0.00     0.263 C 
HETATM   23  C   UNK N   1      26.143  17.128   3.391  0.00  0.00     0.095 C 
HETATM   24  C   UNK N   1      27.382  17.333   4.265  0.00  0.00     0.154 C 
HETATM   25  C   UNK N   1      26.999  18.256   5.427  0.00  0.00     0.182 C 
HETATM   26  C   UNK N   1      26.585  19.616   4.811  0.00  0.00     0.152 C 
HETATM   27  C   UNK N   1      26.035  20.552   5.873  0.00  0.00     0.042 C 
HETATM   28  O   UNK N   1      25.664  19.511   3.722  0.00  0.00    -0.354 OA
BRANCH  24  29
HETATM   29  O   UNK N   1      28.407  17.902   3.501  0.00  0.00    -0.393 OA
HETATM   30  H   UNK N   1      29.366  17.757   3.511  0.00  0.00     0.210 HD
ENDBRANCH  24  29
BRANCH  25  31
HETATM   31  O   UNK N   1      28.043  18.410   6.378  0.00  0.00    -0.351 OA
BRANCH  31  32
HETATM   32  C   UNK N   1      28.114  17.261   7.222  0.00  0.00     0.262 C 
HETATM   33  C   UNK N   1      28.257  17.611   8.721  0.00  0.00     0.088 C 
HETATM   34  C   UNK N   1      29.609  18.238   8.997  0.00  0.00     0.110 C 
HETATM   35  C   UNK N   1      30.671  17.251   8.521  0.00  0.00     0.169 C 
HETATM   36  C   UNK N   1      30.438  16.958   7.024  0.00  0.00     0.151 C 
HETATM   37  C   UNK N   1      31.473  15.960   6.536  0.00  0.00     0.042 C 
HETATM   38  O   UNK N   1      29.156  16.395   6.800  0.00  0.00    -0.354 OA
BRANCH  34  39
HETATM   39  N   UNK N   1      29.743  18.488  10.422  0.00  0.00    -0.423 N 
HETATM   40  H   UNK N   1      28.924  18.658  11.005  0.00  0.00     0.150 HD
HETATM   41  H   UNK N   1      30.671  18.495  10.845  0.00  0.00     0.150 HD
ENDBRANCH  34  39
BRANCH  35  42
HETATM   42  O   UNK N   1      31.944  17.791   8.723  0.00  0.00    -0.391 OA
HETATM   43  H   UNK N   1      32.422  18.317   9.383  0.00  0.00     0.210 HD
ENDBRANCH  35  42
ENDBRANCH  31  32
ENDBRANCH  25  31
ENDBRANCH  21  22
ENDBRANCH  10  21
BRANCH  18  44
HETATM   44  C   UNK N   1      19.962  18.049   2.632  0.00  0.00     0.184 C 
HETATM   45  O   UNK N   1      18.921  18.680   2.731  0.00  0.00    -0.292 OA
BRANCH  44  46
HETATM   46  C   UNK N   1      20.221  17.275   1.365  0.00  0.00     0.245 C 
BRANCH  46  47
HETATM   47  O   UNK N   1      20.290  18.126   0.259  0.00  0.00    -0.393 OA
HETATM   48  H   UNK N   1      19.904  19.014   0.306  0.00  0.00     0.209 HD
ENDBRANCH  46  47
ENDBRANCH  44  46
ENDBRANCH  18  44
BRANCH  18  49
HETATM   49  O   UNK N   1      21.337  19.386   4.075  0.00  0.00    -0.382 OA
HETATM   50  H   UNK N   1      21.905  20.164   3.958  0.00  0.00     0.211 HD
ENDBRANCH  18  49
BRANCH  17  51
HETATM   51  O   UNK N   1      24.564  15.103   6.026  0.00  0.00    -0.359 OA
HETATM   52  H   UNK N   1      24.860  14.620   5.279  0.00  0.00     0.217 HD
ENDBRANCH  17  51
BRANCH  16  53
HETATM   53  O   UNK N   1      19.308  16.149   7.201  0.00  0.00    -0.359 OA
HETATM   54  H   UNK N   1      18.869  15.946   8.003  0.00  0.00     0.217 HD
ENDBRANCH  16  53
TORSDOF 13
ENDMDL
MODEL 2
REMARK VINA RESULT:      -8.4      5.957     11.144
REMARK  13 active torsions:
REMARK  status: ('A' for Active; 'I' for Inactive)
REMARK    1  A    between atoms: C_20  and  C_11 
REMARK    2  A    between atoms: O_34  and  C_11 
REMARK    3  A    between atoms: C_17  and  N_33 
REMARK    4  A    between atoms: C_18  and  O_35 
REMARK    5  A    between atoms: C_19  and  O_45 
REMARK    6  A    between atoms: C_32  and  C_20 
REMARK    7  A    between atoms: C_21  and  O_46 
REMARK    8  A    between atoms: C_22  and  O_45 
REMARK    9  A    between atoms: C_26  and  O_37 
REMARK   10  A    between atoms: O_40  and  C_29 
REMARK   11  A    between atoms: O_41  and  C_30 
REMARK   12  A    between atoms: C_31  and  O_46 
REMARK   13  A    between atoms: C_32  and  O_42 
ROOT
HETATM    1  C   UNK N   1      25.923  16.050   2.422  0.00  0.00     0.001 A 
HETATM    2  C   UNK N   1      26.376  14.831   1.917  0.00  0.00     0.001 A 
HETATM    3  C   UNK N   1      26.590  16.658   3.490  0.00  0.00     0.016 A 
HETATM    4  C   UNK N   1      27.499  14.221   2.474  0.00  0.00     0.016 A 
HETATM    5  C   UNK N   1      32.285  16.789   8.414  0.00  0.00     0.088 C 
HETATM    6  C   UNK N   1      34.229  15.224   7.938  0.00  0.00     0.083 C 
HETATM    7  C   UNK N   1      27.719  16.050   4.059  0.00  0.00     0.029 A 
HETATM    8  C   UNK N   1      28.176  14.829   3.541  0.00  0.00     0.029 A 
HETATM    9  C   UNK N   1      31.547  16.072   7.315  0.00  0.00    -0.009 A 
HETATM   10  C   UNK N   1      33.320  14.237   7.200  0.00  0.00     0.164 C 
HETATM   11  C   UNK N   1      32.023  14.872   6.748  0.00  0.00     0.014 A 
HETATM   12  C   UNK N   1      29.653  16.058   5.764  0.00  0.00     0.066 A 
HETATM   13  C   UNK N   1      30.121  14.848   5.215  0.00  0.00     0.066 A 
HETATM   14  C   UNK N   1      28.426  16.693   5.192  0.00  0.00     0.197 A 
HETATM   15  C   UNK N   1      29.371  14.186   4.106  0.00  0.00     0.197 A 
HETATM   16  C   UNK N   1      30.372  16.665   6.822  0.00  0.00     0.088 A 
HETATM   17  C   UNK N   1      31.310  14.276   5.695  0.00  0.00     0.090 A 
HETATM   18  C   UNK N   1      33.567  16.154   8.949  0.00  0.00     0.127 C 
HETATM   19  O   UNK N   1      28.012  17.755   5.632  0.00  0.00    -0.286 OA
HETATM   20  O   UNK N   1      29.736  13.109   3.658  0.00  0.00    -0.286 OA
ENDROOT
BRANCH  10  21
HETATM   21  O   UNK N   1      33.101  13.046   7.962  0.00  0.00    -0.351 OA
BRANCH  21  22
HETATM   22  C   UNK N   1      33.685  11.869   7.382  0.00  0.00     0.263 C 
HETATM   23  C   UNK N   1      33.169  10.584   8.066  0.00  0.00     0.095 C 
HETATM   24  C   UNK N   1      33.992  10.163   9.286  0.00  0.00     0.154 C 
HETATM   25  C   UNK N   1      34.765  11.388   9.786  0.00  0.00     0.182 C 
HETATM   26  C   UNK N   1      35.729  11.813   8.648  0.00  0.00     0.152 C 
HETATM   27  C   UNK N   1      36.428  13.119   8.985  0.00  0.00     0.042 C 
HETATM   28  O   UNK N   1      35.113  11.903   7.360  0.00  0.00    -0.354 OA
BRANCH  24  29
HETATM   29  O   UNK N   1      34.873   9.137   8.927  0.00  0.00    -0.393 OA
HETATM   30  H   UNK N   1      35.447   8.571   9.467  0.00  0.00     0.210 HD
ENDBRANCH  24  29
BRANCH  25  31
HETATM   31  O   UNK N   1      35.464  11.145  10.997  0.00  0.00    -0.351 OA
BRANCH  31  32
HETATM   32  C   UNK N   1      34.736  11.680  12.103  0.00  0.00     0.262 C 
HETATM   33  C   UNK N   1      35.038  13.172  12.369  0.00  0.00     0.088 C 
HETATM   34  C   UNK N   1      36.458  13.351  12.865  0.00  0.00     0.110 C 
HETATM   35  C   UNK N   1      36.613  12.489  14.115  0.00  0.00     0.169 C 
HETATM   36  C   UNK N   1      36.283  11.027  13.750  0.00  0.00     0.151 C 
HETATM   37  C   UNK N   1      36.409  10.155  14.988  0.00  0.00     0.042 C 
HETATM   38  O   UNK N   1      34.954  10.900  13.268  0.00  0.00    -0.354 OA
BRANCH  34  39
HETATM   39  N   UNK N   1      36.689  14.751  13.176  0.00  0.00    -0.423 N 
HETATM   40  H   UNK N   1      36.652  15.089  14.138  0.00  0.00     0.150 HD
HETATM   41  H   UNK N   1      36.890  15.407  12.421  0.00  0.00     0.150 HD
ENDBRANCH  34  39
BRANCH  35  42
HETATM   42  O   UNK N   1      37.919  12.590  14.601  0.00  0.00    -0.391 OA
HETATM   43  H   UNK N   1      38.493  12.162  15.255  0.00  0.00     0.210 HD
ENDBRANCH  35  42
ENDBRANCH  31  32
ENDBRANCH  25  31
ENDBRANCH  21  22
ENDBRANCH  10  21
BRANCH  18  44
HETATM   44  C   UNK N   1      34.543  17.283   9.222  0.00  0.00     0.184 C 
HETATM   45  O   UNK N   1      35.328  17.212  10.155  0.00  0.00    -0.292 OA
BRANCH  44  46
HETATM   46  C   UNK N   1      34.589  18.496   8.328  0.00  0.00     0.245 C 
BRANCH  46  47
HETATM   47  O   UNK N   1      35.594  19.379   8.727  0.00  0.00    -0.393 OA
HETATM   48  H   UNK N   1      36.484  19.304   8.350  0.00  0.00     0.209 HD
ENDBRANCH  46  47
ENDBRANCH  44  46
ENDBRANCH  18  44
BRANCH  18  49
HETATM   49  O   UNK N   1      33.278  15.452  10.122  0.00  0.00    -0.382 OA
HETATM   50  H   UNK N   1      33.568  14.998  10.928  0.00  0.00     0.211 HD
ENDBRANCH  18  49
BRANCH  17  51
HETATM   51  O   UNK N   1      31.797  13.178   5.101  0.00  0.00    -0.359 OA
HETATM   52  H   UNK N   1      32.241  12.460   5.506  0.00  0.00     0.217 HD
ENDBRANCH  17  51
BRANCH  16  53
HETATM   53  O   UNK N   1      29.945  17.824   7.358  0.00  0.00    -0.359 OA
HETATM   54  H   UNK N   1      29.169  17.931   7.871  0.00  0.00     0.217 HD
ENDBRANCH  16  53
TORSDOF 13
ENDMDL
MODEL 3
REMARK VINA RESULT:      -8.3      5.346     10.268
REMARK  13 active torsions:
REMARK  status: ('A' for Active; 'I' for Inactive)
REMARK    1  A    between atoms: C_20  and  C_11 
REMARK    2  A    between atoms: O_34  and  C_11 
REMARK    3  A    between atoms: C_17  and  N_33 
REMARK    4  A    between atoms: C_18  and  O_35 
REMARK    5  A    between atoms: C_19  and  O_45 
REMARK    6  A    between atoms: C_32  and  C_20 
REMARK    7  A    between atoms: C_21  and  O_46 
REMARK    8  A    between atoms: C_22  and  O_45 
REMARK    9  A    between atoms: C_26  and  O_37 
REMARK   10  A    between atoms: O_40  and  C_29 
REMARK   11  A    between atoms: O_41  and  C_30 
REMARK   12  A    between atoms: C_31  and  O_46 
REMARK   13  A    between atoms: C_32  and  O_42 
ROOT
HETATM    1  C   UNK N   1      26.315  21.059   6.175  0.00  0.00     0.001 A 
HETATM    2  C   UNK N   1      26.381  20.630   4.849  0.00  0.00     0.001 A 
HETATM    3  C   UNK N   1      27.084  20.425   7.156  0.00  0.00     0.016 A 
HETATM    4  C   UNK N   1      27.221  19.574   4.500  0.00  0.00     0.016 A 
HETATM    5  C   UNK N   1      32.263  15.320   9.113  0.00  0.00     0.088 C 
HETATM    6  C   UNK N   1      33.628  14.311   7.222  0.00  0.00     0.083 C 
HETATM    7  C   UNK N   1      27.930  19.359   6.814  0.00  0.00     0.029 A 
HETATM    8  C   UNK N   1      28.000  18.938   5.478  0.00  0.00     0.029 A 
HETATM    9  C   UNK N   1      31.393  15.931   8.046  0.00  0.00    -0.009 A 
HETATM   10  C   UNK N   1      32.491  14.525   6.218  0.00  0.00     0.164 C 
HETATM   11  C   UNK N   1      31.489  15.556   6.691  0.00  0.00     0.014 A 
HETATM   12  C   UNK N   1      29.675  17.579   7.472  0.00  0.00     0.066 A 
HETATM   13  C   UNK N   1      29.760  17.186   6.122  0.00  0.00     0.066 A 
HETATM   14  C   UNK N   1      28.746  18.687   7.853  0.00  0.00     0.197 A 
HETATM   15  C   UNK N   1      28.897  17.840   5.093  0.00  0.00     0.197 A 
HETATM   16  C   UNK N   1      30.495  16.940   8.434  0.00  0.00     0.088 A 
HETATM   17  C   UNK N   1      30.679  16.196   5.739  0.00  0.00     0.090 A 
HETATM   18  C   UNK N   1      33.246  14.228   8.696  0.00  0.00     0.127 C 
HETATM   19  O   UNK N   1      28.670  19.064   9.012  0.00  0.00    -0.286 OA
HETATM   20  O   UNK N   1      28.922  17.472   3.928  0.00  0.00    -0.286 OA
ENDROOT
BRANCH  10  21
HETATM   21  O   UNK N   1      31.864  13.291   5.856  0.00  0.00    -0.351 OA
BRANCH  21  22
HETATM   22  C   UNK N   1      32.542  12.580   4.808  0.00  0.00     0.263 C 
HETATM   23  C   UNK N   1      32.621  13.420   3.514  0.00  0.00     0.095 C 
HETATM   24  C   UNK N   1      31.411  13.247   2.592  0.00  0.00     0.154 C 
HETATM   25  C   UNK N   1      30.248  12.704   3.430  0.00  0.00     0.182 C 
HETATM   26  C   UNK N   1      30.680  11.314   3.962  0.00  0.00     0.152 C 
HETATM   27  C   UNK N   1      29.656  10.761   4.937  0.00  0.00     0.042 C 
HETATM   28  O   UNK N   1      31.984  11.291   4.551  0.00  0.00    -0.354 OA
BRANCH  24  29
HETATM   29  O   UNK N   1      31.731  12.360   1.559  0.00  0.00    -0.393 OA
HETATM   30  H   UNK N   1      31.336  11.512   1.300  0.00  0.00     0.210 HD
ENDBRANCH  24  29
BRANCH  25  31
HETATM   31  O   UNK N   1      29.031  12.628   2.701  0.00  0.00    -0.351 OA
BRANCH  31  32
HETATM   32  C   UNK N   1      28.296  13.845   2.841  0.00  0.00     0.262 C 
HETATM   33  C   UNK N   1      27.835  14.117   4.291  0.00  0.00     0.088 C 
HETATM   34  C   UNK N   1      26.782  13.113   4.714  0.00  0.00     0.110 C 
HETATM   35  C   UNK N   1      25.640  13.202   3.708  0.00  0.00     0.169 C 
HETATM   36  C   UNK N   1      26.201  12.926   2.297  0.00  0.00     0.151 C 
HETATM   37  C   UNK N   1      25.081  13.032   1.277  0.00  0.00     0.042 C 
HETATM   38  O   UNK N   1      27.199  13.870   1.943  0.00  0.00    -0.354 OA
BRANCH  34  39
HETATM   39  N   UNK N   1      26.315  13.438   6.051  0.00  0.00    -0.423 N 
HETATM   40  H   UNK N   1      25.460  13.975   6.192  0.00  0.00     0.150 HD
HETATM   41  H   UNK N   1      26.850  13.124   6.860  0.00  0.00     0.150 HD
ENDBRANCH  34  39
BRANCH  35  42
HETATM   42  O   UNK N   1      24.649  12.272   4.032  0.00  0.00    -0.391 OA
HETATM   43  H   UNK N   1      24.575  11.344   4.307  0.00  0.00     0.210 HD
ENDBRANCH  35  42
ENDBRANCH  31  32
ENDBRANCH  25  31
ENDBRANCH  21  22
ENDBRANCH  10  21
BRANCH  18  44
HETATM   44  C   UNK N   1      34.516  14.442   9.499  0.00  0.00     0.184 C 
HETATM   45  O   UNK N   1      35.610  14.286   8.981  0.00  0.00    -0.292 OA
BRANCH  44  46
HETATM   46  C   UNK N   1      34.452  14.885  10.938  0.00  0.00     0.245 C 
BRANCH  46  47
HETATM   47  O   UNK N   1      34.188  13.808  11.786  0.00  0.00    -0.393 OA
HETATM   48  H   UNK N   1      34.875  13.485  12.389  0.00  0.00     0.209 HD
ENDBRANCH  46  47
ENDBRANCH  44  46
ENDBRANCH  18  44
BRANCH  18  49
HETATM   49  O   UNK N   1      32.688  12.977   8.972  0.00  0.00    -0.382 OA
HETATM   50  H   UNK N   1      32.290  12.145   8.673  0.00  0.00     0.211 HD
ENDBRANCH  18  49
BRANCH  17  51
HETATM   51  O   UNK N   1      30.820  15.899   4.439  0.00  0.00    -0.359 OA
HETATM   52  H   UNK N   1      31.196  15.126   4.069  0.00  0.00     0.217 HD
ENDBRANCH  17  51
BRANCH  16  53
HETATM   53  O   UNK N   1      30.433  17.303   9.729  0.00  0.00    -0.359 OA
HETATM   54  H   UNK N   1      30.963  17.959  10.135  0.00  0.00     0.217 HD
ENDBRANCH  16  53
TORSDOF 13
ENDMDL
MODEL 4
REMARK VINA RESULT:      -8.2      6.333     10.897
REMARK  13 active torsions:
REMARK  status: ('A' for Active; 'I' for Inactive)
REMARK    1  A    between atoms: C_20  and  C_11 
REMARK    2  A    between atoms: O_34  and  C_11 
REMARK    3  A    between atoms: C_17  and  N_33 
REMARK    4  A    between atoms: C_18  and  O_35 
REMARK    5  A    between atoms: C_19  and  O_45 
REMARK    6  A    between atoms: C_32  and  C_20 
REMARK    7  A    between atoms: C_21  and  O_46 
REMARK    8  A    between atoms: C_22  and  O_45 
REMARK    9  A    between atoms: C_26  and  O_37 
REMARK   10  A    between atoms: O_40  and  C_29 
REMARK   11  A    between atoms: O_41  and  C_30 
REMARK   12  A    between atoms: C_31  and  O_46 
REMARK   13  A    between atoms: C_32  and  O_42 
ROOT
HETATM    1  C   UNK N   1      26.415  20.260   5.402  0.00  0.00     0.001 A 
HETATM    2  C   UNK N   1      26.902  19.899   4.145  0.00  0.00     0.001 A 
HETATM    3  C   UNK N   1      27.013  19.751   6.559  0.00  0.00     0.016 A 
HETATM    4  C   UNK N   1      27.991  19.035   4.043  0.00  0.00     0.016 A 
HETATM    5  C   UNK N   1      32.396  15.659   9.873  0.00  0.00     0.088 C 
HETATM    6  C   UNK N   1      34.370  14.996   8.418  0.00  0.00     0.083 C 
HETATM    7  C   UNK N   1      28.108  18.878   6.465  0.00  0.00     0.029 A 
HETATM    8  C   UNK N   1      28.599  18.526   5.199  0.00  0.00     0.029 A 
HETATM    9  C   UNK N   1      31.729  16.131   8.608  0.00  0.00    -0.009 A 
HETATM   10  C   UNK N   1      33.512  15.024   7.150  0.00  0.00     0.164 C 
HETATM   11  C   UNK N   1      32.242  15.829   7.330  0.00  0.00     0.014 A 
HETATM   12  C   UNK N   1      29.933  17.440   7.582  0.00  0.00     0.066 A 
HETATM   13  C   UNK N   1      30.438  17.118   6.306  0.00  0.00     0.066 A 
HETATM   14  C   UNK N   1      28.741  18.337   7.691  0.00  0.00     0.197 A 
HETATM   15  C   UNK N   1      29.760  17.632   5.078  0.00  0.00     0.197 A 
HETATM   16  C   UNK N   1      30.584  16.936   8.733  0.00  0.00     0.088 A 
HETATM   17  C   UNK N   1      31.597  16.336   6.190  0.00  0.00     0.090 A 
HETATM   18  C   UNK N   1      33.645  14.790   9.744  0.00  0.00     0.127 C 
HETATM   19  O   UNK N   1      28.298  18.652   8.784  0.00  0.00    -0.286 OA
HETATM   20  O   UNK N   1      30.155  17.317   3.966  0.00  0.00    -0.286 OA
ENDROOT
BRANCH  10  21
HETATM   21  O   UNK N   1      33.250  13.707   6.657  0.00  0.00    -0.351 OA
BRANCH  21  22
HETATM   22  C   UNK N   1      34.413  13.036   6.147  0.00  0.00     0.263 C 
HETATM   23  C   UNK N   1      34.873  13.642   4.803  0.00  0.00     0.095 C 
HETATM   24  C   UNK N   1      34.203  13.011   3.581  0.00  0.00     0.154 C 
HETATM   25  C   UNK N   1      32.911  12.329   4.044  0.00  0.00     0.182 C 
HETATM   26  C   UNK N   1      33.318  11.207   5.032  0.00  0.00     0.152 C 
HETATM   27  C   UNK N   1      32.095  10.573   5.672  0.00  0.00     0.042 C 
HETATM   28  O   UNK N   1      34.243  11.621   6.042  0.00  0.00    -0.354 OA
BRANCH  24  29
HETATM   29  O   UNK N   1      35.070  12.081   2.998  0.00  0.00    -0.393 OA
HETATM   30  H   UNK N   1      36.038  12.017   3.006  0.00  0.00     0.210 HD
ENDBRANCH  24  29
BRANCH  25  31
HETATM   31  O   UNK N   1      32.138  11.820   2.967  0.00  0.00    -0.351 OA
BRANCH  31  32
HETATM   32  C   UNK N   1      31.744  12.882   2.097  0.00  0.00     0.262 C 
HETATM   33  C   UNK N   1      30.894  13.964   2.801  0.00  0.00     0.088 C 
HETATM   34  C   UNK N   1      29.537  13.410   3.188  0.00  0.00     0.110 C 
HETATM   35  C   UNK N   1      28.882  12.885   1.914  0.00  0.00     0.169 C 
HETATM   36  C   UNK N   1      29.808  11.823   1.284  0.00  0.00     0.151 C 
HETATM   37  C   UNK N   1      29.183  11.303   0.001  0.00  0.00     0.042 C 
HETATM   38  O   UNK N   1      31.075  12.369   0.956  0.00  0.00    -0.354 OA
BRANCH  34  39
HETATM   39  N   UNK N   1      28.735  14.468   3.779  0.00  0.00    -0.423 N 
HETATM   40  H   UNK N   1      27.966  14.894   3.262  0.00  0.00     0.150 HD
HETATM   41  H   UNK N   1      28.944  14.789   4.723  0.00  0.00     0.150 HD
ENDBRANCH  34  39
BRANCH  35  42
HETATM   42  O   UNK N   1      27.635  12.332   2.216  0.00  0.00    -0.391 OA
HETATM   43  H   UNK N   1      26.947  12.401   2.895  0.00  0.00     0.210 HD
ENDBRANCH  35  42
ENDBRANCH  31  32
ENDBRANCH  25  31
ENDBRANCH  21  22
ENDBRANCH  10  21
BRANCH  18  44
HETATM   44  C   UNK N   1      34.598  15.213  10.845  0.00  0.00     0.184 C 
HETATM   45  O   UNK N   1      34.675  14.570  11.880  0.00  0.00    -0.292 OA
BRANCH  44  46
HETATM   46  C   UNK N   1      35.495  16.412  10.669  0.00  0.00     0.245 C 
BRANCH  46  47
HETATM   47  O   UNK N   1      36.830  16.083  10.910  0.00  0.00    -0.393 OA
HETATM   48  H   UNK N   1      37.342  15.608  10.237  0.00  0.00     0.209 HD
ENDBRANCH  46  47
ENDBRANCH  44  46
ENDBRANCH  18  44
BRANCH  18  49
HETATM   49  O   UNK N   1      33.287  13.447   9.884  0.00  0.00    -0.382 OA
HETATM   50  H   UNK N   1      33.529  12.515   9.998  0.00  0.00     0.211 HD
ENDBRANCH  18  49
BRANCH  17  51
HETATM   51  O   UNK N   1      32.123  16.118   4.977  0.00  0.00    -0.359 OA
HETATM   52  H   UNK N   1      31.807  16.432   4.154  0.00  0.00     0.217 HD
ENDBRANCH  17  51
BRANCH  16  53
HETATM   53  O   UNK N   1      30.121  17.234   9.962  0.00  0.00    -0.359 OA
HETATM   54  H   UNK N   1      29.487  16.737  10.438  0.00  0.00     0.217 HD
ENDBRANCH  16  53
TORSDOF 13
ENDMDL
MODEL 5
REMARK VINA RESULT:      -8.1      6.423     11.063
REMARK  13 active torsions:
REMARK  status: ('A' for Active; 'I' for Inactive)
REMARK    1  A    between atoms: C_20  and  C_11 
REMARK    2  A    between atoms: O_34  and  C_11 
REMARK    3  A    between atoms: C_17  and  N_33 
REMARK    4  A    between atoms: C_18  and  O_35 
REMARK    5  A    between atoms: C_19  and  O_45 
REMARK    6  A    between atoms: C_32  and  C_20 
REMARK    7  A    between atoms: C_21  and  O_46 
REMARK    8  A    between atoms: C_22  and  O_45 
REMARK    9  A    between atoms: C_26  and  O_37 
REMARK   10  A    between atoms: O_40  and  C_29 
REMARK   11  A    between atoms: O_41  and  C_30 
REMARK   12  A    between atoms: C_31  and  O_46 
REMARK   13  A    between atoms: C_32  and  O_42 
ROOT
HETATM    1  C   UNK N   1      26.332  20.655   5.511  0.00  0.00     0.001 A 
HETATM    2  C   UNK N   1      26.508  20.083   4.250  0.00  0.00     0.001 A 
HETATM    3  C   UNK N   1      27.072  20.189   6.602  0.00  0.00     0.016 A 
HETATM    4  C   UNK N   1      27.428  19.051   4.077  0.00  0.00     0.016 A 
HETATM    5  C   UNK N   1      32.403  15.689   9.437  0.00  0.00     0.088 C 
HETATM    6  C   UNK N   1      33.944  14.563   7.759  0.00  0.00     0.083 C 
HETATM    7  C   UNK N   1      27.999  19.148   6.436  0.00  0.00     0.029 A 
HETATM    8  C   UNK N   1      28.179  18.583   5.165  0.00  0.00     0.029 A 
HETATM    9  C   UNK N   1      31.569  16.117   8.259  0.00  0.00    -0.009 A 
HETATM   10  C   UNK N   1      32.863  14.586   6.674  0.00  0.00     0.164 C 
HETATM   11  C   UNK N   1      31.774  15.597   6.965  0.00  0.00     0.014 A 
HETATM   12  C   UNK N   1      29.799  17.572   7.398  0.00  0.00     0.066 A 
HETATM   13  C   UNK N   1      29.993  17.034   6.110  0.00  0.00     0.066 A 
HETATM   14  C   UNK N   1      28.784  18.653   7.592  0.00  0.00     0.197 A 
HETATM   15  C   UNK N   1      29.161  17.509   4.964  0.00  0.00     0.197 A 
HETATM   16  C   UNK N   1      30.591  17.103   8.473  0.00  0.00     0.088 A 
HETATM   17  C   UNK N   1      30.991  16.070   5.899  0.00  0.00     0.090 A 
HETATM   18  C   UNK N   1      33.473  14.624   9.209  0.00  0.00     0.127 C 
HETATM   19  O   UNK N   1      28.612  19.154   8.693  0.00  0.00    -0.286 OA
HETATM   20  O   UNK N   1      29.282  17.013   3.854  0.00  0.00    -0.286 OA
ENDROOT
BRANCH  10  21
HETATM   21  O   UNK N   1      32.334  13.281   6.425  0.00  0.00    -0.351 OA
BRANCH  21  22
HETATM   22  C   UNK N   1      32.801  12.688   5.202  0.00  0.00     0.263 C 
HETATM   23  C   UNK N   1      31.851  11.572   4.714  0.00  0.00     0.095 C 
HETATM   24  C   UNK N   1      32.177  10.191   5.289  0.00  0.00     0.154 C 
HETATM   25  C   UNK N   1      33.010  10.388   6.559  0.00  0.00     0.182 C 
HETATM   26  C   UNK N   1      34.329  11.083   6.136  0.00  0.00     0.152 C 
HETATM   27  C   UNK N   1      35.158  11.466   7.349  0.00  0.00     0.042 C 
HETATM   28  O   UNK N   1      34.147  12.218   5.285  0.00  0.00    -0.354 OA
BRANCH  24  29
HETATM   29  O   UNK N   1      32.888   9.445   4.343  0.00  0.00    -0.393 OA
HETATM   30  H   UNK N   1      32.903   9.490   3.374  0.00  0.00     0.210 HD
ENDBRANCH  24  29
BRANCH  25  31
HETATM   31  O   UNK N   1      33.260   9.172   7.250  0.00  0.00    -0.351 OA
BRANCH  31  32
HETATM   32  C   UNK N   1      32.268   8.964   8.255  0.00  0.00     0.262 C 
HETATM   33  C   UNK N   1      32.313  10.016   9.386  0.00  0.00     0.088 C 
HETATM   34  C   UNK N   1      33.574   9.861  10.212  0.00  0.00     0.110 C 
HETATM   35  C   UNK N   1      33.596   8.430  10.740  0.00  0.00     0.169 C 
HETATM   36  C   UNK N   1      33.538   7.459   9.542  0.00  0.00     0.151 C 
HETATM   37  C   UNK N   1      33.537   6.028  10.048  0.00  0.00     0.042 C 
HETATM   38  O   UNK N   1      32.357   7.648   8.779  0.00  0.00    -0.354 OA
BRANCH  34  39
HETATM   39  N   UNK N   1      33.554  10.812  11.309  0.00  0.00    -0.423 N 
HETATM   40  H   UNK N   1      33.569  11.817  11.133  0.00  0.00     0.150 HD
HETATM   41  H   UNK N   1      33.524  10.471  12.269  0.00  0.00     0.150 HD
ENDBRANCH  34  39
BRANCH  35  42
HETATM   42  O   UNK N   1      34.758   8.218  11.486  0.00  0.00    -0.391 OA
HETATM   43  H   UNK N   1      35.539   7.642  11.481  0.00  0.00     0.210 HD
ENDBRANCH  35  42
ENDBRANCH  31  32
ENDBRANCH  25  31
ENDBRANCH  21  22
ENDBRANCH  10  21
BRANCH  18  44
HETATM   44  C   UNK N   1      34.674  15.010  10.052  0.00  0.00     0.184 C 
HETATM   45  O   UNK N   1      35.226  16.087   9.888  0.00  0.00    -0.292 OA
BRANCH  44  46
HETATM   46  C   UNK N   1      35.186  14.090  11.130  0.00  0.00     0.245 C 
BRANCH  46  47
HETATM   47  O   UNK N   1      34.188  13.801  12.063  0.00  0.00    -0.393 OA
HETATM   48  H   UNK N   1      33.788  12.918  12.088  0.00  0.00     0.209 HD
ENDBRANCH  46  47
ENDBRANCH  44  46
ENDBRANCH  18  44
BRANCH  18  49
HETATM   49  O   UNK N   1      32.973  13.379   9.598  0.00  0.00    -0.382 OA
HETATM   50  H   UNK N   1      32.796  12.443   9.412  0.00  0.00     0.211 HD
ENDBRANCH  18  49
BRANCH  17  51
HETATM   51  O   UNK N   1      31.232  15.637   4.654  0.00  0.00    -0.359 OA
HETATM   52  H   UNK N   1      31.865  15.001   4.384  0.00  0.00     0.217 HD
ENDBRANCH  17  51
BRANCH  16  53
HETATM   53  O   UNK N   1      30.425  17.605   9.711  0.00  0.00    -0.359 OA
HETATM   54  H   UNK N   1      31.098  17.993  10.234  0.00  0.00     0.217 HD
ENDBRANCH  16  53
TORSDOF 13
ENDMDL
MODEL 6
REMARK VINA RESULT:      -8.0      6.725     12.253
REMARK  13 active torsions:
REMARK  status: ('A' for Active; 'I' for Inactive)
REMARK    1  A    between atoms: C_20  and  C_11 
REMARK    2  A    between atoms: O_34  and  C_11 
REMARK    3  A    between atoms: C_17  and  N_33 
REMARK    4  A    between atoms: C_18  and  O_35 
REMARK    5  A    between atoms: C_19  and  O_45 
REMARK    6  A    between atoms: C_32  and  C_20 
REMARK    7  A    between atoms: C_21  and  O_46 
REMARK    8  A    between atoms: C_22  and  O_45 
REMARK    9  A    between atoms: C_26  and  O_37 
REMARK   10  A    between atoms: O_40  and  C_29 
REMARK   11  A    between atoms: O_41  and  C_30 
REMARK   12  A    between atoms: C_31  and  O_46 
REMARK   13  A    between atoms: C_32  and  O_42 
ROOT
HETATM    1  C   UNK N   1      35.304  12.115  17.650  0.00  0.00     0.001 A 
HETATM    2  C   UNK N   1      35.918  13.352  17.453  0.00  0.00     0.001 A 
HETATM    3  C   UNK N   1      34.816  11.392  16.557  0.00  0.00     0.016 A 
HETATM    4  C   UNK N   1      36.052  13.865  16.164  0.00  0.00     0.016 A 
HETATM    5  C   UNK N   1      33.905  10.610   9.123  0.00  0.00     0.088 C 
HETATM    6  C   UNK N   1      35.309  12.127   7.645  0.00  0.00     0.083 C 
HETATM    7  C   UNK N   1      34.945  11.903  15.256  0.00  0.00     0.029 A 
HETATM    8  C   UNK N   1      35.571  13.143  15.063  0.00  0.00     0.029 A 
HETATM    9  C   UNK N   1      34.374  11.447  10.284  0.00  0.00    -0.009 A 
HETATM   10  C   UNK N   1      35.369  13.210   8.726  0.00  0.00     0.164 C 
HETATM   11  C   UNK N   1      35.052  12.669  10.104  0.00  0.00     0.014 A 
HETATM   12  C   UNK N   1      34.606  11.670  12.711  0.00  0.00     0.066 A 
HETATM   13  C   UNK N   1      35.265  12.902  12.526  0.00  0.00     0.066 A 
HETATM   14  C   UNK N   1      34.427  11.137  14.097  0.00  0.00     0.197 A 
HETATM   15  C   UNK N   1      35.738  13.686  13.707  0.00  0.00     0.197 A 
HETATM   16  C   UNK N   1      34.156  10.947  11.579  0.00  0.00     0.088 A 
HETATM   17  C   UNK N   1      35.501  13.381  11.228  0.00  0.00     0.090 A 
HETATM   18  C   UNK N   1      34.145  11.143   7.712  0.00  0.00     0.127 C 
HETATM   19  O   UNK N   1      33.882  10.061  14.283  0.00  0.00    -0.286 OA
HETATM   20  O   UNK N   1      36.262  14.780  13.564  0.00  0.00    -0.286 OA
ENDROOT
BRANCH  10  21
HETATM   21  O   UNK N   1      34.559  14.341   8.391  0.00  0.00    -0.351 OA
BRANCH  21  22
HETATM   22  C   UNK N   1      35.313  15.511   8.039  0.00  0.00     0.263 C 
HETATM   23  C   UNK N   1      34.838  16.750   8.829  0.00  0.00     0.095 C 
HETATM   24  C   UNK N   1      33.695  17.511   8.152  0.00  0.00     0.154 C 
HETATM   25  C   UNK N   1      33.009  16.562   7.164  0.00  0.00     0.182 C 
HETATM   26  C   UNK N   1      34.064  16.178   6.095  0.00  0.00     0.152 C 
HETATM   27  C   UNK N   1      33.526  15.112   5.157  0.00  0.00     0.042 C 
HETATM   28  O   UNK N   1      35.324  15.770   6.634  0.00  0.00    -0.354 OA
BRANCH  24  29
HETATM   29  O   UNK N   1      34.206  18.631   7.486  0.00  0.00    -0.393 OA
HETATM   30  H   UNK N   1      33.952  19.046   6.647  0.00  0.00     0.210 HD
ENDBRANCH  24  29
BRANCH  25  31
HETATM   31  O   UNK N   1      31.848  17.125   6.572  0.00  0.00    -0.351 OA
BRANCH  31  32
HETATM   32  C   UNK N   1      30.688  16.394   6.970  0.00  0.00     0.262 C 
HETATM   33  C   UNK N   1      29.522  16.499   5.961  0.00  0.00     0.088 C 
HETATM   34  C   UNK N   1      28.962  17.907   5.936  0.00  0.00     0.110 C 
HETATM   35  C   UNK N   1      28.538  18.251   7.361  0.00  0.00     0.169 C 
HETATM   36  C   UNK N   1      29.762  18.107   8.289  0.00  0.00     0.151 C 
HETATM   37  C   UNK N   1      29.355  18.424   9.717  0.00  0.00     0.042 C 
HETATM   38  O   UNK N   1      30.274  16.784   8.270  0.00  0.00    -0.354 OA
BRANCH  34  39
HETATM   39  N   UNK N   1      27.823  17.958   5.036  0.00  0.00    -0.423 N 
HETATM   40  H   UNK N   1      27.463  17.111   4.596  0.00  0.00     0.150 HD
HETATM   41  H   UNK N   1      27.378  18.854   4.840  0.00  0.00     0.150 HD
ENDBRANCH  34  39
BRANCH  35  42
HETATM   42  O   UNK N   1      28.040  19.556   7.405  0.00  0.00    -0.391 OA
HETATM   43  H   UNK N   1      27.711  20.237   6.798  0.00  0.00     0.210 HD
ENDBRANCH  35  42
ENDBRANCH  31  32
ENDBRANCH  25  31
ENDBRANCH  21  22
ENDBRANCH  10  21
BRANCH  18  44
HETATM   44  C   UNK N   1      34.514   9.956   6.843  0.00  0.00     0.184 C 
HETATM   45  O   UNK N   1      34.552   8.831   7.315  0.00  0.00    -0.292 OA
BRANCH  44  46
HETATM   46  C   UNK N   1      34.804  10.136   5.375  0.00  0.00     0.245 C 
BRANCH  46  47
HETATM   47  O   UNK N   1      33.760  10.805   4.733  0.00  0.00    -0.393 OA
HETATM   48  H   UNK N   1      33.079  10.302   4.260  0.00  0.00     0.209 HD
ENDBRANCH  46  47
ENDBRANCH  44  46
ENDBRANCH  18  44
BRANCH  18  49
HETATM   49  O   UNK N   1      32.978  11.756   7.248  0.00  0.00    -0.382 OA
HETATM   50  H   UNK N   1      32.530  12.491   6.801  0.00  0.00     0.211 HD
ENDBRANCH  18  49
BRANCH  17  51
HETATM   51  O   UNK N   1      36.214  14.504  11.063  0.00  0.00    -0.359 OA
HETATM   52  H   UNK N   1      35.967  15.376  11.300  0.00  0.00     0.217 HD
ENDBRANCH  17  51
BRANCH  16  53
HETATM   53  O   UNK N   1      33.528   9.766  11.732  0.00  0.00    -0.359 OA
HETATM   54  H   UNK N   1      33.945   8.952  11.932  0.00  0.00     0.217 HD
ENDBRANCH  16  53
TORSDOF 13
ENDMDL
MODEL 7
REMARK VINA RESULT:      -7.9      9.602     14.616
REMARK  13 active torsions:
REMARK  status: ('A' for Active; 'I' for Inactive)
REMARK    1  A    between atoms: C_20  and  C_11 
REMARK    2  A    between atoms: O_34  and  C_11 
REMARK    3  A    between atoms: C_17  and  N_33 
REMARK    4  A    between atoms: C_18  and  O_35 
REMARK    5  A    between atoms: C_19  and  O_45 
REMARK    6  A    between atoms: C_32  and  C_20 
REMARK    7  A    between atoms: C_21  and  O_46 
REMARK    8  A    between atoms: C_22  and  O_45 
REMARK    9  A    between atoms: C_26  and  O_37 
REMARK   10  A    between atoms: O_40  and  C_29 
REMARK   11  A    between atoms: O_41  and  C_30 
REMARK   12  A    between atoms: C_31  and  O_46 
REMARK   13  A    between atoms: C_32  and  O_42 
ROOT
HETATM    1  C   UNK N   1      35.650  10.622  18.371  0.00  0.00     0.001 A 
HETATM    2  C   UNK N   1      35.313  11.976  18.395  0.00  0.00     0.001 A 
HETATM    3  C   UNK N   1      36.141  10.043  17.197  0.00  0.00     0.016 A 
HETATM    4  C   UNK N   1      35.473  12.754  17.250  0.00  0.00     0.016 A 
HETATM    5  C   UNK N   1      38.392  10.686  10.039  0.00  0.00     0.088 C 
HETATM    6  C   UNK N   1      38.814  13.044   9.194  0.00  0.00     0.083 C 
HETATM    7  C   UNK N   1      36.303  10.819  16.038  0.00  0.00     0.029 A 
HETATM    8  C   UNK N   1      35.972  12.181  16.071  0.00  0.00     0.029 A 
HETATM    9  C   UNK N   1      37.791  11.322  11.264  0.00  0.00    -0.009 A 
HETATM   10  C   UNK N   1      37.797  13.634  10.176  0.00  0.00     0.164 C 
HETATM   11  C   UNK N   1      37.502  12.701  11.330  0.00  0.00     0.014 A 
HETATM   12  C   UNK N   1      37.032  11.049  13.576  0.00  0.00     0.066 A 
HETATM   13  C   UNK N   1      36.726  12.423  13.630  0.00  0.00     0.066 A 
HETATM   14  C   UNK N   1      36.824  10.205  14.794  0.00  0.00     0.197 A 
HETATM   15  C   UNK N   1      36.156  13.017  14.877  0.00  0.00     0.197 A 
HETATM   16  C   UNK N   1      37.562  10.502  12.383  0.00  0.00     0.088 A 
HETATM   17  C   UNK N   1      36.982  13.240  12.518  0.00  0.00     0.090 A 
HETATM   18  C   UNK N   1      38.650  11.574   8.824  0.00  0.00     0.127 C 
HETATM   19  O   UNK N   1      37.105   9.017  14.782  0.00  0.00    -0.286 OA
HETATM   20  O   UNK N   1      35.836  14.195  14.920  0.00  0.00    -0.286 OA
ENDROOT
BRANCH  10  21
HETATM   21  O   UNK N   1      36.605  14.064   9.512  0.00  0.00    -0.351 OA
BRANCH  21  22
HETATM   22  C   UNK N   1      35.396  13.572  10.112  0.00  0.00     0.263 C 
HETATM   23  C   UNK N   1      34.590  12.698   9.126  0.00  0.00     0.095 C 
HETATM   24  C   UNK N   1      33.613  13.492   8.256  0.00  0.00     0.154 C 
HETATM   25  C   UNK N   1      34.069  14.954   8.240  0.00  0.00     0.182 C 
HETATM   26  C   UNK N   1      33.984  15.474   9.698  0.00  0.00     0.152 C 
HETATM   27  C   UNK N   1      34.567  16.871   9.814  0.00  0.00     0.042 C 
HETATM   28  O   UNK N   1      34.583  14.607  10.665  0.00  0.00    -0.354 OA
BRANCH  24  29
HETATM   29  O   UNK N   1      32.321  13.384   8.781  0.00  0.00    -0.393 OA
HETATM   30  H   UNK N   1      31.869  12.645   9.219  0.00  0.00     0.210 HD
ENDBRANCH  24  29
BRANCH  25  31
HETATM   31  O   UNK N   1      33.307  15.761   7.353  0.00  0.00    -0.351 OA
BRANCH  31  32
HETATM   32  C   UNK N   1      34.173  16.491   6.484  0.00  0.00     0.262 C 
HETATM   33  C   UNK N   1      33.438  17.562   5.647  0.00  0.00     0.088 C 
HETATM   34  C   UNK N   1      32.519  16.911   4.633  0.00  0.00     0.110 C 
HETATM   35  C   UNK N   1      33.375  15.982   3.777  0.00  0.00     0.169 C 
HETATM   36  C   UNK N   1      34.072  14.961   4.701  0.00  0.00     0.151 C 
HETATM   37  C   UNK N   1      34.948  14.040   3.869  0.00  0.00     0.042 C 
HETATM   38  O   UNK N   1      34.905  15.606   5.651  0.00  0.00    -0.354 OA
BRANCH  34  39
HETATM   39  N   UNK N   1      31.899  17.937   3.813  0.00  0.00    -0.423 N 
HETATM   40  H   UNK N   1      32.090  17.997   2.813  0.00  0.00     0.150 HD
HETATM   41  H   UNK N   1      31.264  18.609   4.244  0.00  0.00     0.150 HD
ENDBRANCH  34  39
BRANCH  35  42
HETATM   42  O   UNK N   1      32.572  15.327   2.840  0.00  0.00    -0.391 OA
HETATM   43  H   UNK N   1      31.920  15.542   2.155  0.00  0.00     0.210 HD
ENDBRANCH  35  42
ENDBRANCH  31  32
ENDBRANCH  25  31
ENDBRANCH  21  22
ENDBRANCH  10  21
BRANCH  18  44
HETATM   44  C   UNK N   1      39.960  11.119   8.210  0.00  0.00     0.184 C 
HETATM   45  O   UNK N   1      40.952  10.968   8.906  0.00  0.00    -0.292 OA
BRANCH  44  46
HETATM   46  C   UNK N   1      40.055  10.811   6.737  0.00  0.00     0.245 C 
BRANCH  46  47
HETATM   47  O   UNK N   1      39.716  11.925   5.966  0.00  0.00    -0.393 OA
HETATM   48  H   UNK N   1      39.777  12.815   6.346  0.00  0.00     0.209 HD
ENDBRANCH  46  47
ENDBRANCH  44  46
ENDBRANCH  18  44
BRANCH  18  49
HETATM   49  O   UNK N   1      37.598  11.427   7.916  0.00  0.00    -0.382 OA
HETATM   50  H   UNK N   1      37.194  10.982   7.155  0.00  0.00     0.211 HD
ENDBRANCH  18  49
BRANCH  17  51
HETATM   51  O   UNK N   1      36.778  14.562  12.614  0.00  0.00    -0.359 OA
HETATM   52  H   UNK N   1      37.021  15.222  11.997  0.00  0.00     0.217 HD
ENDBRANCH  17  51
BRANCH  16  53
HETATM   53  O   UNK N   1      37.866   9.192  12.310  0.00  0.00    -0.359 OA
HETATM   54  H   UNK N   1      37.510   8.521  12.857  0.00  0.00     0.217 HD
ENDBRANCH  16  53
TORSDOF 13
ENDMDL
MODEL 8
REMARK VINA RESULT:      -7.8      5.876      8.752
REMARK  13 active torsions:
REMARK  status: ('A' for Active; 'I' for Inactive)
REMARK    1  A    between atoms: C_20  and  C_11 
REMARK    2  A    between atoms: O_34  and  C_11 
REMARK    3  A    between atoms: C_17  and  N_33 
REMARK    4  A    between atoms: C_18  and  O_35 
REMARK    5  A    between atoms: C_19  and  O_45 
REMARK    6  A    between atoms: C_32  and  C_20 
REMARK    7  A    between atoms: C_21  and  O_46 
REMARK    8  A    between atoms: C_22  and  O_45 
REMARK    9  A    between atoms: C_26  and  O_37 
REMARK   10  A    between atoms: O_40  and  C_29 
REMARK   11  A    between atoms: O_41  and  C_30 
REMARK   12  A    between atoms: C_31  and  O_46 
REMARK   13  A    between atoms: C_32  and  O_42 
ROOT
HETATM    1  C   UNK N   1      26.741   9.610   0.548  0.00  0.00     0.001 A 
HETATM    2  C   UNK N   1      28.002   9.710  -0.041  0.00  0.00     0.001 A 
HETATM    3  C   UNK N   1      26.397  10.447   1.615  0.00  0.00     0.016 A 
HETATM    4  C   UNK N   1      28.917  10.651   0.428  0.00  0.00     0.016 A 
HETATM    5  C   UNK N   1      28.069  16.134   6.259  0.00  0.00     0.088 C 
HETATM    6  C   UNK N   1      30.053  17.581   5.608  0.00  0.00     0.083 C 
HETATM    7  C   UNK N   1      27.314  11.395   2.095  0.00  0.00     0.029 A 
HETATM    8  C   UNK N   1      28.576  11.498   1.492  0.00  0.00     0.029 A 
HETATM    9  C   UNK N   1      28.497  15.198   5.160  0.00  0.00    -0.009 A 
HETATM   10  C   UNK N   1      30.720  16.421   4.863  0.00  0.00     0.164 C 
HETATM   11  C   UNK N   1      29.741  15.323   4.509  0.00  0.00     0.014 A 
HETATM   12  C   UNK N   1      27.918  13.317   3.703  0.00  0.00     0.066 A 
HETATM   13  C   UNK N   1      29.171  13.432   3.070  0.00  0.00     0.066 A 
HETATM   14  C   UNK N   1      26.950  12.282   3.225  0.00  0.00     0.197 A 
HETATM   15  C   UNK N   1      29.543  12.499   1.964  0.00  0.00     0.197 A 
HETATM   16  C   UNK N   1      27.588  14.205   4.756  0.00  0.00     0.088 A 
HETATM   17  C   UNK N   1      30.062  14.444   3.461  0.00  0.00     0.090 A 
HETATM   18  C   UNK N   1      29.048  17.220   6.697  0.00  0.00     0.127 C 
HETATM   19  O   UNK N   1      25.848  12.177   3.740  0.00  0.00    -0.286 OA
HETATM   20  O   UNK N   1      30.647  12.553   1.443  0.00  0.00    -0.286 OA
ENDROOT
BRANCH  10  21
HETATM   21  O   UNK N   1      31.858  15.921   5.571  0.00  0.00    -0.351 OA
BRANCH  21  22
HETATM   22  C   UNK N   1      33.117  16.320   5.004  0.00  0.00     0.263 C 
HETATM   23  C   UNK N   1      34.075  15.118   4.849  0.00  0.00     0.095 C 
HETATM   24  C   UNK N   1      34.932  14.849   6.088  0.00  0.00     0.154 C 
HETATM   25  C   UNK N   1      34.248  15.505   7.292  0.00  0.00     0.182 C 
HETATM   26  C   UNK N   1      34.216  17.031   7.022  0.00  0.00     0.152 C 
HETATM   27  C   UNK N   1      33.414  17.757   8.087  0.00  0.00     0.042 C 
HETATM   28  O   UNK N   1      33.741  17.387   5.720  0.00  0.00    -0.354 OA
BRANCH  24  29
HETATM   29  O   UNK N   1      36.212  15.380   5.898  0.00  0.00    -0.393 OA
HETATM   30  H   UNK N   1      37.001  15.007   5.475  0.00  0.00     0.210 HD
ENDBRANCH  24  29
BRANCH  25  31
HETATM   31  O   UNK N   1      34.891  15.207   8.523  0.00  0.00    -0.351 OA
BRANCH  31  32
HETATM   32  C   UNK N   1      35.198  13.814   8.594  0.00  0.00     0.262 C 
HETATM   33  C   UNK N   1      34.532  13.102   9.793  0.00  0.00     0.088 C 
HETATM   34  C   UNK N   1      35.131  13.581  11.100  0.00  0.00     0.110 C 
HETATM   35  C   UNK N   1      36.634  13.328  11.028  0.00  0.00     0.169 C 
HETATM   36  C   UNK N   1      37.201  14.069   9.799  0.00  0.00     0.151 C 
HETATM   37  C   UNK N   1      38.695  13.812   9.696  0.00  0.00     0.042 C 
HETATM   38  O   UNK N   1      36.602  13.613   8.597  0.00  0.00    -0.354 OA
BRANCH  34  39
HETATM   39  N   UNK N   1      34.540  12.842  12.202  0.00  0.00    -0.423 N 
HETATM   40  H   UNK N   1      33.677  13.160  12.644  0.00  0.00     0.150 HD
HETATM   41  H   UNK N   1      34.994  11.994  12.539  0.00  0.00     0.150 HD
ENDBRANCH  34  39
BRANCH  35  42
HETATM   42  O   UNK N   1      37.248  13.781  12.199  0.00  0.00    -0.391 OA
HETATM   43  H   UNK N   1      38.025  13.582  12.744  0.00  0.00     0.210 HD
ENDBRANCH  35  42
ENDBRANCH  31  32
ENDBRANCH  25  31
ENDBRANCH  21  22
ENDBRANCH  10  21
BRANCH  18  44
HETATM   44  C   UNK N   1      28.233  18.467   6.983  0.00  0.00     0.184 C 
HETATM   45  O   UNK N   1      27.605  19.015   6.091  0.00  0.00    -0.292 OA
BRANCH  44  46
HETATM   46  C   UNK N   1      28.153  19.033   8.378  0.00  0.00     0.245 C 
BRANCH  46  47
HETATM   47  O   UNK N   1      27.493  18.155   9.240  0.00  0.00    -0.393 OA
HETATM   48  H   UNK N   1      27.381  18.386  10.176  0.00  0.00     0.209 HD
ENDBRANCH  46  47
ENDBRANCH  44  46
ENDBRANCH  18  44
BRANCH  18  49
HETATM   49  O   UNK N   1      29.724  16.795   7.844  0.00  0.00    -0.382 OA
HETATM   50  H   UNK N   1      30.271  16.143   8.310  0.00  0.00     0.211 HD
ENDBRANCH  18  49
BRANCH  17  51
HETATM   51  O   UNK N   1      31.209  14.605   2.787  0.00  0.00    -0.359 OA
HETATM   52  H   UNK N   1      31.358  14.463   1.873  0.00  0.00     0.217 HD
ENDBRANCH  17  51
BRANCH  16  53
HETATM   53  O   UNK N   1      26.395  14.116   5.373  0.00  0.00    -0.359 OA
HETATM   54  H   UNK N   1      26.002  13.324   5.682  0.00  0.00     0.217 HD
ENDBRANCH  16  53
TORSDOF 13
ENDMDL
MODEL 9
REMARK VINA RESULT:      -7.8      8.418     14.429
REMARK  13 active torsions:
REMARK  status: ('A' for Active; 'I' for Inactive)
REMARK    1  A    between atoms: C_20  and  C_11 
REMARK    2  A    between atoms: O_34  and  C_11 
REMARK    3  A    between atoms: C_17  and  N_33 
REMARK    4  A    between atoms: C_18  and  O_35 
REMARK    5  A    between atoms: C_19  and  O_45 
REMARK    6  A    between atoms: C_32  and  C_20 
REMARK    7  A    between atoms: C_21  and  O_46 
REMARK    8  A    between atoms: C_22  and  O_45 
REMARK    9  A    between atoms: C_26  and  O_37 
REMARK   10  A    between atoms: O_40  and  C_29 
REMARK   11  A    between atoms: O_41  and  C_30 
REMARK   12  A    between atoms: C_31  and  O_46 
REMARK   13  A    between atoms: C_32  and  O_42 
ROOT
HETATM    1  C   UNK N   1      34.801  10.978  19.969  0.00  0.00     0.001 A 
HETATM    2  C   UNK N   1      34.990  12.360  19.952  0.00  0.00     0.001 A 
HETATM    3  C   UNK N   1      34.952  10.235  18.794  0.00  0.00     0.016 A 
HETATM    4  C   UNK N   1      35.338  13.001  18.764  0.00  0.00     0.016 A 
HETATM    5  C   UNK N   1      36.725   9.856  11.485  0.00  0.00     0.088 C 
HETATM    6  C   UNK N   1      37.921  11.872  10.505  0.00  0.00     0.083 C 
HETATM    7  C   UNK N   1      35.300  10.872  17.593  0.00  0.00     0.029 A 
HETATM    8  C   UNK N   1      35.498  12.260  17.583  0.00  0.00     0.029 A 
HETATM    9  C   UNK N   1      36.497  10.694  12.715  0.00  0.00    -0.009 A 
HETATM   10  C   UNK N   1      37.272  12.816  11.522  0.00  0.00     0.164 C 
HETATM   11  C   UNK N   1      36.743  12.082  12.735  0.00  0.00     0.014 A 
HETATM   12  C   UNK N   1      35.871  10.767  15.081  0.00  0.00     0.066 A 
HETATM   13  C   UNK N   1      36.098  12.157  15.090  0.00  0.00     0.066 A 
HETATM   14  C   UNK N   1      35.460  10.085  16.347  0.00  0.00     0.197 A 
HETATM   15  C   UNK N   1      35.885  12.945  16.342  0.00  0.00     0.197 A 
HETATM   16  C   UNK N   1      36.068  10.039  13.883  0.00  0.00     0.088 A 
HETATM   17  C   UNK N   1      36.551  12.799  13.928  0.00  0.00     0.090 A 
HETATM   18  C   UNK N   1      37.198  10.561  10.216  0.00  0.00     0.127 C 
HETATM   19  O   UNK N   1      35.281   8.877  16.373  0.00  0.00    -0.286 OA
HETATM   20  O   UNK N   1      36.027  14.158  16.350  0.00  0.00    -0.286 OA
ENDROOT
BRANCH  10  21
HETATM   21  O   UNK N   1      36.276  13.645  10.916  0.00  0.00    -0.351 OA
BRANCH  21  22
HETATM   22  C   UNK N   1      36.796  14.855  10.344  0.00  0.00     0.263 C 
HETATM   23  C   UNK N   1      36.125  16.105  10.954  0.00  0.00     0.095 C 
HETATM   24  C   UNK N   1      34.847  16.534  10.230  0.00  0.00     0.154 C 
HETATM   25  C   UNK N   1      34.318  15.330   9.442  0.00  0.00     0.182 C 
HETATM   26  C   UNK N   1      35.397  14.966   8.391  0.00  0.00     0.152 C 
HETATM   27  C   UNK N   1      35.037  13.682   7.662  0.00  0.00     0.042 C 
HETATM   28  O   UNK N   1      36.724  14.877   8.917  0.00  0.00    -0.354 OA
BRANCH  24  29
HETATM   29  O   UNK N   1      35.129  17.600   9.370  0.00  0.00    -0.393 OA
HETATM   30  H   UNK N   1      34.683  17.907   8.565  0.00  0.00     0.210 HD
ENDBRANCH  24  29
BRANCH  25  31
HETATM   31  O   UNK N   1      33.059  15.577   8.833  0.00  0.00    -0.351 OA
BRANCH  31  32
HETATM   32  C   UNK N   1      32.952  16.952   8.464  0.00  0.00     0.262 C 
HETATM   33  C   UNK N   1      31.525  17.522   8.637  0.00  0.00     0.088 C 
HETATM   34  C   UNK N   1      30.574  16.896   7.637  0.00  0.00     0.110 C 
HETATM   35  C   UNK N   1      31.145  17.154   6.246  0.00  0.00     0.169 C 
HETATM   36  C   UNK N   1      32.567  16.560   6.177  0.00  0.00     0.151 C 
HETATM   37  C   UNK N   1      33.162  16.827   4.806  0.00  0.00     0.042 C 
HETATM   38  O   UNK N   1      33.423  17.152   7.141  0.00  0.00    -0.354 OA
BRANCH  34  39
HETATM   39  N   UNK N   1      29.261  17.502   7.774  0.00  0.00    -0.423 N 
HETATM   40  H   UNK N   1      29.161  18.488   8.018  0.00  0.00     0.150 HD
HETATM   41  H   UNK N   1      28.428  16.935   7.625  0.00  0.00     0.150 HD
ENDBRANCH  34  39
BRANCH  35  42
HETATM   42  O   UNK N   1      30.322  16.570   5.280  0.00  0.00    -0.391 OA
HETATM   43  H   UNK N   1      30.205  15.716   4.836  0.00  0.00     0.210 HD
ENDBRANCH  35  42
ENDBRANCH  31  32
ENDBRANCH  25  31
ENDBRANCH  21  22
ENDBRANCH  10  21
BRANCH  18  44
HETATM   44  C   UNK N   1      38.197   9.640   9.541  0.00  0.00     0.184 C 
HETATM   45  O   UNK N   1      39.120   9.156  10.175  0.00  0.00    -0.292 OA
BRANCH  44  46
HETATM   46  C   UNK N   1      38.049   9.278   8.085  0.00  0.00     0.245 C 
BRANCH  46  47
HETATM   47  O   UNK N   1      38.111  10.413   7.274  0.00  0.00    -0.393 OA
HETATM   48  H   UNK N   1      38.888  10.992   7.308  0.00  0.00     0.209 HD
ENDBRANCH  46  47
ENDBRANCH  44  46
ENDBRANCH  18  44
BRANCH  18  49
HETATM   49  O   UNK N   1      36.099  10.797   9.385  0.00  0.00    -0.382 OA
HETATM   50  H   UNK N   1      35.706  10.857   8.501  0.00  0.00     0.211 HD
ENDBRANCH  18  49
BRANCH  17  51
HETATM   51  O   UNK N   1      36.857  14.104  13.975  0.00  0.00    -0.359 OA
HETATM   52  H   UNK N   1      37.711  14.488  14.007  0.00  0.00     0.217 HD
ENDBRANCH  17  51
BRANCH  16  53
HETATM   53  O   UNK N   1      35.861   8.709  13.852  0.00  0.00    -0.359 OA
HETATM   54  H   UNK N   1      35.039   8.292  13.689  0.00  0.00     0.217 HD
ENDBRANCH  16  53
TORSDOF 13
ENDMDL
