MODEL 1
REMARK VINA RESULT:      -8.4      0.000      0.000
REMARK  9 active torsions:
REMARK  status: ('A' for Active; 'I' for Inactive)
REMARK    1  A    between atoms: O_2  and  C_3 
REMARK    2  A    between atoms: C_5  and  C_3 
REMARK    3  A    between atoms: C_5  and  C_6 
REMARK    4  A    between atoms: C_5  and  N_12 
REMARK    5  A    between atoms: C_15  and  C_18 
REMARK    6  A    between atoms: C_21  and  N_24 
REMARK       I    between atoms: N_24  and  C_25 
REMARK    7  A    between atoms: C_25  and  C_27 
REMARK    8  A    between atoms: C_32  and  C_33 
REMARK    9  A    between atoms: C_36  and  C_39 
ROOT
HETATM    1  C   UNK N   1      26.074  16.468   3.122  0.00  0.00    -0.054 A 
HETATM    2  C   UNK N   1      24.784  16.672   3.624  0.00  0.00     0.010 A 
HETATM    3  C   UNK N   1      23.734  15.859   3.204  0.00  0.00     0.030 A 
HETATM    4  C   UNK N   1      23.972  14.802   2.319  0.00  0.00     0.035 A 
HETATM    5  C   UNK N   1      25.284  14.549   1.890  0.00  0.00     0.030 A 
HETATM    6  C   UNK N   1      26.325  15.369   2.293  0.00  0.00     0.010 A 
ENDROOT
BRANCH   4   7
HETATM    7  N   UNK N   1      22.946  14.483   1.403  0.00  0.00    -0.323 N 
HETATM    8  C   UNK N   1      21.965  13.675   1.905  0.00  0.00     0.257 C 
HETATM    9  O   UNK N   1      22.112  13.157   3.006  0.00  0.00    -0.267 OA
HETATM   10  H   UNK N   1      22.938  14.816   0.477  0.00  0.00     0.169 HD
BRANCH   8  11
HETATM   11  C   UNK N   1      20.721  13.392   1.191  0.00  0.00     0.043 A 
HETATM   12  C   UNK N   1      20.490  12.095   0.730  0.00  0.00     0.018 A 
HETATM   13  C   UNK N   1      19.241  11.747   0.218  0.00  0.00     0.001 A 
HETATM   14  C   UNK N   1      18.214  12.691   0.179  0.00  0.00     0.001 A 
HETATM   15  C   UNK N   1      18.444  14.004   0.600  0.00  0.00     0.013 A 
HETATM   16  C   UNK N   1      19.697  14.390   1.098  0.00  0.00    -0.010 A 
BRANCH  16  17
HETATM   17  C   UNK N   1      19.924  15.849   1.434  0.00  0.00    -0.025 A 
HETATM   18  C   UNK N   1      20.066  16.813   0.421  0.00  0.00     0.013 A 
HETATM   19  C   UNK N   1      20.313  18.158   0.744  0.00  0.00     0.017 A 
HETATM   20  C   UNK N   1      20.444  18.558   2.084  0.00  0.00     0.048 A 
HETATM   21  C   UNK N   1      20.338  17.601   3.092  0.00  0.00     0.017 A 
HETATM   22  C   UNK N   1      20.094  16.270   2.767  0.00  0.00     0.013 A 
BRANCH  20  23
HETATM   23  C   UNK N   1      20.701  19.998   2.431  0.00  0.00     0.417 C 
HETATM   24  F   UNK N   1      19.938  20.357   3.526  0.00  0.00    -0.166 F 
HETATM   25  F   UNK N   1      22.037  20.209   2.736  0.00  0.00    -0.166 F 
HETATM   26  F   UNK N   1      20.362  20.802   1.358  0.00  0.00    -0.166 F 
ENDBRANCH  20  23
ENDBRANCH  16  17
ENDBRANCH   8  11
ENDBRANCH   4   7
BRANCH   1  27
HETATM   27  C   UNK N   1      27.152  17.475   3.438  0.00  0.00     0.022 C 
HETATM   28  C   UNK N   1      26.871  18.157   4.763  0.00  0.00     0.039 C 
HETATM   29  C   UNK N   1      26.999  17.119   5.878  0.00  0.00     0.274 C 
HETATM   30  N   UNK N   1      28.351  16.533   5.928  0.00  0.00     0.107 N 
HETATM   31  C   UNK N   1      28.710  15.916   4.639  0.00  0.00     0.274 C 
HETATM   32  C   UNK N   1      28.566  16.890   3.467  0.00  0.00     0.039 C 
BRANCH  30  33
HETATM   33  C   UNK N   1      29.318  17.530   6.436  0.00  0.00     0.354 C 
BRANCH  33  34
HETATM   34  C   UNK N   1      28.909  17.994   7.832  0.00  0.00     0.296 C 
HETATM   35  O   UNK N   1      28.915  19.186   8.100  0.00  0.00    -0.262 OA
BRANCH  34  36
HETATM   36  O   UNK N   1      28.555  17.112   8.798  0.00  0.00    -0.325 OA
HETATM   37  C   UNK N   1      29.021  17.191  10.089  0.00  0.00     0.213 C 
ENDBRANCH  34  36
ENDBRANCH  33  34
BRANCH  33  38
HETATM   38  C   UNK N   1      30.754  17.027   6.392  0.00  0.00    -0.015 A 
HETATM   39  C   UNK N   1      31.648  17.562   5.449  0.00  0.00     0.010 A 
HETATM   40  C   UNK N   1      32.963  17.096   5.371  0.00  0.00     0.001 A 
HETATM   41  C   UNK N   1      33.400  16.096   6.240  0.00  0.00     0.000 A 
HETATM   42  C   UNK N   1      32.525  15.565   7.190  0.00  0.00     0.001 A 
HETATM   43  C   UNK N   1      31.207  16.027   7.266  0.00  0.00     0.010 A 
ENDBRANCH  33  38
ENDBRANCH  30  33
ENDBRANCH   1  27
TORSDOF 9
ENDMDL
MODEL 2
REMARK VINA RESULT:      -8.4      8.337     12.464
REMARK  9 active torsions:
REMARK  status: ('A' for Active; 'I' for Inactive)
REMARK    1  A    between atoms: O_2  and  C_3 
REMARK    2  A    between atoms: C_5  and  C_3 
REMARK    3  A    between atoms: C_5  and  C_6 
REMARK    4  A    between atoms: C_5  and  N_12 
REMARK    5  A    between atoms: C_15  and  C_18 
REMARK    6  A    between atoms: C_21  and  N_24 
REMARK       I    between atoms: N_24  and  C_25 
REMARK    7  A    between atoms: C_25  and  C_27 
REMARK    8  A    between atoms: C_32  and  C_33 
REMARK    9  A    between atoms: C_36  and  C_39 
ROOT
HETATM    1  C   UNK N   1      36.147  13.753  10.505  0.00  0.00    -0.054 A 
HETATM    2  C   UNK N   1      35.246  14.824  10.496  0.00  0.00     0.010 A 
HETATM    3  C   UNK N   1      34.577  15.164   9.323  0.00  0.00     0.030 A 
HETATM    4  C   UNK N   1      34.761  14.407   8.161  0.00  0.00     0.035 A 
HETATM    5  C   UNK N   1      35.598  13.281   8.202  0.00  0.00     0.030 A 
HETATM    6  C   UNK N   1      36.277  12.953   9.363  0.00  0.00     0.010 A 
ENDROOT
BRANCH   4   7
HETATM    7  N   UNK N   1      34.699  15.090   6.927  0.00  0.00    -0.323 N 
HETATM    8  C   UNK N   1      33.567  14.851   6.200  0.00  0.00     0.257 C 
HETATM    9  O   UNK N   1      32.794  13.970   6.556  0.00  0.00    -0.267 OA
HETATM   10  H   UNK N   1      35.414  15.691   6.617  0.00  0.00     0.169 HD
BRANCH   8  11
HETATM   11  C   UNK N   1      33.216  15.606   4.998  0.00  0.00     0.043 A 
HETATM   12  C   UNK N   1      33.922  15.362   3.819  0.00  0.00     0.018 A 
HETATM   13  C   UNK N   1      33.491  15.921   2.617  0.00  0.00     0.001 A 
HETATM   14  C   UNK N   1      32.343  16.715   2.587  0.00  0.00     0.001 A 
HETATM   15  C   UNK N   1      31.651  17.001   3.768  0.00  0.00     0.013 A 
HETATM   16  C   UNK N   1      32.074  16.472   4.996  0.00  0.00    -0.010 A 
BRANCH  16  17
HETATM   17  C   UNK N   1      31.355  16.904   6.256  0.00  0.00    -0.025 A 
HETATM   18  C   UNK N   1      32.057  17.472   7.333  0.00  0.00     0.013 A 
HETATM   19  C   UNK N   1      31.385  17.837   8.512  0.00  0.00     0.017 A 
HETATM   20  C   UNK N   1      30.003  17.618   8.643  0.00  0.00     0.048 A 
HETATM   21  C   UNK N   1      29.307  17.024   7.592  0.00  0.00     0.017 A 
HETATM   22  C   UNK N   1      29.978  16.665   6.426  0.00  0.00     0.013 A 
BRANCH  20  23
HETATM   23  C   UNK N   1      29.282  18.013   9.901  0.00  0.00     0.417 C 
HETATM   24  F   UNK N   1      29.317  16.969  10.806  0.00  0.00    -0.166 F 
HETATM   25  F   UNK N   1      29.869  19.124  10.487  0.00  0.00    -0.166 F 
HETATM   26  F   UNK N   1      27.965  18.314   9.606  0.00  0.00    -0.166 F 
ENDBRANCH  20  23
ENDBRANCH  16  17
ENDBRANCH   8  11
ENDBRANCH   4   7
BRANCH   1  27
HETATM   27  C   UNK N   1      37.002  13.523  11.726  0.00  0.00     0.022 C 
HETATM   28  C   UNK N   1      36.471  14.318  12.904  0.00  0.00     0.039 C 
HETATM   29  C   UNK N   1      35.109  13.747  13.296  0.00  0.00     0.274 C 
HETATM   30  N   UNK N   1      35.201  12.330  13.689  0.00  0.00     0.107 N 
HETATM   31  C   UNK N   1      35.780  11.516  12.606  0.00  0.00     0.274 C 
HETATM   32  C   UNK N   1      37.132  12.054  12.132  0.00  0.00     0.039 C 
BRANCH  30  33
HETATM   33  C   UNK N   1      35.882  12.208  14.996  0.00  0.00     0.354 C 
BRANCH  33  34
HETATM   34  C   UNK N   1      35.101  12.964  16.068  0.00  0.00     0.296 C 
HETATM   35  O   UNK N   1      33.886  13.058  15.978  0.00  0.00    -0.262 OA
BRANCH  34  36
HETATM   36  O   UNK N   1      35.724  13.557  17.115  0.00  0.00    -0.325 OA
HETATM   37  C   UNK N   1      35.237  13.509  18.399  0.00  0.00     0.213 C 
ENDBRANCH  34  36
ENDBRANCH  33  34
BRANCH  33  38
HETATM   38  C   UNK N   1      36.144  10.759  15.386  0.00  0.00    -0.015 A 
HETATM   39  C   UNK N   1      37.458  10.260  15.362  0.00  0.00     0.010 A 
HETATM   40  C   UNK N   1      37.718   8.928  15.689  0.00  0.00     0.001 A 
HETATM   41  C   UNK N   1      36.670   8.081  16.050  0.00  0.00     0.000 A 
HETATM   42  C   UNK N   1      35.361   8.568  16.090  0.00  0.00     0.001 A 
HETATM   43  C   UNK N   1      35.098   9.900  15.759  0.00  0.00     0.010 A 
ENDBRANCH  33  38
ENDBRANCH  30  33
ENDBRANCH   1  27
TORSDOF 9
ENDMDL
MODEL 3
REMARK VINA RESULT:      -8.1      5.626      9.477
REMARK  9 active torsions:
REMARK  status: ('A' for Active; 'I' for Inactive)
REMARK    1  A    between atoms: O_2  and  C_3 
REMARK    2  A    between atoms: C_5  and  C_3 
REMARK    3  A    between atoms: C_5  and  C_6 
REMARK    4  A    between atoms: C_5  and  N_12 
REMARK    5  A    between atoms: C_15  and  C_18 
REMARK    6  A    between atoms: C_21  and  N_24 
REMARK       I    between atoms: N_24  and  C_25 
REMARK    7  A    between atoms: C_25  and  C_27 
REMARK    8  A    between atoms: C_32  and  C_33 
REMARK    9  A    between atoms: C_36  and  C_39 
ROOT
HETATM    1  C   UNK N   1      33.481  16.012   8.215  0.00  0.00    -0.054 A 
HETATM    2  C   UNK N   1      32.797  17.100   8.768  0.00  0.00     0.010 A 
HETATM    3  C   UNK N   1      31.584  17.513   8.223  0.00  0.00     0.030 A 
HETATM    4  C   UNK N   1      31.016  16.811   7.155  0.00  0.00     0.035 A 
HETATM    5  C   UNK N   1      31.664  15.667   6.664  0.00  0.00     0.030 A 
HETATM    6  C   UNK N   1      32.880  15.267   7.193  0.00  0.00     0.010 A 
ENDROOT
BRANCH   4   7
HETATM    7  N   UNK N   1      30.273  17.556   6.213  0.00  0.00    -0.323 N 
HETATM    8  C   UNK N   1      28.944  17.675   6.501  0.00  0.00     0.257 C 
HETATM    9  O   UNK N   1      28.461  17.017   7.416  0.00  0.00    -0.267 OA
HETATM   10  H   UNK N   1      30.682  17.958   5.413  0.00  0.00     0.169 HD
BRANCH   8  11
HETATM   11  C   UNK N   1      28.044  18.566   5.769  0.00  0.00     0.043 A 
HETATM   12  C   UNK N   1      27.713  19.799   6.333  0.00  0.00     0.018 A 
HETATM   13  C   UNK N   1      27.017  20.746   5.583  0.00  0.00     0.001 A 
HETATM   14  C   UNK N   1      26.663  20.469   4.262  0.00  0.00     0.001 A 
HETATM   15  C   UNK N   1      26.954  19.223   3.699  0.00  0.00     0.013 A 
HETATM   16  C   UNK N   1      27.632  18.241   4.436  0.00  0.00    -0.010 A 
BRANCH  16  17
HETATM   17  C   UNK N   1      27.820  16.873   3.817  0.00  0.00    -0.025 A 
HETATM   18  C   UNK N   1      28.968  16.568   3.065  0.00  0.00     0.013 A 
HETATM   19  C   UNK N   1      29.115  15.306   2.464  0.00  0.00     0.017 A 
HETATM   20  C   UNK N   1      28.107  14.335   2.586  0.00  0.00     0.048 A 
HETATM   21  C   UNK N   1      26.951  14.643   3.302  0.00  0.00     0.017 A 
HETATM   22  C   UNK N   1      26.810  15.894   3.895  0.00  0.00     0.013 A 
BRANCH  20  23
HETATM   23  C   UNK N   1      28.266  12.983   1.949  0.00  0.00     0.417 C 
HETATM   24  F   UNK N   1      28.775  12.090   2.874  0.00  0.00    -0.166 F 
HETATM   25  F   UNK N   1      27.050  12.499   1.492  0.00  0.00    -0.166 F 
HETATM   26  F   UNK N   1      29.136  13.074   0.878  0.00  0.00    -0.166 F 
ENDBRANCH  20  23
ENDBRANCH  16  17
ENDBRANCH   8  11
ENDBRANCH   4   7
BRANCH   1  27
HETATM   27  C   UNK N   1      34.878  15.703   8.693  0.00  0.00     0.022 C 
HETATM   28  C   UNK N   1      35.038  16.086  10.152  0.00  0.00     0.039 C 
HETATM   29  C   UNK N   1      34.151  15.169  10.992  0.00  0.00     0.274 C 
HETATM   30  N   UNK N   1      34.525  13.751  10.835  0.00  0.00     0.107 N 
HETATM   31  C   UNK N   1      34.458  13.339   9.422  0.00  0.00     0.274 C 
HETATM   32  C   UNK N   1      35.294  14.242   8.511  0.00  0.00     0.039 C 
BRANCH  30  33
HETATM   33  C   UNK N   1      35.818  13.490  11.503  0.00  0.00     0.354 C 
BRANCH  33  34
HETATM   34  C   UNK N   1      35.720  13.831  12.988  0.00  0.00     0.296 C 
HETATM   35  O   UNK N   1      36.524  14.604  13.486  0.00  0.00    -0.262 OA
BRANCH  34  36
HETATM   36  O   UNK N   1      34.770  13.280  13.782  0.00  0.00    -0.325 OA
HETATM   37  C   UNK N   1      35.013  12.886  15.076  0.00  0.00     0.213 C 
ENDBRANCH  34  36
ENDBRANCH  33  34
BRANCH  33  38
HETATM   38  C   UNK N   1      36.322  12.072  11.267  0.00  0.00    -0.015 A 
HETATM   39  C   UNK N   1      37.590  11.872  10.696  0.00  0.00     0.010 A 
HETATM   40  C   UNK N   1      38.061  10.582  10.445  0.00  0.00     0.001 A 
HETATM   41  C   UNK N   1      37.273   9.477  10.769  0.00  0.00     0.000 A 
HETATM   42  C   UNK N   1      36.016   9.662  11.348  0.00  0.00     0.001 A 
HETATM   43  C   UNK N   1      35.541  10.953  11.597  0.00  0.00     0.010 A 
ENDBRANCH  33  38
ENDBRANCH  30  33
ENDBRANCH   1  27
TORSDOF 9
ENDMDL
MODEL 4
REMARK VINA RESULT:      -7.9      9.228     16.040
REMARK  9 active torsions:
REMARK  status: ('A' for Active; 'I' for Inactive)
REMARK    1  A    between atoms: O_2  and  C_3 
REMARK    2  A    between atoms: C_5  and  C_3 
REMARK    3  A    between atoms: C_5  and  C_6 
REMARK    4  A    between atoms: C_5  and  N_12 
REMARK    5  A    between atoms: C_15  and  C_18 
REMARK    6  A    between atoms: C_21  and  N_24 
REMARK       I    between atoms: N_24  and  C_25 
REMARK    7  A    between atoms: C_25  and  C_27 
REMARK    8  A    between atoms: C_32  and  C_33 
REMARK    9  A    between atoms: C_36  and  C_39 
ROOT
HETATM    1  C   UNK N   1      35.404  14.348   9.109  0.00  0.00    -0.054 A 
HETATM    2  C   UNK N   1      36.327  13.530   8.450  0.00  0.00     0.010 A 
HETATM    3  C   UNK N   1      36.873  12.427   9.101  0.00  0.00     0.030 A 
HETATM    4  C   UNK N   1      36.464  12.101  10.398  0.00  0.00     0.035 A 
HETATM    5  C   UNK N   1      35.472  12.874  11.019  0.00  0.00     0.030 A 
HETATM    6  C   UNK N   1      34.942  13.982  10.379  0.00  0.00     0.010 A 
ENDROOT
BRANCH   4   7
HETATM    7  N   UNK N   1      37.427  11.521  11.253  0.00  0.00    -0.323 N 
HETATM    8  C   UNK N   1      37.062  10.321  11.792  0.00  0.00     0.257 C 
HETATM    9  O   UNK N   1      35.913   9.919  11.654  0.00  0.00    -0.267 OA
HETATM   10  H   UNK N   1      38.293  11.949  11.444  0.00  0.00     0.169 HD
BRANCH   8  11
HETATM   11  C   UNK N   1      37.985   9.466  12.537  0.00  0.00     0.043 A 
HETATM   12  C   UNK N   1      38.696   8.482  11.849  0.00  0.00     0.018 A 
HETATM   13  C   UNK N   1      39.718   7.782  12.487  0.00  0.00     0.001 A 
HETATM   14  C   UNK N   1      40.044   8.073  13.813  0.00  0.00     0.001 A 
HETATM   15  C   UNK N   1      39.313   9.028  14.526  0.00  0.00     0.013 A 
HETATM   16  C   UNK N   1      38.263   9.732  13.918  0.00  0.00    -0.010 A 
BRANCH  16  17
HETATM   17  C   UNK N   1      37.434  10.672  14.767  0.00  0.00    -0.025 A 
HETATM   18  C   UNK N   1      37.501  12.064  14.585  0.00  0.00     0.013 A 
HETATM   19  C   UNK N   1      36.754  12.929  15.404  0.00  0.00     0.017 A 
HETATM   20  C   UNK N   1      35.947  12.417  16.434  0.00  0.00     0.048 A 
HETATM   21  C   UNK N   1      35.903  11.039  16.642  0.00  0.00     0.017 A 
HETATM   22  C   UNK N   1      36.645  10.188  15.828  0.00  0.00     0.013 A 
BRANCH  20  23
HETATM   23  C   UNK N   1      35.143  13.340  17.306  0.00  0.00     0.417 C 
HETATM   24  F   UNK N   1      33.937  13.627  16.694  0.00  0.00    -0.166 F 
HETATM   25  F   UNK N   1      34.885  12.764  18.541  0.00  0.00    -0.166 F 
HETATM   26  F   UNK N   1      35.843  14.516  17.506  0.00  0.00    -0.166 F 
ENDBRANCH  20  23
ENDBRANCH  16  17
ENDBRANCH   8  11
ENDBRANCH   4   7
BRANCH   1  27
HETATM   27  C   UNK N   1      34.973  15.640   8.461  0.00  0.00     0.022 C 
HETATM   28  C   UNK N   1      34.561  15.401   7.021  0.00  0.00     0.039 C 
HETATM   29  C   UNK N   1      33.293  14.547   7.017  0.00  0.00     0.274 C 
HETATM   30  N   UNK N   1      32.182  15.214   7.719  0.00  0.00     0.107 N 
HETATM   31  C   UNK N   1      32.551  15.538   9.109  0.00  0.00     0.274 C 
HETATM   32  C   UNK N   1      33.839  16.361   9.192  0.00  0.00     0.039 C 
BRANCH  30  33
HETATM   33  C   UNK N   1      31.687  16.355   6.920  0.00  0.00     0.354 C 
BRANCH  33  34
HETATM   34  C   UNK N   1      31.258  15.879   5.535  0.00  0.00     0.296 C 
HETATM   35  O   UNK N   1      30.608  14.850   5.422  0.00  0.00    -0.262 OA
BRANCH  34  36
HETATM   36  O   UNK N   1      31.596  16.561   4.414  0.00  0.00    -0.325 OA
HETATM   37  C   UNK N   1      32.627  17.469   4.373  0.00  0.00     0.213 C 
ENDBRANCH  34  36
ENDBRANCH  33  34
BRANCH  33  38
HETATM   38  C   UNK N   1      30.588  17.134   7.630  0.00  0.00    -0.015 A 
HETATM   39  C   UNK N   1      29.246  16.929   7.268  0.00  0.00     0.010 A 
HETATM   40  C   UNK N   1      28.224  17.653   7.886  0.00  0.00     0.001 A 
HETATM   41  C   UNK N   1      28.532  18.584   8.878  0.00  0.00     0.000 A 
HETATM   42  C   UNK N   1      29.861  18.789   9.256  0.00  0.00     0.001 A 
HETATM   43  C   UNK N   1      30.885  18.068   8.636  0.00  0.00     0.010 A 
ENDBRANCH  33  38
ENDBRANCH  30  33
ENDBRANCH   1  27
TORSDOF 9
ENDMDL
MODEL 5
REMARK VINA RESULT:      -7.9      3.384      9.431
REMARK  9 active torsions:
REMARK  status: ('A' for Active; 'I' for Inactive)
REMARK    1  A    between atoms: O_2  and  C_3 
REMARK    2  A    between atoms: C_5  and  C_3 
REMARK    3  A    between atoms: C_5  and  C_6 
REMARK    4  A    between atoms: C_5  and  N_12 
REMARK    5  A    between atoms: C_15  and  C_18 
REMARK    6  A    between atoms: C_21  and  N_24 
REMARK       I    between atoms: N_24  and  C_25 
REMARK    7  A    between atoms: C_25  and  C_27 
REMARK    8  A    between atoms: C_32  and  C_33 
REMARK    9  A    between atoms: C_36  and  C_39 
ROOT
HETATM    1  C   UNK N   1      24.913  14.320   4.144  0.00  0.00    -0.054 A 
HETATM    2  C   UNK N   1      25.771  15.291   3.619  0.00  0.00     0.010 A 
HETATM    3  C   UNK N   1      27.129  15.266   3.930  0.00  0.00     0.030 A 
HETATM    4  C   UNK N   1      27.650  14.240   4.725  0.00  0.00     0.035 A 
HETATM    5  C   UNK N   1      26.799  13.219   5.173  0.00  0.00     0.030 A 
HETATM    6  C   UNK N   1      25.446  13.254   4.880  0.00  0.00     0.010 A 
ENDROOT
BRANCH   4   7
HETATM    7  N   UNK N   1      28.731  14.566   5.573  0.00  0.00    -0.323 N 
HETATM    8  C   UNK N   1      29.934  14.695   4.940  0.00  0.00     0.257 C 
HETATM    9  O   UNK N   1      30.038  14.366   3.765  0.00  0.00    -0.267 OA
HETATM   10  H   UNK N   1      28.625  14.690   6.544  0.00  0.00     0.169 HD
BRANCH   8  11
HETATM   11  C   UNK N   1      31.130  15.220   5.598  0.00  0.00     0.043 A 
HETATM   12  C   UNK N   1      32.238  14.385   5.746  0.00  0.00     0.018 A 
HETATM   13  C   UNK N   1      33.452  14.905   6.192  0.00  0.00     0.001 A 
HETATM   14  C   UNK N   1      33.566  16.266   6.478  0.00  0.00     0.001 A 
HETATM   15  C   UNK N   1      32.453  17.106   6.373  0.00  0.00     0.013 A 
HETATM   16  C   UNK N   1      31.213  16.606   5.949  0.00  0.00    -0.010 A 
BRANCH  16  17
HETATM   17  C   UNK N   1      30.017  17.534   5.961  0.00  0.00    -0.025 A 
HETATM   18  C   UNK N   1      29.540  18.120   4.775  0.00  0.00     0.013 A 
HETATM   19  C   UNK N   1      28.452  19.008   4.804  0.00  0.00     0.017 A 
HETATM   20  C   UNK N   1      27.836  19.345   6.021  0.00  0.00     0.048 A 
HETATM   21  C   UNK N   1      28.326  18.795   7.205  0.00  0.00     0.017 A 
HETATM   22  C   UNK N   1      29.404  17.915   7.171  0.00  0.00     0.013 A 
BRANCH  20  23
HETATM   23  C   UNK N   1      26.668  20.290   6.052  0.00  0.00     0.417 C 
HETATM   24  F   UNK N   1      25.528  19.635   5.626  0.00  0.00    -0.166 F 
HETATM   25  F   UNK N   1      26.447  20.772   7.333  0.00  0.00    -0.166 F 
HETATM   26  F   UNK N   1      26.916  21.362   5.215  0.00  0.00    -0.166 F 
ENDBRANCH  20  23
ENDBRANCH  16  17
ENDBRANCH   8  11
ENDBRANCH   4   7
BRANCH   1  27
HETATM   27  C   UNK N   1      23.424  14.475   3.955  0.00  0.00     0.022 C 
HETATM   28  C   UNK N   1      22.710  14.414   5.292  0.00  0.00     0.039 C 
HETATM   29  C   UNK N   1      23.107  15.643   6.108  0.00  0.00     0.274 C 
HETATM   30  N   UNK N   1      22.729  16.896   5.431  0.00  0.00     0.107 N 
HETATM   31  C   UNK N   1      23.338  16.979   4.091  0.00  0.00     0.274 C 
HETATM   32  C   UNK N   1      23.015  15.757   3.228  0.00  0.00     0.039 C 
BRANCH  30  33
HETATM   33  C   UNK N   1      21.261  17.069   5.463  0.00  0.00     0.354 C 
BRANCH  33  34
HETATM   34  C   UNK N   1      20.815  17.513   6.853  0.00  0.00     0.296 C 
HETATM   35  O   UNK N   1      21.124  18.623   7.263  0.00  0.00    -0.262 OA
BRANCH  34  36
HETATM   36  O   UNK N   1      20.097  16.698   7.663  0.00  0.00    -0.325 OA
HETATM   37  C   UNK N   1      19.517  17.128   8.832  0.00  0.00     0.213 C 
ENDBRANCH  34  36
ENDBRANCH  33  34
BRANCH  33  38
HETATM   38  C   UNK N   1      20.758  18.001   4.369  0.00  0.00    -0.015 A 
HETATM   39  C   UNK N   1      19.805  17.537   3.446  0.00  0.00     0.010 A 
HETATM   40  C   UNK N   1      19.349  18.365   2.417  0.00  0.00     0.001 A 
HETATM   41  C   UNK N   1      19.836  19.668   2.304  0.00  0.00     0.000 A 
HETATM   42  C   UNK N   1      20.774  20.145   3.222  0.00  0.00     0.001 A 
HETATM   43  C   UNK N   1      21.234  19.316   4.250  0.00  0.00     0.010 A 
ENDBRANCH  33  38
ENDBRANCH  30  33
ENDBRANCH   1  27
TORSDOF 9
ENDMDL
MODEL 6
REMARK VINA RESULT:      -7.9     10.138     16.705
REMARK  9 active torsions:
REMARK  status: ('A' for Active; 'I' for Inactive)
REMARK    1  A    between atoms: O_2  and  C_3 
REMARK    2  A    between atoms: C_5  and  C_3 
REMARK    3  A    between atoms: C_5  and  C_6 
REMARK    4  A    between atoms: C_5  and  N_12 
REMARK    5  A    between atoms: C_15  and  C_18 
REMARK    6  A    between atoms: C_21  and  N_24 
REMARK       I    between atoms: N_24  and  C_25 
REMARK    7  A    between atoms: C_25  and  C_27 
REMARK    8  A    between atoms: C_32  and  C_33 
REMARK    9  A    between atoms: C_36  and  C_39 
ROOT
HETATM    1  C   UNK N   1      35.723  13.942  10.796  0.00  0.00    -0.054 A 
HETATM    2  C   UNK N   1      35.329  12.677  11.246  0.00  0.00     0.010 A 
HETATM    3  C   UNK N   1      35.212  12.427  12.611  0.00  0.00     0.030 A 
HETATM    4  C   UNK N   1      35.437  13.451  13.537  0.00  0.00     0.035 A 
HETATM    5  C   UNK N   1      35.745  14.739  13.074  0.00  0.00     0.030 A 
HETATM    6  C   UNK N   1      35.879  14.984  11.718  0.00  0.00     0.010 A 
ENDROOT
BRANCH   4   7
HETATM    7  N   UNK N   1      36.001  13.087  14.780  0.00  0.00    -0.323 N 
HETATM    8  C   UNK N   1      35.091  12.854  15.772  0.00  0.00     0.257 C 
HETATM    9  O   UNK N   1      33.911  13.131  15.589  0.00  0.00    -0.267 OA
HETATM   10  H   UNK N   1      36.972  13.006  14.919  0.00  0.00     0.169 HD
BRANCH   8  11
HETATM   11  C   UNK N   1      35.450  12.277  17.066  0.00  0.00     0.043 A 
HETATM   12  C   UNK N   1      35.248  13.034  18.221  0.00  0.00     0.018 A 
HETATM   13  C   UNK N   1      35.399  12.448  19.477  0.00  0.00     0.001 A 
HETATM   14  C   UNK N   1      35.739  11.099  19.583  0.00  0.00     0.001 A 
HETATM   15  C   UNK N   1      35.984  10.340  18.434  0.00  0.00     0.013 A 
HETATM   16  C   UNK N   1      35.863  10.908  17.158  0.00  0.00    -0.010 A 
BRANCH  16  17
HETATM   17  C   UNK N   1      36.248  10.073  15.955  0.00  0.00    -0.025 A 
HETATM   18  C   UNK N   1      37.571  10.054  15.479  0.00  0.00     0.013 A 
HETATM   19  C   UNK N   1      37.910   9.304  14.340  0.00  0.00     0.017 A 
HETATM   20  C   UNK N   1      36.929   8.578  13.645  0.00  0.00     0.048 A 
HETATM   21  C   UNK N   1      35.609   8.620  14.091  0.00  0.00     0.017 A 
HETATM   22  C   UNK N   1      35.278   9.364  15.220  0.00  0.00     0.013 A 
BRANCH  20  23
HETATM   23  C   UNK N   1      37.292   7.770  12.430  0.00  0.00     0.417 C 
HETATM   24  F   UNK N   1      38.113   8.514  11.604  0.00  0.00    -0.166 F 
HETATM   25  F   UNK N   1      37.959   6.607  12.783  0.00  0.00    -0.166 F 
HETATM   26  F   UNK N   1      36.143   7.427  11.741  0.00  0.00    -0.166 F 
ENDBRANCH  20  23
ENDBRANCH  16  17
ENDBRANCH   8  11
ENDBRANCH   4   7
BRANCH   1  27
HETATM   27  C   UNK N   1      36.029  14.137   9.332  0.00  0.00     0.022 C 
HETATM   28  C   UNK N   1      35.579  12.932   8.529  0.00  0.00     0.039 C 
HETATM   29  C   UNK N   1      34.053  12.861   8.579  0.00  0.00     0.274 C 
HETATM   30  N   UNK N   1      33.430  14.067   8.004  0.00  0.00     0.107 N 
HETATM   31  C   UNK N   1      33.888  15.283   8.700  0.00  0.00     0.274 C 
HETATM   32  C   UNK N   1      35.414  15.400   8.726  0.00  0.00     0.039 C 
BRANCH  30  33
HETATM   33  C   UNK N   1      33.608  14.082   6.537  0.00  0.00     0.354 C 
BRANCH  33  34
HETATM   34  C   UNK N   1      33.131  12.761   5.937  0.00  0.00     0.296 C 
HETATM   35  O   UNK N   1      31.967  12.418   6.076  0.00  0.00    -0.262 OA
BRANCH  34  36
HETATM   36  O   UNK N   1      33.975  11.941   5.266  0.00  0.00    -0.325 OA
HETATM   37  C   UNK N   1      35.191  12.356   4.778  0.00  0.00     0.213 C 
ENDBRANCH  34  36
ENDBRANCH  33  34
BRANCH  33  38
HETATM   38  C   UNK N   1      32.948  15.287   5.879  0.00  0.00    -0.015 A 
HETATM   39  C   UNK N   1      33.728  16.179   5.124  0.00  0.00     0.010 A 
HETATM   40  C   UNK N   1      33.149  17.306   4.535  0.00  0.00     0.001 A 
HETATM   41  C   UNK N   1      31.784  17.549   4.690  0.00  0.00     0.000 A 
HETATM   42  C   UNK N   1      30.996  16.663   5.427  0.00  0.00     0.001 A 
HETATM   43  C   UNK N   1      31.574  15.537   6.020  0.00  0.00     0.010 A 
ENDBRANCH  33  38
ENDBRANCH  30  33
ENDBRANCH   1  27
TORSDOF 9
ENDMDL
MODEL 7
REMARK VINA RESULT:      -7.8      8.520     15.038
REMARK  9 active torsions:
REMARK  status: ('A' for Active; 'I' for Inactive)
REMARK    1  A    between atoms: O_2  and  C_3 
REMARK    2  A    between atoms: C_5  and  C_3 
REMARK    3  A    between atoms: C_5  and  C_6 
REMARK    4  A    between atoms: C_5  and  N_12 
REMARK    5  A    between atoms: C_15  and  C_18 
REMARK    6  A    between atoms: C_21  and  N_24 
REMARK       I    between atoms: N_24  and  C_25 
REMARK    7  A    between atoms: C_25  and  C_27 
REMARK    8  A    between atoms: C_32  and  C_33 
REMARK    9  A    between atoms: C_36  and  C_39 
ROOT
HETATM    1  C   UNK N   1      34.932  15.846   8.956  0.00  0.00    -0.054 A 
HETATM    2  C   UNK N   1      35.187  16.641  10.078  0.00  0.00     0.010 A 
HETATM    3  C   UNK N   1      35.442  16.047  11.312  0.00  0.00     0.030 A 
HETATM    4  C   UNK N   1      35.495  14.654  11.426  0.00  0.00     0.035 A 
HETATM    5  C   UNK N   1      35.326  13.865  10.278  0.00  0.00     0.030 A 
HETATM    6  C   UNK N   1      35.055  14.454   9.054  0.00  0.00     0.010 A 
ENDROOT
BRANCH   4   7
HETATM    7  N   UNK N   1      35.050  14.088  12.640  0.00  0.00    -0.323 N 
HETATM    8  C   UNK N   1      36.017  13.439  13.355  0.00  0.00     0.257 C 
HETATM    9  O   UNK N   1      37.115  13.242  12.848  0.00  0.00    -0.267 OA
HETATM   10  H   UNK N   1      34.117  14.155  12.948  0.00  0.00     0.169 HD
BRANCH   8  11
HETATM   11  C   UNK N   1      35.814  12.960  14.721  0.00  0.00     0.043 A 
HETATM   12  C   UNK N   1      36.087  13.823  15.784  0.00  0.00     0.018 A 
HETATM   13  C   UNK N   1      35.726  13.468  17.083  0.00  0.00     0.001 A 
HETATM   14  C   UNK N   1      35.078  12.255  17.322  0.00  0.00     0.001 A 
HETATM   15  C   UNK N   1      34.836  11.365  16.272  0.00  0.00     0.013 A 
HETATM   16  C   UNK N   1      35.209  11.684  14.958  0.00  0.00    -0.010 A 
BRANCH  16  17
HETATM   17  C   UNK N   1      35.025  10.637  13.880  0.00  0.00    -0.025 A 
HETATM   18  C   UNK N   1      33.917  10.671  13.016  0.00  0.00     0.013 A 
HETATM   19  C   UNK N   1      33.738   9.674  12.043  0.00  0.00     0.017 A 
HETATM   20  C   UNK N   1      34.651   8.612  11.932  0.00  0.00     0.048 A 
HETATM   21  C   UNK N   1      35.734   8.553  12.808  0.00  0.00     0.017 A 
HETATM   22  C   UNK N   1      35.907   9.544  13.770  0.00  0.00     0.013 A 
BRANCH  20  23
HETATM   23  C   UNK N   1      34.464   7.548  10.887  0.00  0.00     0.417 C 
HETATM   24  F   UNK N   1      33.313   7.802  10.164  0.00  0.00    -0.166 F 
HETATM   25  F   UNK N   1      35.537   7.513  10.009  0.00  0.00    -0.166 F 
HETATM   26  F   UNK N   1      34.354   6.312  11.497  0.00  0.00    -0.166 F 
ENDBRANCH  20  23
ENDBRANCH  16  17
ENDBRANCH   8  11
ENDBRANCH   4   7
BRANCH   1  27
HETATM   27  C   UNK N   1      34.470  16.503   7.679  0.00  0.00     0.022 C 
HETATM   28  C   UNK N   1      34.043  15.458   6.667  0.00  0.00     0.039 C 
HETATM   29  C   UNK N   1      32.791  14.758   7.194  0.00  0.00     0.274 C 
HETATM   30  N   UNK N   1      31.677  15.704   7.390  0.00  0.00     0.107 N 
HETATM   31  C   UNK N   1      32.059  16.788   8.313  0.00  0.00     0.274 C 
HETATM   32  C   UNK N   1      33.334  17.510   7.868  0.00  0.00     0.039 C 
BRANCH  30  33
HETATM   33  C   UNK N   1      31.153  16.151   6.082  0.00  0.00     0.354 C 
BRANCH  33  34
HETATM   34  C   UNK N   1      30.862  14.944   5.194  0.00  0.00     0.296 C 
HETATM   35  O   UNK N   1      30.083  14.083   5.577  0.00  0.00    -0.262 OA
BRANCH  34  36
HETATM   36  O   UNK N   1      31.462  14.788   3.989  0.00  0.00    -0.325 OA
HETATM   37  C   UNK N   1      32.240  15.761   3.409  0.00  0.00     0.213 C 
ENDBRANCH  34  36
ENDBRANCH  33  34
BRANCH  33  38
HETATM   38  C   UNK N   1      29.949  17.073   6.218  0.00  0.00    -0.015 A 
HETATM   39  C   UNK N   1      29.509  17.810   5.106  0.00  0.00     0.010 A 
HETATM   40  C   UNK N   1      28.424  18.683   5.215  0.00  0.00     0.001 A 
HETATM   41  C   UNK N   1      27.763  18.823   6.435  0.00  0.00     0.000 A 
HETATM   42  C   UNK N   1      28.182  18.086   7.545  0.00  0.00     0.001 A 
HETATM   43  C   UNK N   1      29.270  17.215   7.439  0.00  0.00     0.010 A 
ENDBRANCH  33  38
ENDBRANCH  30  33
ENDBRANCH   1  27
TORSDOF 9
ENDMDL
MODEL 8
REMARK VINA RESULT:      -7.8     10.702     16.583
REMARK  9 active torsions:
REMARK  status: ('A' for Active; 'I' for Inactive)
REMARK    1  A    between atoms: O_2  and  C_3 
REMARK    2  A    between atoms: C_5  and  C_3 
REMARK    3  A    between atoms: C_5  and  C_6 
REMARK    4  A    between atoms: C_5  and  N_12 
REMARK    5  A    between atoms: C_15  and  C_18 
REMARK    6  A    between atoms: C_21  and  N_24 
REMARK       I    between atoms: N_24  and  C_25 
REMARK    7  A    between atoms: C_25  and  C_27 
REMARK    8  A    between atoms: C_32  and  C_33 
REMARK    9  A    between atoms: C_36  and  C_39 
ROOT
HETATM    1  C   UNK N   1      34.739  13.764  10.828  0.00  0.00    -0.054 A 
HETATM    2  C   UNK N   1      34.991  14.950  11.526  0.00  0.00     0.010 A 
HETATM    3  C   UNK N   1      35.826  14.940  12.641  0.00  0.00     0.030 A 
HETATM    4  C   UNK N   1      36.459  13.757  13.037  0.00  0.00     0.035 A 
HETATM    5  C   UNK N   1      36.271  12.592  12.278  0.00  0.00     0.030 A 
HETATM    6  C   UNK N   1      35.427  12.597  11.181  0.00  0.00     0.010 A 
ENDROOT
BRANCH   4   7
HETATM    7  N   UNK N   1      36.672  13.570  14.420  0.00  0.00    -0.323 N 
HETATM    8  C   UNK N   1      35.569  13.169  15.118  0.00  0.00     0.257 C 
HETATM    9  O   UNK N   1      34.474  13.163  14.569  0.00  0.00    -0.267 OA
HETATM   10  H   UNK N   1      37.547  13.718  14.847  0.00  0.00     0.169 HD
BRANCH   8  11
HETATM   11  C   UNK N   1      35.622  12.730  16.512  0.00  0.00     0.043 A 
HETATM   12  C   UNK N   1      35.382  13.663  17.521  0.00  0.00     0.018 A 
HETATM   13  C   UNK N   1      35.237  13.243  18.842  0.00  0.00     0.001 A 
HETATM   14  C   UNK N   1      35.315  11.885  19.157  0.00  0.00     0.001 A 
HETATM   15  C   UNK N   1      35.595  10.945  18.162  0.00  0.00     0.013 A 
HETATM   16  C   UNK N   1      35.770  11.340  16.827  0.00  0.00    -0.010 A 
BRANCH  16  17
HETATM   17  C   UNK N   1      36.181  10.295  15.812  0.00  0.00    -0.025 A 
HETATM   18  C   UNK N   1      35.223   9.493  15.167  0.00  0.00     0.013 A 
HETATM   19  C   UNK N   1      35.620   8.502  14.253  0.00  0.00     0.017 A 
HETATM   20  C   UNK N   1      36.981   8.280  13.985  0.00  0.00     0.048 A 
HETATM   21  C   UNK N   1      37.937   9.048  14.647  0.00  0.00     0.017 A 
HETATM   22  C   UNK N   1      37.540  10.029  15.551  0.00  0.00     0.013 A 
BRANCH  20  23
HETATM   23  C   UNK N   1      37.405   7.224  13.003  0.00  0.00     0.417 C 
HETATM   24  F   UNK N   1      37.964   7.822  11.889  0.00  0.00    -0.166 F 
HETATM   25  F   UNK N   1      38.343   6.369  13.561  0.00  0.00    -0.166 F 
HETATM   26  F   UNK N   1      36.305   6.481  12.617  0.00  0.00    -0.166 F 
ENDBRANCH  20  23
ENDBRANCH  16  17
ENDBRANCH   8  11
ENDBRANCH   4   7
BRANCH   1  27
HETATM   27  C   UNK N   1      33.687  13.758   9.747  0.00  0.00     0.022 C 
HETATM   28  C   UNK N   1      33.240  15.172   9.432  0.00  0.00     0.039 C 
HETATM   29  C   UNK N   1      34.412  15.919   8.798  0.00  0.00     0.274 C 
HETATM   30  N   UNK N   1      34.858  15.278   7.548  0.00  0.00     0.107 N 
HETATM   31  C   UNK N   1      35.238  13.873   7.779  0.00  0.00     0.274 C 
HETATM   32  C   UNK N   1      34.122  13.071   8.452  0.00  0.00     0.039 C 
BRANCH  30  33
HETATM   33  C   UNK N   1      33.854  15.488   6.483  0.00  0.00     0.354 C 
BRANCH  33  34
HETATM   34  C   UNK N   1      33.585  16.980   6.301  0.00  0.00     0.296 C 
HETATM   35  O   UNK N   1      34.521  17.765   6.274  0.00  0.00    -0.262 OA
BRANCH  34  36
HETATM   36  O   UNK N   1      32.325  17.465   6.188  0.00  0.00    -0.325 OA
HETATM   37  C   UNK N   1      31.235  16.859   6.766  0.00  0.00     0.213 C 
ENDBRANCH  34  36
ENDBRANCH  33  34
BRANCH  33  38
HETATM   38  C   UNK N   1      34.236  14.806   5.176  0.00  0.00    -0.015 A 
HETATM   39  C   UNK N   1      33.262  14.614   4.182  0.00  0.00     0.010 A 
HETATM   40  C   UNK N   1      33.583  13.966   2.987  0.00  0.00     0.001 A 
HETATM   41  C   UNK N   1      34.883  13.510   2.770  0.00  0.00     0.000 A 
HETATM   42  C   UNK N   1      35.865  13.706   3.744  0.00  0.00     0.001 A 
HETATM   43  C   UNK N   1      35.544  14.350   4.943  0.00  0.00     0.010 A 
ENDBRANCH  33  38
ENDBRANCH  30  33
ENDBRANCH   1  27
TORSDOF 9
ENDMDL
MODEL 9
REMARK VINA RESULT:      -7.5      4.839     11.343
REMARK  9 active torsions:
REMARK  status: ('A' for Active; 'I' for Inactive)
REMARK    1  A    between atoms: O_2  and  C_3 
REMARK    2  A    between atoms: C_5  and  C_3 
REMARK    3  A    between atoms: C_5  and  C_6 
REMARK    4  A    between atoms: C_5  and  N_12 
REMARK    5  A    between atoms: C_15  and  C_18 
REMARK    6  A    between atoms: C_21  and  N_24 
REMARK       I    between atoms: N_24  and  C_25 
REMARK    7  A    between atoms: C_25  and  C_27 
REMARK    8  A    between atoms: C_32  and  C_33 
REMARK    9  A    between atoms: C_36  and  C_39 
ROOT
HETATM    1  C   UNK N   1      31.215  14.632   3.472  0.00  0.00    -0.054 A 
HETATM    2  C   UNK N   1      32.014  15.649   4.006  0.00  0.00     0.010 A 
HETATM    3  C   UNK N   1      33.147  15.329   4.749  0.00  0.00     0.030 A 
HETATM    4  C   UNK N   1      33.523  13.993   4.922  0.00  0.00     0.035 A 
HETATM    5  C   UNK N   1      32.766  12.983   4.308  0.00  0.00     0.030 A 
HETATM    6  C   UNK N   1      31.629  13.299   3.585  0.00  0.00     0.010 A 
ENDROOT
BRANCH   4   7
HETATM    7  N   UNK N   1      34.145  13.649   6.142  0.00  0.00    -0.323 N 
HETATM    8  C   UNK N   1      35.172  14.471   6.510  0.00  0.00     0.257 C 
HETATM    9  O   UNK N   1      35.590  15.308   5.720  0.00  0.00    -0.267 OA
HETATM   10  H   UNK N   1      33.860  12.878   6.685  0.00  0.00     0.169 HD
BRANCH   8  11
HETATM   11  C   UNK N   1      35.811  14.411   7.824  0.00  0.00     0.043 A 
HETATM   12  C   UNK N   1      36.969  13.646   7.975  0.00  0.00     0.018 A 
HETATM   13  C   UNK N   1      37.706  13.718   9.155  0.00  0.00     0.001 A 
HETATM   14  C   UNK N   1      37.298  14.568  10.184  0.00  0.00     0.001 A 
HETATM   15  C   UNK N   1      36.118  15.309  10.061  0.00  0.00     0.013 A 
HETATM   16  C   UNK N   1      35.343  15.239   8.895  0.00  0.00    -0.010 A 
BRANCH  16  17
HETATM   17  C   UNK N   1      34.020  15.974   8.861  0.00  0.00    -0.025 A 
HETATM   18  C   UNK N   1      32.813  15.310   9.144  0.00  0.00     0.013 A 
HETATM   19  C   UNK N   1      31.587  15.993   9.073  0.00  0.00     0.017 A 
HETATM   20  C   UNK N   1      31.545  17.346   8.697  0.00  0.00     0.048 A 
HETATM   21  C   UNK N   1      32.734  18.001   8.382  0.00  0.00     0.017 A 
HETATM   22  C   UNK N   1      33.945  17.320   8.453  0.00  0.00     0.013 A 
BRANCH  20  23
HETATM   23  C   UNK N   1      30.234  18.080   8.628  0.00  0.00     0.417 C 
HETATM   24  F   UNK N   1      29.712  17.981   7.352  0.00  0.00    -0.166 F 
HETATM   25  F   UNK N   1      29.316  17.551   9.523  0.00  0.00    -0.166 F 
HETATM   26  F   UNK N   1      30.433  19.413   8.937  0.00  0.00    -0.166 F 
ENDBRANCH  20  23
ENDBRANCH  16  17
ENDBRANCH   8  11
ENDBRANCH   4   7
BRANCH   1  27
HETATM   27  C   UNK N   1      29.894  14.992   2.839  0.00  0.00     0.022 C 
HETATM   28  C   UNK N   1      28.762  14.233   3.504  0.00  0.00     0.039 C 
HETATM   29  C   UNK N   1      28.627  14.729   4.942  0.00  0.00     0.274 C 
HETATM   30  N   UNK N   1      28.323  16.171   4.998  0.00  0.00     0.107 N 
HETATM   31  C   UNK N   1      29.356  16.958   4.303  0.00  0.00     0.274 C 
HETATM   32  C   UNK N   1      29.574  16.488   2.862  0.00  0.00     0.039 C 
BRANCH  30  33
HETATM   33  C   UNK N   1      26.937  16.416   4.544  0.00  0.00     0.354 C 
BRANCH  33  34
HETATM   34  C   UNK N   1      25.955  15.621   5.402  0.00  0.00     0.296 C 
HETATM   35  O   UNK N   1      26.005  15.711   6.620  0.00  0.00    -0.262 OA
BRANCH  34  36
HETATM   36  O   UNK N   1      25.035  14.795   4.847  0.00  0.00    -0.325 OA
HETATM   37  C   UNK N   1      25.011  14.496   3.506  0.00  0.00     0.213 C 
ENDBRANCH  34  36
ENDBRANCH  33  34
BRANCH  33  38
HETATM   38  C   UNK N   1      26.591  17.898   4.493  0.00  0.00    -0.015 A 
HETATM   39  C   UNK N   1      26.993  18.741   5.543  0.00  0.00     0.010 A 
HETATM   40  C   UNK N   1      26.663  20.098   5.530  0.00  0.00     0.001 A 
HETATM   41  C   UNK N   1      25.934  20.628   4.465  0.00  0.00     0.000 A 
HETATM   42  C   UNK N   1      25.539  19.803   3.409  0.00  0.00     0.001 A 
HETATM   43  C   UNK N   1      25.866  18.444   3.422  0.00  0.00     0.010 A 
ENDBRANCH  33  38
ENDBRANCH  30  33
ENDBRANCH   1  27
TORSDOF 9
ENDMDL
