REMARK  1 active torsions:
REMARK  status: ('A' for Active; 'I' for Inactive)
REMARK    1  A    between atoms: N_16  and  C_10 
ROOT
HETATM    1  C   UNK N   1      -1.929   4.198  -0.000  0.00  0.00     0.001 A 
HETATM    2  C   UNK N   1      -2.556   2.930  -0.000  0.00  0.00     0.001 A 
HETATM    3  C   UNK N   1      -0.528   4.301  -0.000  0.00  0.00     0.016 A 
HETATM    4  C   UNK N   1      -1.790   1.749  -0.000  0.00  0.00     0.018 A 
HETATM    5  C   UNK N   1       6.288   3.858  -0.000  0.00  0.00     0.031 A 
HETATM    6  C   UNK N   1       4.953   4.268  -0.000  0.00  0.00     0.032 A 
HETATM    7  C   UNK N   1       5.589   1.538   0.000  0.00  0.00     0.040 A 
HETATM    8  C   UNK N   1       3.173   0.879   0.000  0.00  0.00     0.174 A 
HETATM    9  C   UNK N   1       4.252   1.934   0.000  0.00  0.00    -0.011 A 
HETATM   10  C   UNK N   1       6.604   2.496  -0.000  0.00  0.00     0.026 A 
HETATM   11  C   UNK N   1       0.204   3.120  -0.000  0.00  0.00     0.024 A 
HETATM   12  C   UNK N   1      -0.405   1.876   0.000  0.00  0.00     0.046 A 
HETATM   13  C   UNK N   1       3.930   3.317   0.000  0.00  0.00     0.041 A 
HETATM   14  C   UNK N   1       1.635   2.879   0.000  0.00  0.00     0.122 A 
HETATM   15  C   UNK N   1       0.667   0.869   0.000  0.00  0.00     0.260 A 
HETATM   16  N   UNK N   1       2.578   3.748  -0.000  0.00  0.00    -0.341 N 
ATOM     17  HN  UNK N   1       2.357   4.744  -0.000  1.00  0.00     0.167 HD
HETATM   18  N   UNK N   1       1.864   1.490   0.000  0.00  0.00    -0.294 N 
HETATM   19  O   UNK N   1       0.523  -0.345   0.000  0.00  0.00    -0.267 OA
ENDROOT
BRANCH  10  20
HETATM   20  N   UNK N   1       7.951   2.088  -0.000  0.00  0.00    -0.399 N 
HETATM   21  H   UNK N   1       8.174   1.129  -0.000  0.00  0.00     0.156 HD
HETATM   22  H   UNK N   1       8.669   2.761  -0.000  0.00  0.00     0.156 HD
ENDBRANCH  10  20
TORSDOF 1
