REMARK  5 active torsions:
REMARK  status: ('A' for Active; 'I' for Inactive)
REMARK    1  A    between atoms: C_14  and  C_24 
REMARK    2  A    between atoms: C_17  and  C_18 
REMARK    3  A    between atoms: C_18  and  C_19 
REMARK    4  A    between atoms: C_19  and  C_20 
REMARK    5  A    between atoms: C_20  and  O_22 
ROOT
HETATM    1  C   UNK N   1       2.699  -1.380   0.786  0.00  0.00     0.070 C 
HETATM    2  C   UNK N   1       2.969   0.006   0.301  0.00  0.00     0.030 A 
HETATM    3  C   UNK N   1       4.233   0.512   0.177  0.00  0.00     0.114 A 
HETATM    4  N   UNK N   1       4.129   1.763  -0.286  0.00  0.00    -0.352 N 
ATOM      5  HN  UNK N   1       4.896   2.402  -0.494  1.00  0.00     0.166 HD
HETATM    6  C   UNK N   1       2.809   2.016  -0.423  0.00  0.00     0.111 A 
HETATM    7  N   UNK N   1       2.060   0.950  -0.071  0.00  0.00    -0.301 N 
HETATM    8  C   UNK N   1       0.613   0.787  -0.071  0.00  0.00     0.053 A 
HETATM    9  C   UNK N   1       0.117  -0.524   0.100  0.00  0.00     0.032 A 
HETATM   10  C   UNK N   1      -1.234  -0.806   0.222  0.00  0.00     0.021 A 
HETATM   11  C   UNK N   1      -2.146   0.227   0.179  0.00  0.00     0.011 A 
HETATM   12  C   UNK N   1      -1.700   1.529   0.002  0.00  0.00     0.035 A 
HETATM   13  C   UNK N   1      -0.338   1.869  -0.135  0.00  0.00     0.021 A 
HETATM   14  C   UNK N   1      -0.024   3.357  -0.230  0.00  0.00     0.068 C 
HETATM   15  N   UNK N   1       1.122   3.833  -0.571  0.00  0.00    -0.376 N 
ATOM     16  HN  UNK N   1       1.193   4.842  -0.435  1.00  0.00     0.160 HD
HETATM   17  C   UNK N   1       2.316   3.252  -1.100  0.00  0.00     0.150 C 
HETATM   18 Br   UNK N   1      -4.003  -0.126   0.412  0.00  0.00    -0.051 Br
ENDROOT
BRANCH  14  19
HETATM   19  C   UNK N   1      -1.064   4.428   0.006  0.00  0.00     0.059 A 
HETATM   20  C   UNK N   1      -2.411   4.156   0.296  0.00  0.00     0.032 A 
HETATM   21  C   UNK N   1      -3.323   5.203   0.437  0.00  0.00     0.004 A 
HETATM   22  C   UNK N   1      -2.894   6.520   0.292  0.00  0.00     0.017 A 
HETATM   23  C   UNK N   1      -1.553   6.770   0.011  0.00  0.00     0.088 A 
HETATM   24  N   UNK N   1      -0.683   5.735  -0.127  0.00  0.00    -0.364 N 
ATOM     25  HN  UNK N   1       0.294   5.940  -0.339  1.00  0.00     0.165 HD
ENDBRANCH  14  19
BRANCH  17  26
HETATM   26  C   UNK N   1       3.313   4.425  -1.107  0.00  0.00     0.043 C 
BRANCH  26  27
HETATM   27  C   UNK N   1       4.730   4.197  -1.613  0.00  0.00     0.113 C 
BRANCH  27  28
HETATM   28  C   UNK N   1       5.684   4.250  -0.455  0.00  0.00     0.258 C 
HETATM   29  O   UNK N   1       5.687   5.220   0.293  0.00  0.00    -0.265 OA
BRANCH  28  30
HETATM   30  O   UNK N   1       6.520   3.207  -0.238  0.00  0.00    -0.326 OA
HETATM   31  C   UNK N   1       7.366   3.150   0.845  0.00  0.00     0.213 C 
ENDBRANCH  28  30
ENDBRANCH  27  28
ENDBRANCH  26  27
ENDBRANCH  17  26
TORSDOF 5
