MODEL 1
REMARK VINA RESULT:      -8.7      0.000      0.000
REMARK  2 active torsions:
REMARK  status: ('A' for Active; 'I' for Inactive)
REMARK    1  A    between atoms: C_17  and  N_28 
REMARK    2  A    between atoms: N_28  and  S_29 
ROOT
HETATM    1  C   UNK N   1      36.830  10.584  20.716  0.00  0.00     0.011 C 
HETATM    2  C   UNK N   1      36.544   9.890  19.402  0.00  0.00     0.001 C 
HETATM    3  C   UNK N   1      35.052   9.864  19.107  0.00  0.00     0.039 C 
HETATM    4  C   UNK N   1      34.769   9.226  17.732  0.00  0.00     0.145 C 
HETATM    5  C   UNK N   1      35.865   8.271  17.270  0.00  0.00     0.112 C 
HETATM    6  C   UNK N   1      36.770   9.222  16.569  0.00  0.00     0.041 C 
HETATM    7  C   UNK N   1      35.787  10.178  15.907  0.00  0.00     0.070 C 
HETATM    8  O   UNK N   1      34.641  10.236  16.744  0.00  0.00    -0.372 OA
HETATM    9  C   UNK N   1      35.418   9.661  14.517  0.00  0.00     0.039 C 
HETATM   10  C   UNK N   1      34.176  10.342  14.010  0.00  0.00     0.012 C 
HETATM   11  C   UNK N   1      34.424  11.674  13.330  0.00  0.00     0.019 C 
HETATM   12  C   UNK N   1      35.121  11.637  12.000  0.00  0.00    -0.001 C 
HETATM   13  C   UNK N   1      34.613  10.854  10.811  0.00  0.00     0.006 C 
HETATM   14  C   UNK N   1      35.762  10.859   9.789  0.00  0.00     0.006 C 
HETATM   15  C   UNK N   1      36.293  12.274   9.448  0.00  0.00    -0.004 C 
HETATM   16  C   UNK N   1      35.627  12.876   8.210  0.00  0.00     0.031 C 
HETATM   17  C   UNK N   1      34.678  14.023   8.541  0.00  0.00     0.093 C 
HETATM   18  C   UNK N   1      35.402  15.139   9.312  0.00  0.00     0.026 C 
HETATM   19  C   UNK N   1      36.599  14.677  10.162  0.00  0.00     0.012 C 
HETATM   20  C   UNK N   1      36.468  13.236  10.661  0.00  0.00    -0.036 C 
HETATM   21  C   UNK N   1      35.266  13.106  11.616  0.00  0.00     0.003 C 
HETATM   22  C   UNK N   1      35.359  13.869  12.949  0.00  0.00     0.040 C 
HETATM   23  C   UNK N   1      35.302  12.733  13.918  0.00  0.00    -0.073 C 
HETATM   24  C   UNK N   1      36.156  12.700  14.977  0.00  0.00    -0.078 C 
HETATM   25  C   UNK N   1      36.472  11.538  15.891  0.00  0.00     0.072 C 
HETATM   26  C   UNK N   1      37.005  13.907  15.241  0.00  0.00     0.044 C 
HETATM   27  C   UNK N   1      37.758  12.864  11.382  0.00  0.00     0.016 C 
HETATM   28  C   UNK N   1      37.825   8.570  15.680  0.00  0.00     0.015 C 
HETATM   29  N   UNK N   1      36.525   7.572  18.385  0.00  0.00    -0.414 N 
HETATM   30  C   UNK N   1      37.087   8.457  19.428  0.00  0.00     0.118 C 
HETATM   31  H   UNK N   1      36.589   6.555  18.435  0.00  0.00     0.153 HD
ENDROOT
BRANCH  17  32
HETATM   32  N   UNK N   1      34.145  14.595   7.307  0.00  0.00    -0.315 N 
HETATM   33  H   UNK N   1      34.710  14.879   6.508  0.00  0.00     0.172 HD
BRANCH  32  34
HETATM   34  S   UNK N   1      32.377  14.724   7.392  0.00  0.00     0.223 S 
HETATM   35  O   UNK N   1      31.840  13.743   6.338  0.00  0.00    -0.206 OA
HETATM   36  O   UNK N   1      32.022  13.994   8.696  0.00  0.00    -0.206 OA
HETATM   37  C   UNK N   1      31.604  16.367   7.335  0.00  0.00     0.185 C 
ENDBRANCH  32  34
ENDBRANCH  17  32
TORSDOF 2
ENDMDL
MODEL 2
REMARK VINA RESULT:      -8.5     18.050     22.316
REMARK  2 active torsions:
REMARK  status: ('A' for Active; 'I' for Inactive)
REMARK    1  A    between atoms: C_17  and  N_28 
REMARK    2  A    between atoms: N_28  and  S_29 
ROOT
HETATM    1  C   UNK N   1      25.250  25.798  -6.258  0.00  0.00     0.011 C 
HETATM    2  C   UNK N   1      26.489  25.696  -5.394  0.00  0.00     0.001 C 
HETATM    3  C   UNK N   1      26.267  24.748  -4.225  0.00  0.00     0.039 C 
HETATM    4  C   UNK N   1      27.553  24.584  -3.392  0.00  0.00     0.145 C 
HETATM    5  C   UNK N   1      28.508  25.768  -3.512  0.00  0.00     0.112 C 
HETATM    6  C   UNK N   1      29.303  25.351  -4.699  0.00  0.00     0.041 C 
HETATM    7  C   UNK N   1      29.429  23.848  -4.494  0.00  0.00     0.070 C 
HETATM    8  O   UNK N   1      28.260  23.426  -3.807  0.00  0.00    -0.372 OA
HETATM    9  C   UNK N   1      30.681  23.540  -3.673  0.00  0.00     0.039 C 
HETATM   10  C   UNK N   1      30.622  22.143  -3.119  0.00  0.00     0.012 C 
HETATM   11  C   UNK N   1      31.114  21.069  -4.070  0.00  0.00     0.019 C 
HETATM   12  C   UNK N   1      32.587  21.046  -4.363  0.00  0.00    -0.001 C 
HETATM   13  C   UNK N   1      33.650  20.924  -3.295  0.00  0.00     0.006 C 
HETATM   14  C   UNK N   1      34.981  21.238  -3.997  0.00  0.00     0.006 C 
HETATM   15  C   UNK N   1      35.240  20.383  -5.264  0.00  0.00    -0.004 C 
HETATM   16  C   UNK N   1      36.065  19.128  -4.976  0.00  0.00     0.031 C 
HETATM   17  C   UNK N   1      35.250  17.843  -5.070  0.00  0.00     0.093 C 
HETATM   18  C   UNK N   1      34.591  17.702  -6.452  0.00  0.00     0.026 C 
HETATM   19  C   UNK N   1      34.280  19.029  -7.168  0.00  0.00     0.012 C 
HETATM   20  C   UNK N   1      34.013  20.188  -6.205  0.00  0.00    -0.036 C 
HETATM   21  C   UNK N   1      32.747  19.914  -5.371  0.00  0.00     0.003 C 
HETATM   22  C   UNK N   1      31.415  19.860  -6.140  0.00  0.00     0.040 C 
HETATM   23  C   UNK N   1      30.686  20.998  -5.502  0.00  0.00    -0.073 C 
HETATM   24  C   UNK N   1      29.996  21.880  -6.274  0.00  0.00    -0.078 C 
HETATM   25  C   UNK N   1      29.446  23.235  -5.888  0.00  0.00     0.072 C 
HETATM   26  C   UNK N   1      29.833  21.571  -7.732  0.00  0.00     0.044 C 
HETATM   27  C   UNK N   1      33.839  21.459  -7.029  0.00  0.00     0.016 C 
HETATM   28  C   UNK N   1      30.589  26.142  -4.923  0.00  0.00     0.015 C 
HETATM   29  N   UNK N   1      27.811  27.050  -3.714  0.00  0.00    -0.414 N 
HETATM   30  C   UNK N   1      26.885  27.078  -4.867  0.00  0.00     0.118 C 
HETATM   31  H   UNK N   1      27.955  27.856  -3.105  0.00  0.00     0.153 HD
ENDROOT
BRANCH  17  32
HETATM   32  N   UNK N   1      36.120  16.689  -4.861  0.00  0.00    -0.315 N 
HETATM   33  H   UNK N   1      36.996  16.526  -5.357  0.00  0.00     0.172 HD
BRANCH  32  34
HETATM   34  S   UNK N   1      35.444  15.611  -3.625  0.00  0.00     0.223 S 
HETATM   35  O   UNK N   1      36.414  15.686  -2.436  0.00  0.00    -0.206 OA
HETATM   36  O   UNK N   1      34.237  16.393  -3.083  0.00  0.00    -0.206 OA
HETATM   37  C   UNK N   1      34.967  13.920  -4.086  0.00  0.00     0.185 C 
ENDBRANCH  32  34
ENDBRANCH  17  32
TORSDOF 2
ENDMDL
MODEL 3
REMARK VINA RESULT:      -8.1      7.640     14.603
REMARK  2 active torsions:
REMARK  status: ('A' for Active; 'I' for Inactive)
REMARK    1  A    between atoms: C_17  and  N_28 
REMARK    2  A    between atoms: N_28  and  S_29 
ROOT
HETATM    1  C   UNK N   1      21.311  14.067   0.804  0.00  0.00     0.011 C 
HETATM    2  C   UNK N   1      21.547  14.670   2.172  0.00  0.00     0.001 C 
HETATM    3  C   UNK N   1      21.735  13.587   3.224  0.00  0.00     0.039 C 
HETATM    4  C   UNK N   1      22.052  14.201   4.602  0.00  0.00     0.145 C 
HETATM    5  C   UNK N   1      21.538  15.629   4.762  0.00  0.00     0.112 C 
HETATM    6  C   UNK N   1      22.699  16.393   4.228  0.00  0.00     0.041 C 
HETATM    7  C   UNK N   1      23.883  15.582   4.737  0.00  0.00     0.070 C 
HETATM    8  O   UNK N   1      23.455  14.229   4.813  0.00  0.00    -0.372 OA
HETATM    9  C   UNK N   1      24.307  16.093   6.114  0.00  0.00     0.039 C 
HETATM   10  C   UNK N   1      25.184  15.087   6.807  0.00  0.00     0.012 C 
HETATM   11  C   UNK N   1      26.653  15.175   6.441  0.00  0.00     0.019 C 
HETATM   12  C   UNK N   1      27.402  16.380   6.932  0.00  0.00    -0.001 C 
HETATM   13  C   UNK N   1      27.496  16.770   8.389  0.00  0.00     0.006 C 
HETATM   14  C   UNK N   1      28.085  18.190   8.402  0.00  0.00     0.006 C 
HETATM   15  C   UNK N   1      29.411  18.327   7.613  0.00  0.00    -0.004 C 
HETATM   16  C   UNK N   1      30.649  18.161   8.496  0.00  0.00     0.031 C 
HETATM   17  C   UNK N   1      31.391  16.853   8.243  0.00  0.00     0.093 C 
HETATM   18  C   UNK N   1      31.809  16.727   6.768  0.00  0.00     0.026 C 
HETATM   19  C   UNK N   1      30.905  17.466   5.766  0.00  0.00     0.012 C 
HETATM   20  C   UNK N   1      29.454  17.593   6.238  0.00  0.00    -0.036 C 
HETATM   21  C   UNK N   1      28.806  16.202   6.363  0.00  0.00     0.003 C 
HETATM   22  C   UNK N   1      28.619  15.409   5.056  0.00  0.00     0.040 C 
HETATM   23  C   UNK N   1      27.130  15.279   5.027  0.00  0.00    -0.073 C 
HETATM   24  C   UNK N   1      26.452  15.500   3.868  0.00  0.00    -0.078 C 
HETATM   25  C   UNK N   1      24.967  15.711   3.676  0.00  0.00     0.072 C 
HETATM   26  C   UNK N   1      27.243  15.684   2.607  0.00  0.00     0.044 C 
HETATM   27  C   UNK N   1      28.696  18.441   5.222  0.00  0.00     0.016 C 
HETATM   28  C   UNK N   1      22.684  17.887   4.536  0.00  0.00     0.015 C 
HETATM   29  N   UNK N   1      20.297  15.880   4.010  0.00  0.00    -0.414 N 
HETATM   30  C   UNK N   1      20.371  15.569   2.566  0.00  0.00     0.118 C 
HETATM   31  H   UNK N   1      19.450  16.240   4.452  0.00  0.00     0.153 HD
ENDROOT
BRANCH  17  32
HETATM   32  N   UNK N   1      32.599  16.803   9.063  0.00  0.00    -0.315 N 
HETATM   33  H   UNK N   1      33.028  17.611   9.512  0.00  0.00     0.172 HD
BRANCH  32  34
HETATM   34  S   UNK N   1      33.212  15.142   9.170  0.00  0.00     0.223 S 
HETATM   35  O   UNK N   1      33.595  14.937  10.644  0.00  0.00    -0.206 OA
HETATM   36  O   UNK N   1      31.945  14.279   9.063  0.00  0.00    -0.206 OA
HETATM   37  C   UNK N   1      34.479  14.585   7.993  0.00  0.00     0.185 C 
ENDBRANCH  32  34
ENDBRANCH  17  32
TORSDOF 2
ENDMDL
MODEL 4
REMARK VINA RESULT:      -7.9      6.613     11.896
REMARK  2 active torsions:
REMARK  status: ('A' for Active; 'I' for Inactive)
REMARK    1  A    between atoms: C_17  and  N_28 
REMARK    2  A    between atoms: N_28  and  S_29 
ROOT
HETATM    1  C   UNK N   1      25.762  20.909   5.682  0.00  0.00     0.011 C 
HETATM    2  C   UNK N   1      26.373  19.575   5.312  0.00  0.00     0.001 C 
HETATM    3  C   UNK N   1      27.449  19.739   4.249  0.00  0.00     0.039 C 
HETATM    4  C   UNK N   1      28.124  18.390   3.930  0.00  0.00     0.145 C 
HETATM    5  C   UNK N   1      27.243  17.184   4.238  0.00  0.00     0.112 C 
HETATM    6  C   UNK N   1      27.599  16.950   5.665  0.00  0.00     0.041 C 
HETATM    7  C   UNK N   1      29.090  17.262   5.682  0.00  0.00     0.070 C 
HETATM    8  O   UNK N   1      29.316  18.250   4.686  0.00  0.00    -0.372 OA
HETATM    9  C   UNK N   1      29.888  15.994   5.377  0.00  0.00     0.039 C 
HETATM   10  C   UNK N   1      31.302  16.336   4.994  0.00  0.00     0.012 C 
HETATM   11  C   UNK N   1      32.244  16.518   6.169  0.00  0.00     0.019 C 
HETATM   12  C   UNK N   1      32.601  15.285   6.948  0.00  0.00    -0.001 C 
HETATM   13  C   UNK N   1      33.225  14.056   6.330  0.00  0.00     0.006 C 
HETATM   14  C   UNK N   1      33.142  12.961   7.406  0.00  0.00     0.006 C 
HETATM   15  C   UNK N   1      33.750  13.374   8.770  0.00  0.00    -0.004 C 
HETATM   16  C   UNK N   1      35.211  12.952   8.922  0.00  0.00     0.031 C 
HETATM   17  C   UNK N   1      36.181  14.129   8.872  0.00  0.00     0.093 C 
HETATM   18  C   UNK N   1      35.846  15.172   9.952  0.00  0.00     0.026 C 
HETATM   19  C   UNK N   1      34.365  15.232  10.368  0.00  0.00     0.012 C 
HETATM   20  C   UNK N   1      33.405  14.816   9.250  0.00  0.00    -0.036 C 
HETATM   21  C   UNK N   1      33.497  15.801   8.069  0.00  0.00     0.003 C 
HETATM   22  C   UNK N   1      33.028  17.243   8.336  0.00  0.00     0.040 C 
HETATM   23  C   UNK N   1      31.896  17.345   7.366  0.00  0.00    -0.073 C 
HETATM   24  C   UNK N   1      30.719  17.907   7.752  0.00  0.00    -0.078 C 
HETATM   25  C   UNK N   1      29.378  17.851   7.055  0.00  0.00     0.072 C 
HETATM   26  C   UNK N   1      30.660  18.579   9.092  0.00  0.00     0.044 C 
HETATM   27  C   UNK N   1      31.991  14.804   9.819  0.00  0.00     0.016 C 
HETATM   28  C   UNK N   1      27.156  15.602   6.226  0.00  0.00     0.015 C 
HETATM   29  N   UNK N   1      25.808  17.456   4.047  0.00  0.00    -0.414 N 
HETATM   30  C   UNK N   1      25.290  18.618   4.802  0.00  0.00     0.118 C 
HETATM   31  H   UNK N   1      25.217  16.888   3.440  0.00  0.00     0.153 HD
ENDROOT
BRANCH  17  32
HETATM   32  N   UNK N   1      37.543  13.657   9.103  0.00  0.00    -0.315 N 
HETATM   33  H   UNK N   1      37.975  13.559  10.021  0.00  0.00     0.172 HD
BRANCH  32  34
HETATM   34  S   UNK N   1      38.341  13.277   7.565  0.00  0.00     0.223 S 
HETATM   35  O   UNK N   1      37.550  14.037   6.489  0.00  0.00    -0.206 OA
HETATM   36  O   UNK N   1      39.642  14.092   7.619  0.00  0.00    -0.206 OA
HETATM   37  C   UNK N   1      38.680  11.542   7.146  0.00  0.00     0.185 C 
ENDBRANCH  32  34
ENDBRANCH  17  32
TORSDOF 2
ENDMDL
MODEL 5
REMARK VINA RESULT:      -7.6      3.623      6.070
REMARK  2 active torsions:
REMARK  status: ('A' for Active; 'I' for Inactive)
REMARK    1  A    between atoms: C_17  and  N_28 
REMARK    2  A    between atoms: N_28  and  S_29 
ROOT
HETATM    1  C   UNK N   1      37.149  13.012  15.031  0.00  0.00     0.011 C 
HETATM    2  C   UNK N   1      36.821  12.340  13.715  0.00  0.00     0.001 C 
HETATM    3  C   UNK N   1      35.398  11.800  13.713  0.00  0.00     0.039 C 
HETATM    4  C   UNK N   1      35.040  11.185  12.346  0.00  0.00     0.145 C 
HETATM    5  C   UNK N   1      36.257  10.713  11.557  0.00  0.00     0.112 C 
HETATM    6  C   UNK N   1      36.606  11.963  10.828  0.00  0.00     0.041 C 
HETATM    7  C   UNK N   1      35.236  12.543  10.503  0.00  0.00     0.070 C 
HETATM    8  O   UNK N   1      34.359  12.139  11.546  0.00  0.00    -0.372 OA
HETATM    9  C   UNK N   1      34.755  12.010   9.154  0.00  0.00     0.039 C 
HETATM   10  C   UNK N   1      33.276  12.231   8.992  0.00  0.00     0.012 C 
HETATM   11  C   UNK N   1      32.900  13.602   8.463  0.00  0.00     0.019 C 
HETATM   12  C   UNK N   1      33.246  13.893   7.031  0.00  0.00    -0.001 C 
HETATM   13  C   UNK N   1      32.774  13.051   5.868  0.00  0.00     0.006 C 
HETATM   14  C   UNK N   1      33.589  13.525   4.654  0.00  0.00     0.006 C 
HETATM   15  C   UNK N   1      33.522  15.054   4.410  0.00  0.00    -0.004 C 
HETATM   16  C   UNK N   1      32.430  15.450   3.417  0.00  0.00     0.031 C 
HETATM   17  C   UNK N   1      31.252  16.162   4.076  0.00  0.00     0.093 C 
HETATM   18  C   UNK N   1      31.715  17.416   4.836  0.00  0.00     0.026 C 
HETATM   19  C   UNK N   1      33.159  17.363   5.369  0.00  0.00     0.012 C 
HETATM   20  C   UNK N   1      33.636  15.943   5.685  0.00  0.00    -0.036 C 
HETATM   21  C   UNK N   1      32.799  15.337   6.828  0.00  0.00     0.003 C 
HETATM   22  C   UNK N   1      32.931  16.004   8.209  0.00  0.00     0.040 C 
HETATM   23  C   UNK N   1      33.482  14.868   9.008  0.00  0.00    -0.073 C 
HETATM   24  C   UNK N   1      34.515  15.080   9.868  0.00  0.00    -0.078 C 
HETATM   25  C   UNK N   1      35.402  14.056  10.539  0.00  0.00     0.072 C 
HETATM   26  C   UNK N   1      34.946  16.493  10.124  0.00  0.00     0.044 C 
HETATM   27  C   UNK N   1      35.105  16.014   6.087  0.00  0.00     0.016 C 
HETATM   28  C   UNK N   1      37.586  11.783   9.673  0.00  0.00     0.015 C 
HETATM   29  N   UNK N   1      37.349  10.231  12.419  0.00  0.00    -0.414 N 
HETATM   30  C   UNK N   1      37.804  11.197  13.443  0.00  0.00     0.118 C 
HETATM   31  H   UNK N   1      37.760   9.303  12.318  0.00  0.00     0.153 HD
ENDROOT
BRANCH  17  32
HETATM   32  N   UNK N   1      30.292  16.577   3.057  0.00  0.00    -0.315 N 
HETATM   33  H   UNK N   1      30.542  16.913   2.128  0.00  0.00     0.172 HD
BRANCH  32  34
HETATM   34  S   UNK N   1      28.632  16.413   3.660  0.00  0.00     0.223 S 
HETATM   35  O   UNK N   1      28.039  17.830   3.629  0.00  0.00    -0.206 OA
HETATM   36  O   UNK N   1      27.886  15.745   2.495  0.00  0.00    -0.206 OA
HETATM   37  C   UNK N   1      28.336  15.522   5.216  0.00  0.00     0.185 C 
ENDBRANCH  32  34
ENDBRANCH  17  32
TORSDOF 2
ENDMDL
MODEL 6
REMARK VINA RESULT:      -7.5     13.253     16.668
REMARK  2 active torsions:
REMARK  status: ('A' for Active; 'I' for Inactive)
REMARK    1  A    between atoms: C_17  and  N_28 
REMARK    2  A    between atoms: N_28  and  S_29 
ROOT
HETATM    1  C   UNK N   1      28.920   7.962  -0.199  0.00  0.00     0.011 C 
HETATM    2  C   UNK N   1      28.758   9.014   0.877  0.00  0.00     0.001 C 
HETATM    3  C   UNK N   1      29.359  10.342   0.441  0.00  0.00     0.039 C 
HETATM    4  C   UNK N   1      29.125  11.432   1.505  0.00  0.00     0.145 C 
HETATM    5  C   UNK N   1      28.923  10.874   2.911  0.00  0.00     0.112 C 
HETATM    6  C   UNK N   1      27.451  10.658   2.904  0.00  0.00     0.041 C 
HETATM    7  C   UNK N   1      26.950  11.856   2.109  0.00  0.00     0.070 C 
HETATM    8  O   UNK N   1      27.971  12.191   1.181  0.00  0.00    -0.372 OA
HETATM    9  C   UNK N   1      26.673  13.025   3.055  0.00  0.00     0.039 C 
HETATM   10  C   UNK N   1      26.570  14.315   2.288  0.00  0.00     0.012 C 
HETATM   11  C   UNK N   1      25.195  14.595   1.713  0.00  0.00     0.019 C 
HETATM   12  C   UNK N   1      24.105  14.923   2.692  0.00  0.00    -0.001 C 
HETATM   13  C   UNK N   1      24.185  16.061   3.683  0.00  0.00     0.006 C 
HETATM   14  C   UNK N   1      23.016  15.846   4.658  0.00  0.00     0.006 C 
HETATM   15  C   UNK N   1      21.639  15.693   3.964  0.00  0.00    -0.004 C 
HETATM   16  C   UNK N   1      20.876  17.014   3.858  0.00  0.00     0.031 C 
HETATM   17  C   UNK N   1      20.805  17.549   2.432  0.00  0.00     0.093 C 
HETATM   18  C   UNK N   1      20.161  16.524   1.484  0.00  0.00     0.026 C 
HETATM   19  C   UNK N   1      20.343  15.051   1.893  0.00  0.00     0.012 C 
HETATM   20  C   UNK N   1      21.625  14.796   2.690  0.00  0.00    -0.036 C 
HETATM   21  C   UNK N   1      22.863  15.093   1.822  0.00  0.00     0.003 C 
HETATM   22  C   UNK N   1      23.088  14.177   0.606  0.00  0.00     0.040 C 
HETATM   23  C   UNK N   1      24.406  13.569   0.963  0.00  0.00    -0.073 C 
HETATM   24  C   UNK N   1      24.603  12.232   0.801  0.00  0.00    -0.078 C 
HETATM   25  C   UNK N   1      25.718  11.374   1.356  0.00  0.00     0.072 C 
HETATM   26  C   UNK N   1      23.547  11.440   0.089  0.00  0.00     0.044 C 
HETATM   27  C   UNK N   1      21.627  13.338   3.133  0.00  0.00     0.016 C 
HETATM   28  C   UNK N   1      26.829  10.413   4.276  0.00  0.00     0.015 C 
HETATM   29  N   UNK N   1      29.681   9.634   3.151  0.00  0.00    -0.414 N 
HETATM   30  C   UNK N   1      29.424   8.551   2.177  0.00  0.00     0.118 C 
HETATM   31  H   UNK N   1      30.333   9.530   3.928  0.00  0.00     0.153 HD
ENDROOT
BRANCH  17  32
HETATM   32  N   UNK N   1      19.998  18.766   2.401  0.00  0.00    -0.315 N 
HETATM   33  H   UNK N   1      18.991  18.790   2.243  0.00  0.00     0.172 HD
BRANCH  32  34
HETATM   34  S   UNK N   1      21.011  20.195   2.678  0.00  0.00     0.223 S 
HETATM   35  O   UNK N   1      20.745  21.128   1.487  0.00  0.00    -0.206 OA
HETATM   36  O   UNK N   1      20.290  20.938   3.813  0.00  0.00    -0.206 OA
HETATM   37  C   UNK N   1      22.772  19.973   3.065  0.00  0.00     0.185 C 
ENDBRANCH  32  34
ENDBRANCH  17  32
TORSDOF 2
ENDMDL
MODEL 7
REMARK VINA RESULT:      -7.5      2.914      4.918
REMARK  2 active torsions:
REMARK  status: ('A' for Active; 'I' for Inactive)
REMARK    1  A    between atoms: C_17  and  N_28 
REMARK    2  A    between atoms: N_28  and  S_29 
ROOT
HETATM    1  C   UNK N   1      36.888   6.052  23.345  0.00  0.00     0.011 C 
HETATM    2  C   UNK N   1      35.863   6.826  22.544  0.00  0.00     0.001 C 
HETATM    3  C   UNK N   1      36.029   8.325  22.742  0.00  0.00     0.039 C 
HETATM    4  C   UNK N   1      35.035   9.113  21.866  0.00  0.00     0.145 C 
HETATM    5  C   UNK N   1      33.787   8.316  21.498  0.00  0.00     0.112 C 
HETATM    6  C   UNK N   1      34.253   7.648  20.252  0.00  0.00     0.041 C 
HETATM    7  C   UNK N   1      35.103   8.732  19.602  0.00  0.00     0.070 C 
HETATM    8  O   UNK N   1      35.659   9.507  20.654  0.00  0.00    -0.372 OA
HETATM    9  C   UNK N   1      34.231   9.598  18.693  0.00  0.00     0.039 C 
HETATM   10  C   UNK N   1      34.929  10.888  18.360  0.00  0.00     0.012 C 
HETATM   11  C   UNK N   1      35.882  10.802  17.184  0.00  0.00     0.019 C 
HETATM   12  C   UNK N   1      35.267  10.617  15.826  0.00  0.00    -0.001 C 
HETATM   13  C   UNK N   1      34.244  11.560  15.236  0.00  0.00     0.006 C 
HETATM   14  C   UNK N   1      33.684  10.843  13.997  0.00  0.00     0.006 C 
HETATM   15  C   UNK N   1      34.772  10.368  13.000  0.00  0.00    -0.004 C 
HETATM   16  C   UNK N   1      35.040  11.380  11.887  0.00  0.00     0.031 C 
HETATM   17  C   UNK N   1      36.392  12.073  12.023  0.00  0.00     0.093 C 
HETATM   18  C   UNK N   1      37.541  11.050  12.056  0.00  0.00     0.026 C 
HETATM   19  C   UNK N   1      37.168   9.667  12.619  0.00  0.00     0.012 C 
HETATM   20  C   UNK N   1      36.032   9.715  13.643  0.00  0.00    -0.036 C 
HETATM   21  C   UNK N   1      36.465  10.514  14.887  0.00  0.00     0.003 C 
HETATM   22  C   UNK N   1      37.597   9.909  15.736  0.00  0.00     0.040 C 
HETATM   23  C   UNK N   1      36.886   9.703  17.034  0.00  0.00    -0.073 C 
HETATM   24  C   UNK N   1      37.045   8.538  17.718  0.00  0.00    -0.078 C 
HETATM   25  C   UNK N   1      36.219   8.003  18.866  0.00  0.00     0.072 C 
HETATM   26  C   UNK N   1      38.083   7.568  17.236  0.00  0.00     0.044 C 
HETATM   27  C   UNK N   1      35.681   8.283  14.031  0.00  0.00     0.016 C 
HETATM   28  C   UNK N   1      33.150   7.017  19.408  0.00  0.00     0.015 C 
HETATM   29  N   UNK N   1      33.388   7.358  22.543  0.00  0.00    -0.414 N 
HETATM   30  C   UNK N   1      34.446   6.408  22.951  0.00  0.00     0.118 C 
HETATM   31  H   UNK N   1      32.455   7.351  22.955  0.00  0.00     0.153 HD
ENDROOT
BRANCH  17  32
HETATM   32  N   UNK N   1      36.609  12.962  10.884  0.00  0.00    -0.315 N 
HETATM   33  H   UNK N   1      37.113  12.706  10.037  0.00  0.00     0.172 HD
BRANCH  32  34
HETATM   34  S   UNK N   1      35.871  14.548  11.181  0.00  0.00     0.223 S 
HETATM   35  O   UNK N   1      36.062  14.819  12.681  0.00  0.00    -0.206 OA
HETATM   36  O   UNK N   1      36.872  15.536  10.563  0.00  0.00    -0.206 OA
HETATM   37  C   UNK N   1      34.187  14.869  10.580  0.00  0.00     0.185 C 
ENDBRANCH  32  34
ENDBRANCH  17  32
TORSDOF 2
ENDMDL
MODEL 8
REMARK VINA RESULT:      -7.4      7.629     13.833
REMARK  2 active torsions:
REMARK  status: ('A' for Active; 'I' for Inactive)
REMARK    1  A    between atoms: C_17  and  N_28 
REMARK    2  A    between atoms: N_28  and  S_29 
ROOT
HETATM    1  C   UNK N   1      24.246  10.664  -0.250  0.00  0.00     0.011 C 
HETATM    2  C   UNK N   1      24.395  11.802   0.737  0.00  0.00     0.001 C 
HETATM    3  C   UNK N   1      24.373  11.293   2.170  0.00  0.00     0.039 C 
HETATM    4  C   UNK N   1      24.603  12.443   3.171  0.00  0.00     0.145 C 
HETATM    5  C   UNK N   1      24.211  13.811   2.622  0.00  0.00     0.112 C 
HETATM    6  C   UNK N   1      25.487  14.213   1.969  0.00  0.00     0.041 C 
HETATM    7  C   UNK N   1      26.532  13.667   2.933  0.00  0.00     0.070 C 
HETATM    8  O   UNK N   1      25.973  12.507   3.533  0.00  0.00    -0.372 OA
HETATM    9  C   UNK N   1      26.858  14.721   3.992  0.00  0.00     0.039 C 
HETATM   10  C   UNK N   1      27.561  14.094   5.165  0.00  0.00     0.012 C 
HETATM   11  C   UNK N   1      29.062  13.953   4.997  0.00  0.00     0.019 C 
HETATM   12  C   UNK N   1      29.866  15.221   5.008  0.00  0.00    -0.001 C 
HETATM   13  C   UNK N   1      29.846  16.214   6.147  0.00  0.00     0.006 C 
HETATM   14  C   UNK N   1      30.561  17.468   5.618  0.00  0.00     0.006 C 
HETATM   15  C   UNK N   1      31.968  17.189   5.033  0.00  0.00    -0.004 C 
HETATM   16  C   UNK N   1      33.087  17.384   6.056  0.00  0.00     0.031 C 
HETATM   17  C   UNK N   1      33.726  16.073   6.500  0.00  0.00     0.093 C 
HETATM   18  C   UNK N   1      34.280  15.289   5.298  0.00  0.00     0.026 C 
HETATM   19  C   UNK N   1      33.556  15.541   3.963  0.00  0.00     0.012 C 
HETATM   20  C   UNK N   1      32.083  15.920   4.135  0.00  0.00    -0.036 C 
HETATM   21  C   UNK N   1      31.298  14.755   4.766  0.00  0.00     0.003 C 
HETATM   22  C   UNK N   1      31.172  13.472   3.924  0.00  0.00     0.040 C 
HETATM   23  C   UNK N   1      29.689  13.401   3.756  0.00  0.00    -0.073 C 
HETATM   24  C   UNK N   1      29.157  13.110   2.538  0.00  0.00    -0.078 C 
HETATM   25  C   UNK N   1      27.726  13.270   2.077  0.00  0.00     0.072 C 
HETATM   26  C   UNK N   1      30.086  12.684   1.441  0.00  0.00     0.044 C 
HETATM   27  C   UNK N   1      31.516  16.257   2.761  0.00  0.00     0.016 C 
HETATM   28  C   UNK N   1      25.580  15.688   1.590  0.00  0.00     0.015 C 
HETATM   29  N   UNK N   1      23.082  13.750   1.678  0.00  0.00    -0.414 N 
HETATM   30  C   UNK N   1      23.275  12.828   0.539  0.00  0.00     0.118 C 
HETATM   31  H   UNK N   1      22.232  14.301   1.802  0.00  0.00     0.153 HD
ENDROOT
BRANCH  17  32
HETATM   32  N   UNK N   1      34.834  16.346   7.412  0.00  0.00    -0.315 N 
HETATM   33  H   UNK N   1      35.735  16.730   7.132  0.00  0.00     0.172 HD
BRANCH  32  34
HETATM   34  S   UNK N   1      34.391  15.919   9.077  0.00  0.00     0.223 S 
HETATM   35  O   UNK N   1      35.547  15.055   9.603  0.00  0.00    -0.206 OA
HETATM   36  O   UNK N   1      34.607  17.225   9.856  0.00  0.00    -0.206 OA
HETATM   37  C   UNK N   1      32.742  15.231   9.408  0.00  0.00     0.185 C 
ENDBRANCH  32  34
ENDBRANCH  17  32
TORSDOF 2
ENDMDL
MODEL 9
REMARK VINA RESULT:      -7.0     12.229     16.268
REMARK  2 active torsions:
REMARK  status: ('A' for Active; 'I' for Inactive)
REMARK    1  A    between atoms: C_17  and  N_28 
REMARK    2  A    between atoms: N_28  and  S_29 
ROOT
HETATM    1  C   UNK N   1      28.683  18.686   8.373  0.00  0.00     0.011 C 
HETATM    2  C   UNK N   1      28.066  18.713   6.991  0.00  0.00     0.001 C 
HETATM    3  C   UNK N   1      28.963  18.022   5.976  0.00  0.00     0.039 C 
HETATM    4  C   UNK N   1      28.299  17.981   4.585  0.00  0.00     0.145 C 
HETATM    5  C   UNK N   1      27.267  19.084   4.375  0.00  0.00     0.112 C 
HETATM    6  C   UNK N   1      26.047  18.415   4.904  0.00  0.00     0.041 C 
HETATM    7  C   UNK N   1      26.238  16.977   4.439  0.00  0.00     0.070 C 
HETATM    8  O   UNK N   1      27.638  16.740   4.397  0.00  0.00    -0.372 OA
HETATM    9  C   UNK N   1      25.616  16.795   3.054  0.00  0.00     0.039 C 
HETATM   10  C   UNK N   1      26.125  15.536   2.406  0.00  0.00     0.012 C 
HETATM   11  C   UNK N   1      25.369  14.280   2.793  0.00  0.00     0.019 C 
HETATM   12  C   UNK N   1      23.964  14.149   2.278  0.00  0.00    -0.001 C 
HETATM   13  C   UNK N   1      23.602  14.202   0.812  0.00  0.00     0.006 C 
HETATM   14  C   UNK N   1      22.071  14.325   0.766  0.00  0.00     0.006 C 
HETATM   15  C   UNK N   1      21.328  13.230   1.573  0.00  0.00    -0.004 C 
HETATM   16  C   UNK N   1      20.929  12.028   0.715  0.00  0.00     0.031 C 
HETATM   17  C   UNK N   1      21.748  10.779   1.020  0.00  0.00     0.093 C 
HETATM   18  C   UNK N   1      21.641  10.391   2.504  0.00  0.00     0.026 C 
HETATM   19  C   UNK N   1      21.377  11.561   3.469  0.00  0.00     0.012 C 
HETATM   20  C   UNK N   1      21.935  12.896   2.969  0.00  0.00    -0.036 C 
HETATM   21  C   UNK N   1      23.471  12.835   2.876  0.00  0.00     0.003 C 
HETATM   22  C   UNK N   1      24.236  12.677   4.202  0.00  0.00     0.040 C 
HETATM   23  C   UNK N   1      25.031  13.943   4.211  0.00  0.00    -0.073 C 
HETATM   24  C   UNK N   1      25.121  14.680   5.351  0.00  0.00    -0.078 C 
HETATM   25  C   UNK N   1      25.608  16.102   5.513  0.00  0.00     0.072 C 
HETATM   26  C   UNK N   1      24.573  14.096   6.619  0.00  0.00     0.044 C 
HETATM   27  C   UNK N   1      21.507  13.985   3.946  0.00  0.00     0.016 C 
HETATM   28  C   UNK N   1      24.731  19.101   4.550  0.00  0.00     0.015 C 
HETATM   29  N   UNK N   1      27.595  20.325   5.098  0.00  0.00    -0.414 N 
HETATM   30  C   UNK N   1      27.810  20.158   6.551  0.00  0.00     0.118 C 
HETATM   31  H   UNK N   1      27.670  21.229   4.631  0.00  0.00     0.153 HD
ENDROOT
BRANCH  17  32
HETATM   32  N   UNK N   1      21.257   9.659   0.221  0.00  0.00    -0.315 N 
HETATM   33  H   UNK N   1      20.275   9.406   0.119  0.00  0.00     0.172 HD
BRANCH  32  34
HETATM   34  S   UNK N   1      22.607   8.801  -0.548  0.00  0.00     0.223 S 
HETATM   35  O   UNK N   1      21.981   7.985  -1.689  0.00  0.00    -0.206 OA
HETATM   36  O   UNK N   1      23.339   9.903  -1.328  0.00  0.00    -0.206 OA
HETATM   37  C   UNK N   1      23.765   7.859   0.487  0.00  0.00     0.185 C 
ENDBRANCH  32  34
ENDBRANCH  17  32
TORSDOF 2
ENDMDL
