REMARK  4 active torsions:
REMARK  status: ('A' for Active; 'I' for Inactive)
REMARK    1  A    between atoms: C_5  and  C_8 
REMARK    2  A    between atoms: C_9  and  N_25 
REMARK    3  A    between atoms: C_12  and  C_15 
REMARK       I    between atoms: N_25  and  C_26 
REMARK    4  A    between atoms: C_26  and  C_28 
ROOT
HETATM    1  C   UNK N   1      -0.193  -2.900   0.324  0.00  0.00     0.175 A 
HETATM    2  N   UNK N   1       0.684  -3.789  -0.169  0.00  0.00    -0.328 N 
HETATM    3  C   UNK N   1       0.121  -4.981   0.085  0.00  0.00     0.131 A 
HETATM    4  C   UNK N   1      -1.074  -4.814   0.747  0.00  0.00     0.131 A 
HETATM    5  N   UNK N   1      -1.270  -3.495   0.894  0.00  0.00    -0.345 N 
ATOM      6  HN  UNK N   1      -2.063  -3.036   1.341  1.00  0.00     0.167 HD
HETATM    7  C   UNK N   1       0.663  -6.239  -0.339  0.00  0.00     0.119 C 
HETATM    8  N   UNK N   1       1.054  -7.281  -0.657  0.00  0.00    -0.190 NA
HETATM    9  H   UNK N   1       1.544  -3.608  -0.613  0.00  0.00     0.168 HD
ENDROOT
BRANCH   1  10
HETATM   10  C   UNK N   1      -0.086  -1.436   0.113  0.00  0.00     0.290 C 
HETATM   11  N   UNK N   1      -1.210  -0.686  -0.055  0.00  0.00    -0.318 N 
HETATM   12  H   UNK N   1      -1.155   0.293   0.033  0.00  0.00     0.169 HD
HETATM   13  O   UNK N   1       1.012  -0.908   0.036  0.00  0.00    -0.264 OA
BRANCH  11  14
HETATM   14  C   UNK N   1      -2.471  -1.295  -0.356  0.00  0.00     0.062 A 
HETATM   15  C   UNK N   1      -3.731  -0.855   0.156  0.00  0.00     0.065 A 
HETATM   16  N   UNK N   1      -4.875  -1.550  -0.200  0.00  0.00    -0.357 N 
HETATM   17  C   UNK N   1      -4.797  -2.649  -1.033  0.00  0.00     0.014 A 
ATOM     18  HN  UNK N   1      -5.783  -1.248   0.155  1.00  0.00     0.166 HD
HETATM   19  C   UNK N   1      -3.590  -3.001  -1.594  0.00  0.00     0.027 A 
HETATM   20  C   UNK N   1      -2.458  -2.324  -1.276  0.00  0.00     0.034 A 
BRANCH  15  21
HETATM   21  C   UNK N   1      -3.803   0.467   0.831  0.00  0.00    -0.033 C 
HETATM   22  C   UNK N   1      -4.904   1.371   0.375  0.00  0.00     0.041 C 
HETATM   23  C   UNK N   1      -4.273   2.284  -0.667  0.00  0.00     0.013 C 
HETATM   24  C   UNK N   1      -3.229   3.192   0.013  0.00  0.00    -0.044 C 
HETATM   25  C   UNK N   1      -2.448   3.901  -1.081  0.00  0.00     0.015 C 
HETATM   26  C   UNK N   1      -2.280   2.474   0.997  0.00  0.00     0.036 C 
HETATM   27  C   UNK N   1      -3.932   4.218   0.863  0.00  0.00     0.015 C 
HETATM   28  C   UNK N   1      -2.626   1.016   1.196  0.00  0.00    -0.017 C 
ENDBRANCH  15  21
BRANCH  17  29
HETATM   29  C   UNK N   1      -5.906  -3.617  -1.349  0.00  0.00     0.041 C 
HETATM   30  C   UNK N   1      -5.589  -4.920  -0.611  0.00  0.00     0.048 C 
HETATM   31  C   UNK N   1      -6.741  -5.482   0.220  0.00  0.00     0.055 C 
HETATM   32  O   UNK N   1      -7.507  -4.522   0.916  0.00  0.00    -0.371 OA
HETATM   33  C   UNK N   1      -6.136  -6.366   1.296  0.00  0.00     0.045 C 
HETATM   34  C   UNK N   1      -7.629  -6.308  -0.695  0.00  0.00     0.045 C 
HETATM   35  C   UNK N   1      -7.897  -3.368   0.197  0.00  0.00     0.055 C 
HETATM   36  C   UNK N   1      -7.359  -3.225  -1.225  0.00  0.00     0.048 C 
HETATM   37  C   UNK N   1      -9.417  -3.338   0.012  0.00  0.00     0.045 C 
HETATM   38  C   UNK N   1      -7.419  -2.231   1.078  0.00  0.00     0.045 C 
ENDBRANCH  17  29
ENDBRANCH  11  14
ENDBRANCH   1  10
TORSDOF 4
