MODEL 1
REMARK VINA RESULT:      -8.1      0.000      0.000
REMARK  7 active torsions:
REMARK  status: ('A' for Active; 'I' for Inactive)
REMARK    1  A    between atoms: C_2  and  O_4 
REMARK    2  A    between atoms: O_4  and  C_5 
REMARK    3  A    between atoms: C_8  and  C_13 
REMARK    4  A    between atoms: C_28  and  N_29 
REMARK    5  A    between atoms: N_29  and  C_30 
REMARK    6  A    between atoms: C_30  and  C_31 
REMARK    7  A    between atoms: C_31  and  O_32 
ROOT
HETATM    1  C   UNK N   1      22.675  17.973   4.002  0.00  0.00     0.090 A 
HETATM    2  C   UNK N   1      23.125  16.745   4.490  0.00  0.00     0.039 A 
HETATM    3  C   UNK N   1      24.478  16.516   4.673  0.00  0.00     0.018 A 
HETATM    4  C   UNK N   1      25.391  17.523   4.348  0.00  0.00     0.019 A 
HETATM    5  C   UNK N   1      24.972  18.711   3.782  0.00  0.00     0.041 A 
HETATM    6  C   UNK N   1      23.617  18.956   3.604  0.00  0.00     0.079 A 
HETATM    7  C   UNK N   1      23.258  20.269   3.155  0.00  0.00     0.102 C 
HETATM    8  N   UNK N   1      23.051  21.346   2.788  0.00  0.00    -0.191 NA
ENDROOT
BRANCH   1   9
HETATM    9  O   UNK N   1      21.342  18.185   4.036  0.00  0.00    -0.345 OA
BRANCH   9  10
HETATM   10  C   UNK N   1      20.417  17.799   3.104  0.00  0.00     0.120 C 
HETATM   11  C   UNK N   1      19.534  16.773   3.782  0.00  0.00     0.040 C 
HETATM   12  C   UNK N   1      19.533  18.961   2.712  0.00  0.00     0.040 C 
ENDBRANCH   9  10
ENDBRANCH   1   9
BRANCH   4  13
HETATM   13  C   UNK N   1      26.716  17.480   4.887  0.00  0.00     0.182 A 
HETATM   14  N   UNK N   1      27.004  17.883   6.120  0.00  0.00    -0.319 N 
HETATM   15  C   UNK N   1      28.339  17.847   6.134  0.00  0.00     0.138 A 
ATOM     16  HN  UNK N   1      26.366  18.153   6.868  1.00  0.00     0.169 HD
HETATM   17  N   UNK N   1      28.839  17.432   4.955  0.00  0.00    -0.242 N 
HETATM   18  C   UNK N   1      29.054  17.903   7.376  0.00  0.00     0.017 A 
HETATM   19  O   UNK N   1      27.806  17.243   4.198  0.00  0.00    -0.217 OA
ATOM     20  HN  UNK N   1      29.819  17.298   4.711  1.00  0.00     0.196 HD
HETATM   21  C   UNK N   1      28.356  18.321   8.522  0.00  0.00     0.016 A 
HETATM   22  C   UNK N   1      30.294  17.280   7.505  0.00  0.00    -0.036 A 
HETATM   23  C   UNK N   1      28.875  18.065   9.784  0.00  0.00     0.002 A 
HETATM   24  C   UNK N   1      30.054  17.336   9.890  0.00  0.00     0.010 A 
HETATM   25  C   UNK N   1      30.760  16.979   8.738  0.00  0.00    -0.029 A 
HETATM   26  C   UNK N   1      31.988  16.153   8.702  0.00  0.00     0.110 A 
HETATM   27  C   UNK N   1      32.198  15.914   7.192  0.00  0.00     0.034 A 
HETATM   28  C   UNK N   1      31.150  16.736   6.427  0.00  0.00     0.042 A 
BRANCH  26  29
HETATM   29  N   UNK N   1      33.162  16.837   9.254  0.00  0.00    -0.411 N 
HETATM   30  H   UNK N   1      33.253  17.084  10.239  0.00  0.00     0.154 HD
BRANCH  29  31
HETATM   31  C   UNK N   1      34.194  17.134   8.253  0.00  0.00     0.140 C 
BRANCH  31  32
HETATM   32  C   UNK N   1      34.295  18.624   7.954  0.00  0.00     0.183 C 
BRANCH  32  33
HETATM   33  O   UNK N   1      35.390  19.164   8.637  0.00  0.00    -0.399 OA
HETATM   34  H   UNK N   1      36.300  18.892   8.444  0.00  0.00     0.209 HD
ENDBRANCH  32  33
ENDBRANCH  31  32
ENDBRANCH  29  31
ENDBRANCH  26  29
ENDBRANCH   4  13
TORSDOF 7
ENDMDL
MODEL 2
REMARK VINA RESULT:      -8.0      2.306     10.350
REMARK  7 active torsions:
REMARK  status: ('A' for Active; 'I' for Inactive)
REMARK    1  A    between atoms: C_2  and  O_4 
REMARK    2  A    between atoms: O_4  and  C_5 
REMARK    3  A    between atoms: C_8  and  C_13 
REMARK    4  A    between atoms: C_28  and  N_29 
REMARK    5  A    between atoms: N_29  and  C_30 
REMARK    6  A    between atoms: C_30  and  C_31 
REMARK    7  A    between atoms: C_31  and  O_32 
ROOT
HETATM    1  C   UNK N   1      34.056  15.852   8.617  0.00  0.00     0.090 A 
HETATM    2  C   UNK N   1      33.083  14.854   8.546  0.00  0.00     0.039 A 
HETATM    3  C   UNK N   1      31.767  15.175   8.256  0.00  0.00     0.018 A 
HETATM    4  C   UNK N   1      31.420  16.513   8.052  0.00  0.00     0.019 A 
HETATM    5  C   UNK N   1      32.351  17.523   8.205  0.00  0.00     0.041 A 
HETATM    6  C   UNK N   1      33.674  17.212   8.485  0.00  0.00     0.079 A 
HETATM    7  C   UNK N   1      34.603  18.304   8.476  0.00  0.00     0.102 C 
HETATM    8  N   UNK N   1      35.287  19.236   8.454  0.00  0.00    -0.191 NA
ENDROOT
BRANCH   1   9
HETATM    9  O   UNK N   1      35.338  15.441   8.710  0.00  0.00    -0.345 OA
BRANCH   9  10
HETATM   10  C   UNK N   1      35.948  14.868   9.793  0.00  0.00     0.120 C 
HETATM   11  C   UNK N   1      37.305  14.396   9.315  0.00  0.00     0.040 C 
HETATM   12  C   UNK N   1      36.188  15.892  10.879  0.00  0.00     0.040 C 
ENDBRANCH   9  10
ENDBRANCH   1   9
BRANCH   4  13
HETATM   13  C   UNK N   1      30.204  16.835   7.371  0.00  0.00     0.182 A 
HETATM   14  N   UNK N   1      29.545  17.972   7.572  0.00  0.00    -0.319 N 
HETATM   15  C   UNK N   1      28.409  17.774   6.899  0.00  0.00     0.138 A 
ATOM     16  HN  UNK N   1      29.836  18.791   8.107  1.00  0.00     0.169 HD
HETATM   17  N   UNK N   1      28.384  16.565   6.308  0.00  0.00    -0.242 N 
HETATM   18  C   UNK N   1      27.548  18.879   6.589  0.00  0.00     0.017 A 
HETATM   19  O   UNK N   1      29.498  16.000   6.647  0.00  0.00    -0.217 OA
ATOM     20  HN  UNK N   1      27.646  16.178   5.722  1.00  0.00     0.196 HD
HETATM   21  C   UNK N   1      27.749  20.087   7.278  0.00  0.00     0.016 A 
HETATM   22  C   UNK N   1      26.752  18.853   5.446  0.00  0.00    -0.036 A 
HETATM   23  C   UNK N   1      27.200  21.265   6.790  0.00  0.00     0.002 A 
HETATM   24  C   UNK N   1      26.512  21.235   5.583  0.00  0.00     0.010 A 
HETATM   25  C   UNK N   1      26.276  20.015   4.943  0.00  0.00    -0.029 A 
HETATM   26  C   UNK N   1      25.616  19.844   3.629  0.00  0.00     0.110 A 
HETATM   27  C   UNK N   1      25.814  18.342   3.336  0.00  0.00     0.034 A 
HETATM   28  C   UNK N   1      26.462  17.696   4.570  0.00  0.00     0.042 A 
BRANCH  26  29
HETATM   29  N   UNK N   1      24.181  20.148   3.659  0.00  0.00    -0.411 N 
HETATM   30  H   UNK N   1      23.614  20.087   4.504  0.00  0.00     0.154 HD
BRANCH  29  31
HETATM   31  C   UNK N   1      23.638  20.550   2.356  0.00  0.00     0.140 C 
BRANCH  31  32
HETATM   32  C   UNK N   1      22.118  20.469   2.315  0.00  0.00     0.183 C 
BRANCH  32  33
HETATM   33  O   UNK N   1      21.573  21.662   2.800  0.00  0.00    -0.399 OA
HETATM   34  H   UNK N   1      20.619  21.776   2.932  0.00  0.00     0.209 HD
ENDBRANCH  32  33
ENDBRANCH  31  32
ENDBRANCH  29  31
ENDBRANCH  26  29
ENDBRANCH   4  13
TORSDOF 7
ENDMDL
MODEL 3
REMARK VINA RESULT:      -7.7      1.641      2.628
REMARK  7 active torsions:
REMARK  status: ('A' for Active; 'I' for Inactive)
REMARK    1  A    between atoms: C_2  and  O_4 
REMARK    2  A    between atoms: O_4  and  C_5 
REMARK    3  A    between atoms: C_8  and  C_13 
REMARK    4  A    between atoms: C_28  and  N_29 
REMARK    5  A    between atoms: N_29  and  C_30 
REMARK    6  A    between atoms: C_30  and  C_31 
REMARK    7  A    between atoms: C_31  and  O_32 
ROOT
HETATM    1  C   UNK N   1      23.453  18.142   4.159  0.00  0.00     0.090 A 
HETATM    2  C   UNK N   1      23.628  16.994   4.933  0.00  0.00     0.039 A 
HETATM    3  C   UNK N   1      24.896  16.595   5.320  0.00  0.00     0.018 A 
HETATM    4  C   UNK N   1      26.002  17.346   4.914  0.00  0.00     0.019 A 
HETATM    5  C   UNK N   1      25.856  18.434   4.075  0.00  0.00     0.041 A 
HETATM    6  C   UNK N   1      24.589  18.850   3.689  0.00  0.00     0.079 A 
HETATM    7  C   UNK N   1      24.516  20.073   2.947  0.00  0.00     0.102 C 
HETATM    8  N   UNK N   1      24.541  21.063   2.349  0.00  0.00    -0.191 NA
ENDROOT
BRANCH   1   9
HETATM    9  O   UNK N   1      22.183  18.568   3.988  0.00  0.00    -0.345 OA
BRANCH   9  10
HETATM   10  C   UNK N   1      21.290  18.152   3.039  0.00  0.00     0.120 C 
HETATM   11  C   UNK N   1      20.161  17.475   3.787  0.00  0.00     0.040 C 
HETATM   12  C   UNK N   1      20.696  19.333   2.306  0.00  0.00     0.040 C 
ENDBRANCH   9  10
ENDBRANCH   1   9
BRANCH   4  13
HETATM   13  C   UNK N   1      27.246  17.209   5.607  0.00  0.00     0.182 A 
HETATM   14  N   UNK N   1      28.388  16.929   4.987  0.00  0.00    -0.319 N 
HETATM   15  C   UNK N   1      29.226  16.712   6.004  0.00  0.00     0.138 A 
ATOM     16  HN  UNK N   1      28.576  16.889   3.985  1.00  0.00     0.169 HD
HETATM   17  N   UNK N   1      28.615  16.861   7.194  0.00  0.00    -0.242 N 
HETATM   18  C   UNK N   1      30.643  16.691   5.784  0.00  0.00     0.017 A 
HETATM   19  O   UNK N   1      27.383  17.139   6.909  0.00  0.00    -0.217 OA
ATOM     20  HN  UNK N   1      29.032  16.773   8.119  1.00  0.00     0.196 HD
HETATM   21  C   UNK N   1      31.105  16.572   4.462  0.00  0.00     0.016 A 
HETATM   22  C   UNK N   1      31.520  17.078   6.796  0.00  0.00    -0.036 A 
HETATM   23  C   UNK N   1      32.421  16.893   4.154  0.00  0.00     0.002 A 
HETATM   24  C   UNK N   1      33.242  17.392   5.157  0.00  0.00     0.010 A 
HETATM   25  C   UNK N   1      32.780  17.450   6.475  0.00  0.00    -0.029 A 
HETATM   26  C   UNK N   1      33.522  18.015   7.624  0.00  0.00     0.110 A 
HETATM   27  C   UNK N   1      32.470  18.003   8.753  0.00  0.00     0.034 A 
HETATM   28  C   UNK N   1      31.210  17.299   8.226  0.00  0.00     0.042 A 
BRANCH  26  29
HETATM   29  N   UNK N   1      34.675  17.201   8.025  0.00  0.00    -0.411 N 
HETATM   30  H   UNK N   1      35.313  16.769   7.358  0.00  0.00     0.154 HD
BRANCH  29  31
HETATM   31  C   UNK N   1      34.823  17.068   9.479  0.00  0.00     0.140 C 
BRANCH  31  32
HETATM   32  C   UNK N   1      35.642  15.843   9.865  0.00  0.00     0.183 C 
BRANCH  32  33
HETATM   33  O   UNK N   1      36.688  16.228  10.709  0.00  0.00    -0.399 OA
HETATM   34  H   UNK N   1      37.310  16.932  10.469  0.00  0.00     0.209 HD
ENDBRANCH  32  33
ENDBRANCH  31  32
ENDBRANCH  29  31
ENDBRANCH  26  29
ENDBRANCH   4  13
TORSDOF 7
ENDMDL
MODEL 4
REMARK VINA RESULT:      -7.6      4.283     11.793
REMARK  7 active torsions:
REMARK  status: ('A' for Active; 'I' for Inactive)
REMARK    1  A    between atoms: C_2  and  O_4 
REMARK    2  A    between atoms: O_4  and  C_5 
REMARK    3  A    between atoms: C_8  and  C_13 
REMARK    4  A    between atoms: C_28  and  N_29 
REMARK    5  A    between atoms: N_29  and  C_30 
REMARK    6  A    between atoms: C_30  and  C_31 
REMARK    7  A    between atoms: C_31  and  O_32 
ROOT
HETATM    1  C   UNK N   1      36.027  13.949  12.401  0.00  0.00     0.090 A 
HETATM    2  C   UNK N   1      36.063  15.316  12.119  0.00  0.00     0.039 A 
HETATM    3  C   UNK N   1      35.321  15.836  11.071  0.00  0.00     0.018 A 
HETATM    4  C   UNK N   1      34.549  14.975  10.288  0.00  0.00     0.019 A 
HETATM    5  C   UNK N   1      34.570  13.609  10.495  0.00  0.00     0.041 A 
HETATM    6  C   UNK N   1      35.301  13.077  11.549  0.00  0.00     0.079 A 
HETATM    7  C   UNK N   1      35.147  11.673  11.789  0.00  0.00     0.102 C 
HETATM    8  N   UNK N   1      34.973  10.536  11.915  0.00  0.00    -0.191 NA
ENDROOT
BRANCH   1   9
HETATM    9  O   UNK N   1      36.618  13.553  13.548  0.00  0.00    -0.345 OA
BRANCH   9  10
HETATM   10  C   UNK N   1      36.155  13.731  14.823  0.00  0.00     0.120 C 
HETATM   11  C   UNK N   1      36.187  12.367  15.480  0.00  0.00     0.040 C 
HETATM   12  C   UNK N   1      37.081  14.628  15.611  0.00  0.00     0.040 C 
ENDBRANCH   9  10
ENDBRANCH   1   9
BRANCH   4  13
HETATM   13  C   UNK N   1      33.489  15.504   9.486  0.00  0.00     0.182 A 
HETATM   14  N   UNK N   1      33.706  16.197   8.373  0.00  0.00    -0.319 N 
HETATM   15  C   UNK N   1      32.485  16.642   8.064  0.00  0.00     0.138 A 
ATOM     16  HN  UNK N   1      34.584  16.351   7.878  1.00  0.00     0.169 HD
HETATM   17  N   UNK N   1      31.564  16.228   8.954  0.00  0.00    -0.242 N 
HETATM   18  C   UNK N   1      32.214  17.170   6.758  0.00  0.00     0.017 A 
HETATM   19  O   UNK N   1      32.226  15.551   9.836  0.00  0.00    -0.217 OA
ATOM     20  HN  UNK N   1      30.561  16.410   8.937  1.00  0.00     0.196 HD
HETATM   21  C   UNK N   1      33.307  17.510   5.943  0.00  0.00     0.016 A 
HETATM   22  C   UNK N   1      30.939  17.063   6.205  0.00  0.00    -0.036 A 
HETATM   23  C   UNK N   1      33.127  17.687   4.577  0.00  0.00     0.002 A 
HETATM   24  C   UNK N   1      31.870  17.457   4.031  0.00  0.00     0.010 A 
HETATM   25  C   UNK N   1      30.786  17.174   4.866  0.00  0.00    -0.029 A 
HETATM   26  C   UNK N   1      29.413  16.847   4.417  0.00  0.00     0.110 A 
HETATM   27  C   UNK N   1      28.711  16.433   5.727  0.00  0.00     0.034 A 
HETATM   28  C   UNK N   1      29.685  16.676   6.889  0.00  0.00     0.042 A 
BRANCH  26  29
HETATM   29  N   UNK N   1      28.709  17.992   3.829  0.00  0.00    -0.411 N 
HETATM   30  H   UNK N   1      29.189  18.771   3.377  0.00  0.00     0.154 HD
BRANCH  29  31
HETATM   31  C   UNK N   1      27.249  17.910   3.952  0.00  0.00     0.140 C 
BRANCH  31  32
HETATM   32  C   UNK N   1      26.635  19.227   4.407  0.00  0.00     0.183 C 
BRANCH  32  33
HETATM   33  O   UNK N   1      26.228  19.117   5.741  0.00  0.00    -0.399 OA
HETATM   34  H   UNK N   1      26.244  18.271   6.214  0.00  0.00     0.209 HD
ENDBRANCH  32  33
ENDBRANCH  31  32
ENDBRANCH  29  31
ENDBRANCH  26  29
ENDBRANCH   4  13
TORSDOF 7
ENDMDL
MODEL 5
REMARK VINA RESULT:      -7.5      8.458     13.051
REMARK  7 active torsions:
REMARK  status: ('A' for Active; 'I' for Inactive)
REMARK    1  A    between atoms: C_2  and  O_4 
REMARK    2  A    between atoms: O_4  and  C_5 
REMARK    3  A    between atoms: C_8  and  C_13 
REMARK    4  A    between atoms: C_28  and  N_29 
REMARK    5  A    between atoms: N_29  and  C_30 
REMARK    6  A    between atoms: C_30  and  C_31 
REMARK    7  A    between atoms: C_31  and  O_32 
ROOT
HETATM    1  C   UNK N   1      34.730  15.920   9.241  0.00  0.00     0.090 A 
HETATM    2  C   UNK N   1      35.447  16.467  10.307  0.00  0.00     0.039 A 
HETATM    3  C   UNK N   1      35.584  15.767  11.493  0.00  0.00     0.018 A 
HETATM    4  C   UNK N   1      34.982  14.512  11.619  0.00  0.00     0.019 A 
HETATM    5  C   UNK N   1      34.196  13.993  10.609  0.00  0.00     0.041 A 
HETATM    6  C   UNK N   1      34.060  14.681   9.411  0.00  0.00     0.079 A 
HETATM    7  C   UNK N   1      33.356  14.005   8.362  0.00  0.00     0.102 C 
HETATM    8  N   UNK N   1      32.773  13.396   7.569  0.00  0.00    -0.191 NA
ENDROOT
BRANCH   1   9
HETATM    9  O   UNK N   1      34.806  16.573   8.062  0.00  0.00    -0.345 OA
BRANCH   9  10
HETATM   10  C   UNK N   1      34.060  17.648   7.660  0.00  0.00     0.120 C 
HETATM   11  C   UNK N   1      33.672  17.380   6.221  0.00  0.00     0.040 C 
HETATM   12  C   UNK N   1      32.780  17.741   8.459  0.00  0.00     0.040 C 
ENDBRANCH   9  10
ENDBRANCH   1   9
BRANCH   4  13
HETATM   13  C   UNK N   1      35.426  13.612  12.638  0.00  0.00     0.182 A 
HETATM   14  N   UNK N   1      35.436  13.932  13.928  0.00  0.00    -0.319 N 
HETATM   15  C   UNK N   1      36.082  12.903  14.480  0.00  0.00     0.138 A 
ATOM     16  HN  UNK N   1      35.046  14.758  14.382  1.00  0.00     0.169 HD
HETATM   17  N   UNK N   1      36.446  11.991  13.559  0.00  0.00    -0.242 N 
HETATM   18  C   UNK N   1      36.034  12.692  15.898  0.00  0.00     0.017 A 
HETATM   19  O   UNK N   1      36.049  12.478  12.427  0.00  0.00    -0.217 OA
ATOM     20  HN  UNK N   1      36.930  11.108  13.719  1.00  0.00     0.196 HD
HETATM   21  C   UNK N   1      35.584  13.748  16.708  0.00  0.00     0.016 A 
HETATM   22  C   UNK N   1      36.134  11.404  16.423  0.00  0.00    -0.036 A 
HETATM   23  C   UNK N   1      35.187  13.500  18.016  0.00  0.00     0.002 A 
HETATM   24  C   UNK N   1      35.181  12.190  18.479  0.00  0.00     0.010 A 
HETATM   25  C   UNK N   1      35.684  11.163  17.675  0.00  0.00    -0.029 A 
HETATM   26  C   UNK N   1      35.680   9.722  18.016  0.00  0.00     0.110 A 
HETATM   27  C   UNK N   1      36.155   9.057  16.707  0.00  0.00     0.034 A 
HETATM   28  C   UNK N   1      36.541  10.168  15.719  0.00  0.00     0.042 A 
BRANCH  26  29
HETATM   29  N   UNK N   1      36.609   9.380  19.099  0.00  0.00    -0.411 N 
HETATM   30  H   UNK N   1      37.604   9.602  19.072  0.00  0.00     0.154 HD
BRANCH  29  31
HETATM   31  C   UNK N   1      35.970   8.690  20.225  0.00  0.00     0.140 C 
BRANCH  31  32
HETATM   32  C   UNK N   1      35.702   9.626  21.397  0.00  0.00     0.183 C 
BRANCH  32  33
HETATM   33  O   UNK N   1      36.587  10.708  21.342  0.00  0.00    -0.399 OA
HETATM   34  H   UNK N   1      36.276  11.626  21.338  0.00  0.00     0.209 HD
ENDBRANCH  32  33
ENDBRANCH  31  32
ENDBRANCH  29  31
ENDBRANCH  26  29
ENDBRANCH   4  13
TORSDOF 7
ENDMDL
MODEL 6
REMARK VINA RESULT:      -7.5      8.244     14.765
REMARK  7 active torsions:
REMARK  status: ('A' for Active; 'I' for Inactive)
REMARK    1  A    between atoms: C_2  and  O_4 
REMARK    2  A    between atoms: O_4  and  C_5 
REMARK    3  A    between atoms: C_8  and  C_13 
REMARK    4  A    between atoms: C_28  and  N_29 
REMARK    5  A    between atoms: N_29  and  C_30 
REMARK    6  A    between atoms: C_30  and  C_31 
REMARK    7  A    between atoms: C_31  and  O_32 
ROOT
HETATM    1  C   UNK N   1      35.427  11.337  17.960  0.00  0.00     0.090 A 
HETATM    2  C   UNK N   1      35.137  12.702  17.926  0.00  0.00     0.039 A 
HETATM    3  C   UNK N   1      35.469  13.462  16.817  0.00  0.00     0.018 A 
HETATM    4  C   UNK N   1      36.113  12.851  15.738  0.00  0.00     0.019 A 
HETATM    5  C   UNK N   1      36.486  11.522  15.790  0.00  0.00     0.041 A 
HETATM    6  C   UNK N   1      36.150  10.747  16.891  0.00  0.00     0.079 A 
HETATM    7  C   UNK N   1      36.438   9.347  16.800  0.00  0.00     0.102 C 
HETATM    8  N   UNK N   1      36.705   8.231  16.651  0.00  0.00    -0.191 NA
ENDROOT
BRANCH   1   9
HETATM    9  O   UNK N   1      34.901  10.633  18.985  0.00  0.00    -0.345 OA
BRANCH   9  10
HETATM   10  C   UNK N   1      35.127  10.821  20.322  0.00  0.00     0.120 C 
HETATM   11  C   UNK N   1      34.182   9.887  21.047  0.00  0.00     0.040 C 
HETATM   12  C   UNK N   1      36.534  10.411  20.692  0.00  0.00     0.040 C 
ENDBRANCH   9  10
ENDBRANCH   1   9
BRANCH   4  13
HETATM   13  C   UNK N   1      36.104  13.484  14.455  0.00  0.00     0.182 A 
HETATM   14  N   UNK N   1      35.979  12.807  13.319  0.00  0.00    -0.319 N 
HETATM   15  C   UNK N   1      36.207  13.743  12.394  0.00  0.00     0.138 A 
ATOM     16  HN  UNK N   1      35.764  11.819  13.186  1.00  0.00     0.169 HD
HETATM   17  N   UNK N   1      36.454  14.944  12.951  0.00  0.00    -0.242 N 
HETATM   18  C   UNK N   1      35.857  13.509  11.023  0.00  0.00     0.017 A 
HETATM   19  O   UNK N   1      36.412  14.739  14.228  0.00  0.00    -0.217 OA
ATOM     20  HN  UNK N   1      36.637  15.823  12.470  1.00  0.00     0.196 HD
HETATM   21  C   UNK N   1      35.587  12.189  10.626  0.00  0.00     0.016 A 
HETATM   22  C   UNK N   1      35.500  14.572  10.195  0.00  0.00    -0.036 A 
HETATM   23  C   UNK N   1      34.917  11.944   9.434  0.00  0.00     0.002 A 
HETATM   24  C   UNK N   1      34.465  13.023   8.685  0.00  0.00     0.010 A 
HETATM   25  C   UNK N   1      34.792  14.327   9.070  0.00  0.00    -0.029 A 
HETATM   26  C   UNK N   1      34.326  15.565   8.404  0.00  0.00     0.110 A 
HETATM   27  C   UNK N   1      34.815  16.674   9.358  0.00  0.00     0.034 A 
HETATM   28  C   UNK N   1      35.662  16.020  10.460  0.00  0.00     0.042 A 
BRANCH  26  29
HETATM   29  N   UNK N   1      34.921  15.767   7.078  0.00  0.00    -0.411 N 
HETATM   30  H   UNK N   1      35.910  15.970   6.934  0.00  0.00     0.154 HD
BRANCH  29  31
HETATM   31  C   UNK N   1      33.957  15.648   5.977  0.00  0.00     0.140 C 
BRANCH  31  32
HETATM   32  C   UNK N   1      33.451  17.004   5.506  0.00  0.00     0.183 C 
BRANCH  32  33
HETATM   33  O   UNK N   1      34.208  18.018   6.102  0.00  0.00    -0.399 OA
HETATM   34  H   UNK N   1      34.186  18.182   7.057  0.00  0.00     0.209 HD
ENDBRANCH  32  33
ENDBRANCH  31  32
ENDBRANCH  29  31
ENDBRANCH  26  29
ENDBRANCH   4  13
TORSDOF 7
ENDMDL
MODEL 7
REMARK VINA RESULT:      -7.4      2.166     10.183
REMARK  7 active torsions:
REMARK  status: ('A' for Active; 'I' for Inactive)
REMARK    1  A    between atoms: C_2  and  O_4 
REMARK    2  A    between atoms: O_4  and  C_5 
REMARK    3  A    between atoms: C_8  and  C_13 
REMARK    4  A    between atoms: C_28  and  N_29 
REMARK    5  A    between atoms: N_29  and  C_30 
REMARK    6  A    between atoms: C_30  and  C_31 
REMARK    7  A    between atoms: C_31  and  O_32 
ROOT
HETATM    1  C   UNK N   1      32.616  15.796   6.362  0.00  0.00     0.090 A 
HETATM    2  C   UNK N   1      31.748  14.928   5.697  0.00  0.00     0.039 A 
HETATM    3  C   UNK N   1      30.380  15.142   5.729  0.00  0.00     0.018 A 
HETATM    4  C   UNK N   1      29.876  16.228   6.448  0.00  0.00     0.019 A 
HETATM    5  C   UNK N   1      30.711  17.046   7.185  0.00  0.00     0.041 A 
HETATM    6  C   UNK N   1      32.085  16.848   7.152  0.00  0.00     0.079 A 
HETATM    7  C   UNK N   1      32.889  17.829   7.817  0.00  0.00     0.102 C 
HETATM    8  N   UNK N   1      33.466  18.660   8.378  0.00  0.00    -0.191 NA
ENDROOT
BRANCH   1   9
HETATM    9  O   UNK N   1      33.934  15.632   6.123  0.00  0.00    -0.345 OA
BRANCH   9  10
HETATM   10  C   UNK N   1      34.685  14.512   6.353  0.00  0.00     0.120 C 
HETATM   11  C   UNK N   1      36.041  14.776   5.733  0.00  0.00     0.040 C 
HETATM   12  C   UNK N   1      34.904  14.307   7.834  0.00  0.00     0.040 C 
ENDBRANCH   9  10
ENDBRANCH   1   9
BRANCH   4  13
HETATM   13  C   UNK N   1      28.554  16.706   6.179  0.00  0.00     0.182 A 
HETATM   14  N   UNK N   1      28.317  17.861   5.566  0.00  0.00    -0.319 N 
HETATM   15  C   UNK N   1      26.994  17.992   5.692  0.00  0.00     0.138 A 
ATOM     16  HN  UNK N   1      28.980  18.490   5.114  1.00  0.00     0.169 HD
HETATM   17  N   UNK N   1      26.451  16.952   6.351  0.00  0.00    -0.242 N 
HETATM   18  C   UNK N   1      26.281  18.946   4.893  0.00  0.00     0.017 A 
HETATM   19  O   UNK N   1      27.450  16.190   6.663  0.00  0.00    -0.217 OA
ATOM     20  HN  UNK N   1      25.465  16.798   6.560  1.00  0.00     0.196 HD
HETATM   21  C   UNK N   1      27.021  19.944   4.237  0.00  0.00     0.016 A 
HETATM   22  C   UNK N   1      24.954  18.713   4.535  0.00  0.00    -0.036 A 
HETATM   23  C   UNK N   1      26.449  20.662   3.195  0.00  0.00     0.002 A 
HETATM   24  C   UNK N   1      25.167  20.329   2.775  0.00  0.00     0.010 A 
HETATM   25  C   UNK N   1      24.428  19.372   3.477  0.00  0.00    -0.029 A 
HETATM   26  C   UNK N   1      23.083  18.879   3.105  0.00  0.00     0.110 A 
HETATM   27  C   UNK N   1      22.858  17.714   4.091  0.00  0.00     0.034 A 
HETATM   28  C   UNK N   1      24.036  17.686   5.076  0.00  0.00     0.042 A 
BRANCH  26  29
HETATM   29  N   UNK N   1      22.028  19.882   3.289  0.00  0.00    -0.411 N 
HETATM   30  H   UNK N   1      22.050  20.587   4.024  0.00  0.00     0.154 HD
BRANCH  29  31
HETATM   31  C   UNK N   1      20.937  19.773   2.313  0.00  0.00     0.140 C 
BRANCH  31  32
HETATM   32  C   UNK N   1      20.884  20.970   1.372  0.00  0.00     0.183 C 
BRANCH  32  33
HETATM   33  O   UNK N   1      20.584  20.534   0.078  0.00  0.00    -0.399 OA
HETATM   34  H   UNK N   1      20.283  21.144  -0.613  0.00  0.00     0.209 HD
ENDBRANCH  32  33
ENDBRANCH  31  32
ENDBRANCH  29  31
ENDBRANCH  26  29
ENDBRANCH   4  13
TORSDOF 7
ENDMDL
MODEL 8
REMARK VINA RESULT:      -7.4      9.932     14.604
REMARK  7 active torsions:
REMARK  status: ('A' for Active; 'I' for Inactive)
REMARK    1  A    between atoms: C_2  and  O_4 
REMARK    2  A    between atoms: O_4  and  C_5 
REMARK    3  A    between atoms: C_8  and  C_13 
REMARK    4  A    between atoms: C_28  and  N_29 
REMARK    5  A    between atoms: N_29  and  C_30 
REMARK    6  A    between atoms: C_30  and  C_31 
REMARK    7  A    between atoms: C_31  and  O_32 
ROOT
HETATM    1  C   UNK N   1      36.512  14.073   9.889  0.00  0.00     0.090 A 
HETATM    2  C   UNK N   1      36.907  12.809  10.330  0.00  0.00     0.039 A 
HETATM    3  C   UNK N   1      36.898  12.502  11.680  0.00  0.00     0.018 A 
HETATM    4  C   UNK N   1      36.505  13.478  12.600  0.00  0.00     0.019 A 
HETATM    5  C   UNK N   1      36.197  14.761  12.190  0.00  0.00     0.041 A 
HETATM    6  C   UNK N   1      36.192  15.077  10.839  0.00  0.00     0.079 A 
HETATM    7  C   UNK N   1      35.713  16.382  10.489  0.00  0.00     0.102 C 
HETATM    8  N   UNK N   1      35.319  17.451  10.289  0.00  0.00    -0.191 NA
ENDROOT
BRANCH   1   9
HETATM    9  O   UNK N   1      36.364  14.229   8.557  0.00  0.00    -0.345 OA
BRANCH   9  10
HETATM   10  C   UNK N   1      35.311  13.816   7.786  0.00  0.00     0.120 C 
HETATM   11  C   UNK N   1      34.977  14.974   6.870  0.00  0.00     0.040 C 
HETATM   12  C   UNK N   1      35.712  12.653   6.908  0.00  0.00     0.040 C 
ENDBRANCH   9  10
ENDBRANCH   1   9
BRANCH   4  13
HETATM   13  C   UNK N   1      36.103  13.091  13.917  0.00  0.00     0.182 A 
HETATM   14  N   UNK N   1      36.309  11.872  14.404  0.00  0.00    -0.319 N 
HETATM   15  C   UNK N   1      35.628  11.897  15.552  0.00  0.00     0.138 A 
ATOM     16  HN  UNK N   1      36.852  11.108  14.001  1.00  0.00     0.169 HD
HETATM   17  N   UNK N   1      35.036  13.089  15.755  0.00  0.00    -0.242 N 
HETATM   18  C   UNK N   1      35.846  10.887  16.547  0.00  0.00     0.017 A 
HETATM   19  O   UNK N   1      35.328  13.793  14.708  0.00  0.00    -0.217 OA
ATOM     20  HN  UNK N   1      34.478  13.374  16.558  1.00  0.00     0.196 HD
HETATM   21  C   UNK N   1      36.525   9.718  16.164  0.00  0.00     0.016 A 
HETATM   22  C   UNK N   1      35.669  11.179  17.898  0.00  0.00    -0.036 A 
HETATM   23  C   UNK N   1      37.066   8.880  17.131  0.00  0.00     0.002 A 
HETATM   24  C   UNK N   1      36.981   9.254  18.466  0.00  0.00     0.010 A 
HETATM   25  C   UNK N   1      36.254  10.392  18.829  0.00  0.00    -0.029 A 
HETATM   26  C   UNK N   1      36.136  10.938  20.200  0.00  0.00     0.110 A 
HETATM   27  C   UNK N   1      35.410  12.281  19.974  0.00  0.00     0.034 A 
HETATM   28  C   UNK N   1      35.025  12.373  18.490  0.00  0.00     0.042 A 
BRANCH  26  29
HETATM   29  N   UNK N   1      35.331  10.095  21.091  0.00  0.00    -0.411 N 
HETATM   30  H   UNK N   1      35.738   9.431  21.750  0.00  0.00     0.154 HD
BRANCH  29  31
HETATM   31  C   UNK N   1      33.885  10.298  20.944  0.00  0.00     0.140 C 
BRANCH  31  32
HETATM   32  C   UNK N   1      33.152  10.197  22.275  0.00  0.00     0.183 C 
BRANCH  32  33
HETATM   33  O   UNK N   1      32.919  11.482  22.779  0.00  0.00    -0.399 OA
HETATM   34  H   UNK N   1      33.449  11.854  23.501  0.00  0.00     0.209 HD
ENDBRANCH  32  33
ENDBRANCH  31  32
ENDBRANCH  29  31
ENDBRANCH  26  29
ENDBRANCH   4  13
TORSDOF 7
ENDMDL
MODEL 9
REMARK VINA RESULT:      -7.4      8.860     13.425
REMARK  7 active torsions:
REMARK  status: ('A' for Active; 'I' for Inactive)
REMARK    1  A    between atoms: C_2  and  O_4 
REMARK    2  A    between atoms: O_4  and  C_5 
REMARK    3  A    between atoms: C_8  and  C_13 
REMARK    4  A    between atoms: C_28  and  N_29 
REMARK    5  A    between atoms: N_29  and  C_30 
REMARK    6  A    between atoms: C_30  and  C_31 
REMARK    7  A    between atoms: C_31  and  O_32 
ROOT
HETATM    1  C   UNK N   1      34.237  14.364   9.252  0.00  0.00     0.090 A 
HETATM    2  C   UNK N   1      34.033  12.986   9.333  0.00  0.00     0.039 A 
HETATM    3  C   UNK N   1      34.565  12.258  10.385  0.00  0.00     0.018 A 
HETATM    4  C   UNK N   1      35.324  12.918  11.356  0.00  0.00     0.019 A 
HETATM    5  C   UNK N   1      35.610  14.265  11.245  0.00  0.00     0.041 A 
HETATM    6  C   UNK N   1      35.073  15.006  10.201  0.00  0.00     0.079 A 
HETATM    7  C   UNK N   1      35.292  16.421  10.243  0.00  0.00     0.102 C 
HETATM    8  N   UNK N   1      35.515  17.552  10.347  0.00  0.00    -0.191 NA
ENDROOT
BRANCH   1   9
HETATM    9  O   UNK N   1      33.528  15.025   8.312  0.00  0.00    -0.345 OA
BRANCH   9  10
HETATM   10  C   UNK N   1      33.916  15.313   7.031  0.00  0.00     0.120 C 
HETATM   11  C   UNK N   1      33.957  16.823   6.930  0.00  0.00     0.040 C 
HETATM   12  C   UNK N   1      35.316  14.808   6.768  0.00  0.00     0.040 C 
ENDBRANCH   9  10
ENDBRANCH   1   9
BRANCH   4  13
HETATM   13  C   UNK N   1      35.538  12.300  12.628  0.00  0.00     0.182 A 
HETATM   14  N   UNK N   1      35.671  12.996  13.753  0.00  0.00    -0.319 N 
HETATM   15  C   UNK N   1      36.032  12.060  14.634  0.00  0.00     0.138 A 
ATOM     16  HN  UNK N   1      35.532  13.995  13.904  1.00  0.00     0.169 HD
HETATM   17  N   UNK N   1      36.109  10.843  14.065  0.00  0.00    -0.242 N 
HETATM   18  C   UNK N   1      35.970  12.328  16.042  0.00  0.00     0.017 A 
HETATM   19  O   UNK N   1      35.825  11.035  12.817  0.00  0.00    -0.217 OA
ATOM     20  HN  UNK N   1      36.341   9.961  14.520  1.00  0.00     0.196 HD
HETATM   21  C   UNK N   1      35.846  13.665  16.456  0.00  0.00     0.016 A 
HETATM   22  C   UNK N   1      35.734  11.294  16.946  0.00  0.00    -0.036 A 
HETATM   23  C   UNK N   1      35.436  13.956  17.751  0.00  0.00     0.002 A 
HETATM   24  C   UNK N   1      35.090  12.910  18.597  0.00  0.00     0.010 A 
HETATM   25  C   UNK N   1      35.274  11.587  18.183  0.00  0.00    -0.029 A 
HETATM   26  C   UNK N   1      34.890  10.382  18.954  0.00  0.00     0.110 A 
HETATM   27  C   UNK N   1      35.130   9.238  17.946  0.00  0.00     0.034 A 
HETATM   28  C   UNK N   1      35.772   9.837  16.686  0.00  0.00     0.042 A 
BRANCH  26  29
HETATM   29  N   UNK N   1      35.724  10.166  20.142  0.00  0.00    -0.411 N 
HETATM   30  H   UNK N   1      36.722  10.374  20.169  0.00  0.00     0.154 HD
BRANCH  29  31
HETATM   31  C   UNK N   1      34.986   9.622  21.287  0.00  0.00     0.140 C 
BRANCH  31  32
HETATM   32  C   UNK N   1      33.540  10.101  21.321  0.00  0.00     0.183 C 
BRANCH  32  33
HETATM   33  O   UNK N   1      33.469  11.321  22.001  0.00  0.00    -0.399 OA
HETATM   34  H   UNK N   1      33.759  11.414  22.921  0.00  0.00     0.209 HD
ENDBRANCH  32  33
ENDBRANCH  31  32
ENDBRANCH  29  31
ENDBRANCH  26  29
ENDBRANCH   4  13
TORSDOF 7
ENDMDL
