REMARK  12 active torsions:
REMARK  status: ('A' for Active; 'I' for Inactive)
REMARK    1  A    between atoms: C_2  and  O_3 
REMARK    2  A    between atoms: O_3  and  C_4 
REMARK    3  A    between atoms: C_4  and  C_5 
REMARK    4  A    between atoms: C_7  and  O_35 
REMARK    5  A    between atoms: C_8  and  C_13 
REMARK    6  A    between atoms: C_9  and  O_11 
REMARK    7  A    between atoms: C_16  and  C_19 
REMARK    8  A    between atoms: C_19  and  C_20 
REMARK    9  A    between atoms: C_20  and  C_21 
REMARK   10  A    between atoms: C_20  and  N_24 
REMARK   11  A    between atoms: C_21  and  O_23 
REMARK       I    between atoms: N_24  and  C_25 
REMARK   12  A    between atoms: C_25  and  C_27 
ROOT
HETATM    1  C   UNK N   1      -2.227  -1.810  -0.444  0.00  0.00    -0.020 A 
HETATM    2  C   UNK N   1      -1.191  -1.476  -1.323  0.00  0.00     0.013 A 
HETATM    3  C   UNK N   1      -0.041  -2.235  -1.379  0.00  0.00     0.008 A 
HETATM    4  C   UNK N   1       0.101  -3.329  -0.538  0.00  0.00    -0.056 A 
HETATM    5  C   UNK N   1      -0.940  -3.722   0.308  0.00  0.00     0.008 A 
HETATM    6  C   UNK N   1      -2.119  -2.975   0.336  0.00  0.00     0.013 A 
ENDROOT
BRANCH   4   7
HETATM    7  C   UNK N   1       1.462  -3.862  -0.362  0.00  0.00     0.074 C 
BRANCH   7   8
HETATM    8  C   UNK N   1       2.148  -3.192   0.845  0.00  0.00     0.186 C 
BRANCH   8   9
HETATM    9  C   UNK N   1       1.809  -1.732   1.132  0.00  0.00     0.163 C 
HETATM   10  O   UNK N   1       1.979  -0.864   0.290  0.00  0.00    -0.648 OA
BRANCH   9  11
HETATM   11  O   UNK N   1       1.237  -1.404   2.305  0.00  0.00    -0.775 OA
HETATM   12  H   UNK N   1       1.236  -0.944   3.122  0.00  0.00     0.167 HD
ENDBRANCH   9  11
ENDBRANCH   8   9
BRANCH   8  13
HETATM   13  N   UNK N   1       3.560  -3.486   0.772  0.00  0.00    -0.342 N 
HETATM   14  C   UNK N   1       4.487  -2.825   0.032  0.00  0.00     0.258 C 
HETATM   15  O   UNK N   1       4.217  -1.757  -0.503  0.00  0.00    -0.267 OA
HETATM   16  H   UNK N   1       3.884  -4.242   1.313  0.00  0.00     0.163 HD
BRANCH  14  17
HETATM   17  C   UNK N   1       5.822  -3.431  -0.177  0.00  0.00     0.108 A 
HETATM   18  C   UNK N   1       6.897  -2.668  -0.677  0.00  0.00     0.135 A 
HETATM   19  C   UNK N   1       8.139  -3.266  -0.898  0.00  0.00     0.043 A 
HETATM   20  F   UNK N   1       6.755  -1.342  -0.935  0.00  0.00    -0.205 F 
HETATM   21  C   UNK N   1       8.322  -4.624  -0.639  0.00  0.00     0.006 A 
HETATM   22  C   UNK N   1       7.266  -5.391  -0.151  0.00  0.00     0.043 A 
HETATM   23  C   UNK N   1       6.023  -4.808   0.087  0.00  0.00     0.135 A 
HETATM   24  F   UNK N   1       5.011  -5.597   0.528  0.00  0.00    -0.205 F 
ENDBRANCH  14  17
ENDBRANCH   8  13
ENDBRANCH   7   8
ENDBRANCH   4   7
BRANCH   1  25
HETATM   25  C   UNK N   1      -3.324  -0.842  -0.202  0.00  0.00     0.041 A 
HETATM   26  C   UNK N   1      -3.057   0.553  -0.292  0.00  0.00     0.082 A 
HETATM   27  C   UNK N   1      -4.070   1.473  -0.004  0.00  0.00     0.047 A 
HETATM   28  C   UNK N   1      -5.334   1.039   0.364  0.00  0.00    -0.029 A 
HETATM   29  C   UNK N   1      -5.605  -0.325   0.462  0.00  0.00     0.047 A 
HETATM   30  C   UNK N   1      -4.612  -1.278   0.190  0.00  0.00     0.082 A 
BRANCH  26  31
HETATM   31  O   UNK N   1      -1.807   0.991  -0.597  0.00  0.00    -0.355 OA
HETATM   32  C   UNK N   1      -1.430   2.315  -0.591  0.00  0.00     0.210 C 
ENDBRANCH  26  31
BRANCH  28  33
HETATM   33  C   UNK N   1      -6.391   2.044   0.663  0.00  0.00     0.206 C 
BRANCH  33  34
HETATM   34  O   UNK N   1      -7.383   2.008  -0.320  0.00  0.00    -0.387 OA
BRANCH  34  35
HETATM   35  C   UNK N   1      -8.448   1.308   0.249  0.00  0.00     0.163 C 
HETATM   36  C   UNK N   1      -8.670   0.015  -0.511  0.00  0.00     0.033 C 
ENDBRANCH  34  35
ENDBRANCH  33  34
ENDBRANCH  28  33
BRANCH  30  37
HETATM   37  O   UNK N   1      -4.884  -2.605   0.278  0.00  0.00    -0.355 OA
HETATM   38  C   UNK N   1      -6.122  -3.106   0.614  0.00  0.00     0.210 C 
ENDBRANCH  30  37
ENDBRANCH   1  25
TORSDOF 12
