MODEL 1
REMARK VINA RESULT:      -8.1      0.000      0.000
REMARK  4 active torsions:
REMARK  status: ('A' for Active; 'I' for Inactive)
REMARK    1  A    between atoms: C_10  and  C_11 
REMARK       I    between atoms: C_11  and  N_13 
REMARK    2  A    between atoms: N_24  and  C_25 
REMARK    3  A    between atoms: C_25  and  C_26 
REMARK    4  A    between atoms: C_26  and  O_28 
ROOT
HETATM    1  C   UNK N   1      27.778  18.817   5.423  0.00  0.00     0.255 C 
HETATM    2  O   UNK N   1      27.972  19.953   5.007  0.00  0.00    -0.267 OA
HETATM    3  N   UNK N   1      26.785  18.059   4.857  0.00  0.00    -0.343 N 
HETATM    4  C   UNK N   1      25.907  18.596   3.823  0.00  0.00     0.132 C 
HETATM    5  C   UNK N   1      24.405  18.358   4.148  0.00  0.00     0.078 C 
HETATM    6  C   UNK N   1      24.183  17.168   5.055  0.00  0.00     0.023 A 
HETATM    7  C   UNK N   1      25.230  16.419   5.544  0.00  0.00    -0.005 A 
HETATM    8  C   UNK N   1      24.699  15.471   6.368  0.00  0.00     0.004 A 
HETATM    9  C   UNK N   1      25.316  14.487   7.133  0.00  0.00     0.056 A 
HETATM   10  C   UNK N   1      24.494  13.652   7.907  0.00  0.00     0.117 A 
HETATM   11  C   UNK N   1      23.089  13.818   7.888  0.00  0.00     0.044 A 
HETATM   12  C   UNK N   1      22.496  14.824   7.097  0.00  0.00     0.033 A 
HETATM   13  C   UNK N   1      23.340  15.644   6.348  0.00  0.00     0.046 A 
HETATM   14  N   UNK N   1      23.003  16.676   5.539  0.00  0.00    -0.339 N 
HETATM   15  F   UNK N   1      25.054  12.691   8.680  0.00  0.00    -0.206 F 
HETATM   16  C   UNK N   1      26.639  16.661   5.194  0.00  0.00     0.167 C 
ENDROOT
BRANCH   1  17
HETATM   17  C   UNK N   1      28.667  18.276   6.519  0.00  0.00     0.043 A 
HETATM   18  C   UNK N   1      28.266  18.413   7.862  0.00  0.00     0.018 A 
HETATM   19  C   UNK N   1      29.040  17.926   8.912  0.00  0.00     0.002 A 
HETATM   20  C   UNK N   1      30.236  17.270   8.647  0.00  0.00     0.012 A 
HETATM   21  C   UNK N   1      30.669  17.109   7.332  0.00  0.00    -0.025 A 
HETATM   22  C   UNK N   1      29.898  17.622   6.253  0.00  0.00    -0.010 A 
HETATM   23  C   UNK N   1      31.859  16.422   7.084  0.00  0.00     0.012 A 
HETATM   24  C   UNK N   1      30.357  17.420   4.942  0.00  0.00     0.013 A 
HETATM   25  C   UNK N   1      31.549  16.731   4.704  0.00  0.00     0.001 A 
HETATM   26  C   UNK N   1      32.297  16.232   5.773  0.00  0.00     0.001 A 
ENDBRANCH   1  17
BRANCH  14  27
HETATM   27  C   UNK N   1      21.614  17.091   5.292  0.00  0.00     0.238 C 
BRANCH  27  28
HETATM   28  C   UNK N   1      21.241  18.417   5.872  0.00  0.00     0.158 C 
HETATM   29  O   UNK N   1      21.132  18.541   7.081  0.00  0.00    -0.649 OA
BRANCH  28  30
HETATM   30  O   UNK N   1      21.079  19.485   5.069  0.00  0.00    -0.775 OA
HETATM   31  H   UNK N   1      20.971  19.688   4.161  0.00  0.00     0.167 HD
ENDBRANCH  28  30
ENDBRANCH  27  28
ENDBRANCH  14  27
TORSDOF 4
ENDMDL
MODEL 2
REMARK VINA RESULT:      -8.0      6.584     10.846
REMARK  4 active torsions:
REMARK  status: ('A' for Active; 'I' for Inactive)
REMARK    1  A    between atoms: C_10  and  C_11 
REMARK       I    between atoms: C_11  and  N_13 
REMARK    2  A    between atoms: N_24  and  C_25 
REMARK    3  A    between atoms: C_25  and  C_26 
REMARK    4  A    between atoms: C_26  and  O_28 
ROOT
HETATM    1  C   UNK N   1      34.345  17.535   8.530  0.00  0.00     0.255 C 
HETATM    2  O   UNK N   1      34.904  18.617   8.671  0.00  0.00    -0.267 OA
HETATM    3  N   UNK N   1      34.484  16.580   9.505  0.00  0.00    -0.343 N 
HETATM    4  C   UNK N   1      35.338  16.793  10.669  0.00  0.00     0.132 C 
HETATM    5  C   UNK N   1      36.322  15.610  10.896  0.00  0.00     0.078 C 
HETATM    6  C   UNK N   1      35.816  14.308  10.317  0.00  0.00     0.023 A 
HETATM    7  C   UNK N   1      34.620  14.226   9.640  0.00  0.00    -0.005 A 
HETATM    8  C   UNK N   1      34.490  12.943   9.199  0.00  0.00     0.004 A 
HETATM    9  C   UNK N   1      33.490  12.340   8.445  0.00  0.00     0.056 A 
HETATM   10  C   UNK N   1      33.641  10.980   8.128  0.00  0.00     0.117 A 
HETATM   11  C   UNK N   1      34.775  10.265   8.579  0.00  0.00     0.044 A 
HETATM   12  C   UNK N   1      35.770  10.906   9.347  0.00  0.00     0.033 A 
HETATM   13  C   UNK N   1      35.596  12.260   9.635  0.00  0.00     0.046 A 
HETATM   14  N   UNK N   1      36.418  13.080  10.333  0.00  0.00    -0.339 N 
HETATM   15  F   UNK N   1      32.699  10.358   7.381  0.00  0.00    -0.206 F 
HETATM   16  C   UNK N   1      33.704  15.365   9.465  0.00  0.00     0.167 C 
ENDROOT
BRANCH   1  17
HETATM   17  C   UNK N   1      33.489  17.307   7.306  0.00  0.00     0.043 A 
HETATM   18  C   UNK N   1      34.099  16.900   6.104  0.00  0.00     0.018 A 
HETATM   19  C   UNK N   1      33.359  16.665   4.948  0.00  0.00     0.002 A 
HETATM   20  C   UNK N   1      31.978  16.815   4.965  0.00  0.00     0.012 A 
HETATM   21  C   UNK N   1      31.332  17.213   6.134  0.00  0.00    -0.025 A 
HETATM   22  C   UNK N   1      32.079  17.477   7.315  0.00  0.00    -0.010 A 
HETATM   23  C   UNK N   1      29.941  17.330   6.140  0.00  0.00     0.012 A 
HETATM   24  C   UNK N   1      31.390  17.853   8.478  0.00  0.00     0.013 A 
HETATM   25  C   UNK N   1      29.997  17.968   8.473  0.00  0.00     0.001 A 
HETATM   26  C   UNK N   1      29.275  17.705   7.308  0.00  0.00     0.001 A 
ENDBRANCH   1  17
BRANCH  14  27
HETATM   27  C   UNK N   1      37.675  12.632  10.950  0.00  0.00     0.238 C 
BRANCH  27  28
HETATM   28  C   UNK N   1      37.547  12.153  12.360  0.00  0.00     0.158 C 
HETATM   29  O   UNK N   1      37.762  10.982  12.624  0.00  0.00    -0.649 OA
BRANCH  28  30
HETATM   30  O   UNK N   1      37.250  13.021  13.345  0.00  0.00    -0.775 OA
HETATM   31  H   UNK N   1      36.948  13.901  13.457  0.00  0.00     0.167 HD
ENDBRANCH  28  30
ENDBRANCH  27  28
ENDBRANCH  14  27
TORSDOF 4
ENDMDL
MODEL 3
REMARK VINA RESULT:      -7.9      1.062      2.264
REMARK  4 active torsions:
REMARK  status: ('A' for Active; 'I' for Inactive)
REMARK    1  A    between atoms: C_10  and  C_11 
REMARK       I    between atoms: C_11  and  N_13 
REMARK    2  A    between atoms: N_24  and  C_25 
REMARK    3  A    between atoms: C_25  and  C_26 
REMARK    4  A    between atoms: C_26  and  O_28 
ROOT
HETATM    1  C   UNK N   1      27.992  19.070   4.619  0.00  0.00     0.255 C 
HETATM    2  O   UNK N   1      28.279  20.243   4.409  0.00  0.00    -0.267 OA
HETATM    3  N   UNK N   1      26.786  18.588   4.177  0.00  0.00    -0.343 N 
HETATM    4  C   UNK N   1      25.806  19.454   3.530  0.00  0.00     0.132 C 
HETATM    5  C   UNK N   1      24.394  19.319   4.166  0.00  0.00     0.078 C 
HETATM    6  C   UNK N   1      24.179  17.980   4.835  0.00  0.00     0.023 A 
HETATM    7  C   UNK N   1      25.165  17.021   4.882  0.00  0.00    -0.005 A 
HETATM    8  C   UNK N   1      24.676  15.970   5.600  0.00  0.00     0.004 A 
HETATM    9  C   UNK N   1      25.271  14.768   5.967  0.00  0.00     0.056 A 
HETATM   10  C   UNK N   1      24.510  13.872   6.735  0.00  0.00     0.117 A 
HETATM   11  C   UNK N   1      23.183  14.197   7.104  0.00  0.00     0.044 A 
HETATM   12  C   UNK N   1      22.609  15.424   6.711  0.00  0.00     0.033 A 
HETATM   13  C   UNK N   1      23.395  16.297   5.959  0.00  0.00     0.046 A 
HETATM   14  N   UNK N   1      23.067  17.525   5.489  0.00  0.00    -0.339 N 
HETATM   15  F   UNK N   1      25.054  12.697   7.129  0.00  0.00    -0.206 F 
HETATM   16  C   UNK N   1      26.484  17.177   4.246  0.00  0.00     0.167 C 
ENDROOT
BRANCH   1  17
HETATM   17  C   UNK N   1      28.995  18.185   5.322  0.00  0.00     0.043 A 
HETATM   18  C   UNK N   1      29.959  17.497   4.560  0.00  0.00     0.018 A 
HETATM   19  C   UNK N   1      30.914  16.675   5.154  0.00  0.00     0.002 A 
HETATM   20  C   UNK N   1      30.942  16.530   6.535  0.00  0.00     0.012 A 
HETATM   21  C   UNK N   1      30.009  17.195   7.328  0.00  0.00    -0.025 A 
HETATM   22  C   UNK N   1      29.016  18.019   6.731  0.00  0.00    -0.010 A 
HETATM   23  C   UNK N   1      30.071  17.060   8.716  0.00  0.00     0.012 A 
HETATM   24  C   UNK N   1      28.108  18.691   7.565  0.00  0.00     0.013 A 
HETATM   25  C   UNK N   1      28.178  18.549   8.953  0.00  0.00     0.001 A 
HETATM   26  C   UNK N   1      29.159  17.737   9.527  0.00  0.00     0.001 A 
ENDBRANCH   1  17
BRANCH  14  27
HETATM   27  C   UNK N   1      21.748  18.143   5.689  0.00  0.00     0.238 C 
BRANCH  27  28
HETATM   28  C   UNK N   1      21.071  18.600   4.438  0.00  0.00     0.158 C 
HETATM   29  O   UNK N   1      20.785  17.789   3.573  0.00  0.00    -0.649 OA
BRANCH  28  30
HETATM   30  O   UNK N   1      20.727  19.892   4.288  0.00  0.00    -0.775 OA
HETATM   31  H   UNK N   1      20.034  20.480   4.517  0.00  0.00     0.167 HD
ENDBRANCH  28  30
ENDBRANCH  27  28
ENDBRANCH  14  27
TORSDOF 4
ENDMDL
MODEL 4
REMARK VINA RESULT:      -7.9      4.417      6.403
REMARK  4 active torsions:
REMARK  status: ('A' for Active; 'I' for Inactive)
REMARK    1  A    between atoms: C_10  and  C_11 
REMARK       I    between atoms: C_11  and  N_13 
REMARK    2  A    between atoms: N_24  and  C_25 
REMARK    3  A    between atoms: C_25  and  C_26 
REMARK    4  A    between atoms: C_26  and  O_28 
ROOT
HETATM    1  C   UNK N   1      22.108  14.778   5.264  0.00  0.00     0.255 C 
HETATM    2  O   UNK N   1      21.096  14.088   5.217  0.00  0.00    -0.267 OA
HETATM    3  N   UNK N   1      21.984  16.135   5.427  0.00  0.00    -0.343 N 
HETATM    4  C   UNK N   1      20.678  16.785   5.473  0.00  0.00     0.132 C 
HETATM    5  C   UNK N   1      20.590  17.991   4.496  0.00  0.00     0.078 C 
HETATM    6  C   UNK N   1      21.941  18.599   4.192  0.00  0.00     0.023 A 
HETATM    7  C   UNK N   1      23.105  18.090   4.721  0.00  0.00    -0.005 A 
HETATM    8  C   UNK N   1      24.137  18.820   4.209  0.00  0.00     0.004 A 
HETATM    9  C   UNK N   1      25.510  18.702   4.393  0.00  0.00     0.056 A 
HETATM   10  C   UNK N   1      26.340  19.605   3.708  0.00  0.00     0.117 A 
HETATM   11  C   UNK N   1      25.776  20.598   2.873  0.00  0.00     0.044 A 
HETATM   12  C   UNK N   1      24.378  20.693   2.712  0.00  0.00     0.033 A 
HETATM   13  C   UNK N   1      23.582  19.774   3.396  0.00  0.00     0.046 A 
HETATM   14  N   UNK N   1      22.232  19.661   3.381  0.00  0.00    -0.339 N 
HETATM   15  F   UNK N   1      27.684  19.516   3.845  0.00  0.00    -0.206 F 
HETATM   16  C   UNK N   1      23.147  16.959   5.663  0.00  0.00     0.167 C 
ENDROOT
BRANCH   1  17
HETATM   17  C   UNK N   1      23.458  14.105   5.181  0.00  0.00     0.043 A 
HETATM   18  C   UNK N   1      23.974  13.453   6.317  0.00  0.00     0.018 A 
HETATM   19  C   UNK N   1      25.208  12.808   6.296  0.00  0.00     0.002 A 
HETATM   20  C   UNK N   1      25.958  12.782   5.127  0.00  0.00     0.012 A 
HETATM   21  C   UNK N   1      25.484  13.413   3.978  0.00  0.00    -0.025 A 
HETATM   22  C   UNK N   1      24.236  14.093   3.993  0.00  0.00    -0.010 A 
HETATM   23  C   UNK N   1      26.239  13.352   2.805  0.00  0.00     0.012 A 
HETATM   24  C   UNK N   1      23.783  14.696   2.809  0.00  0.00     0.013 A 
HETATM   25  C   UNK N   1      24.545  14.629   1.641  0.00  0.00     0.001 A 
HETATM   26  C   UNK N   1      25.769  13.957   1.638  0.00  0.00     0.001 A 
ENDBRANCH   1  17
BRANCH  14  27
HETATM   27  C   UNK N   1      21.353  20.560   2.620  0.00  0.00     0.238 C 
BRANCH  27  28
HETATM   28  C   UNK N   1      21.021  20.095   1.239  0.00  0.00     0.158 C 
HETATM   29  O   UNK N   1      21.415  20.729   0.274  0.00  0.00    -0.649 OA
BRANCH  28  30
HETATM   30  O   UNK N   1      20.336  18.951   1.057  0.00  0.00    -0.775 OA
HETATM   31  H   UNK N   1      19.647  18.607   0.524  0.00  0.00     0.167 HD
ENDBRANCH  28  30
ENDBRANCH  27  28
ENDBRANCH  14  27
TORSDOF 4
ENDMDL
MODEL 5
REMARK VINA RESULT:      -7.8      3.261      7.928
REMARK  4 active torsions:
REMARK  status: ('A' for Active; 'I' for Inactive)
REMARK    1  A    between atoms: C_10  and  C_11 
REMARK       I    between atoms: C_11  and  N_13 
REMARK    2  A    between atoms: N_24  and  C_25 
REMARK    3  A    between atoms: C_25  and  C_26 
REMARK    4  A    between atoms: C_26  and  O_28 
ROOT
HETATM    1  C   UNK N   1      22.808  15.034   5.236  0.00  0.00     0.255 C 
HETATM    2  O   UNK N   1      22.292  14.169   5.935  0.00  0.00    -0.267 OA
HETATM    3  N   UNK N   1      24.175  15.082   5.133  0.00  0.00    -0.343 N 
HETATM    4  C   UNK N   1      25.033  14.176   5.891  0.00  0.00     0.132 C 
HETATM    5  C   UNK N   1      26.152  14.935   6.659  0.00  0.00     0.078 C 
HETATM    6  C   UNK N   1      26.503  16.261   6.023  0.00  0.00     0.023 A 
HETATM    7  C   UNK N   1      25.855  16.726   4.901  0.00  0.00    -0.005 A 
HETATM    8  C   UNK N   1      26.360  17.962   4.623  0.00  0.00     0.004 A 
HETATM    9  C   UNK N   1      26.034  18.871   3.623  0.00  0.00     0.056 A 
HETATM   10  C   UNK N   1      26.729  20.091   3.599  0.00  0.00     0.117 A 
HETATM   11  C   UNK N   1      27.729  20.361   4.563  0.00  0.00     0.044 A 
HETATM   12  C   UNK N   1      28.038  19.415   5.561  0.00  0.00     0.033 A 
HETATM   13  C   UNK N   1      27.322  18.217   5.566  0.00  0.00     0.046 A 
HETATM   14  N   UNK N   1      27.431  17.179   6.429  0.00  0.00    -0.339 N 
HETATM   15  F   UNK N   1      26.432  21.013   2.653  0.00  0.00    -0.206 F 
HETATM   16  C   UNK N   1      24.814  15.967   4.187  0.00  0.00     0.167 C 
ENDROOT
BRANCH   1  17
HETATM   17  C   UNK N   1      21.918  15.993   4.480  0.00  0.00     0.043 A 
HETATM   18  C   UNK N   1      21.629  17.252   5.040  0.00  0.00     0.018 A 
HETATM   19  C   UNK N   1      20.822  18.179   4.385  0.00  0.00     0.002 A 
HETATM   20  C   UNK N   1      20.293  17.878   3.136  0.00  0.00     0.012 A 
HETATM   21  C   UNK N   1      20.556  16.644   2.543  0.00  0.00    -0.025 A 
HETATM   22  C   UNK N   1      21.360  15.682   3.212  0.00  0.00    -0.010 A 
HETATM   23  C   UNK N   1      20.039  16.372   1.276  0.00  0.00     0.012 A 
HETATM   24  C   UNK N   1      21.621  14.460   2.572  0.00  0.00     0.013 A 
HETATM   25  C   UNK N   1      21.099  14.197   1.303  0.00  0.00     0.001 A 
HETATM   26  C   UNK N   1      20.311  15.151   0.656  0.00  0.00     0.001 A 
ENDBRANCH   1  17
BRANCH  14  27
HETATM   27  C   UNK N   1      28.397  17.146   7.537  0.00  0.00     0.238 C 
BRANCH  27  28
HETATM   28  C   UNK N   1      27.863  17.614   8.852  0.00  0.00     0.158 C 
HETATM   29  O   UNK N   1      27.793  16.836   9.789  0.00  0.00    -0.649 OA
BRANCH  28  30
HETATM   30  O   UNK N   1      27.510  18.901   9.019  0.00  0.00    -0.775 OA
HETATM   31  H   UNK N   1      27.577  19.585   9.656  0.00  0.00     0.167 HD
ENDBRANCH  28  30
ENDBRANCH  27  28
ENDBRANCH  14  27
TORSDOF 4
ENDMDL
MODEL 6
REMARK VINA RESULT:      -7.8      5.699      7.394
REMARK  4 active torsions:
REMARK  status: ('A' for Active; 'I' for Inactive)
REMARK    1  A    between atoms: C_10  and  C_11 
REMARK       I    between atoms: C_11  and  N_13 
REMARK    2  A    between atoms: N_24  and  C_25 
REMARK    3  A    between atoms: C_25  and  C_26 
REMARK    4  A    between atoms: C_26  and  O_28 
ROOT
HETATM    1  C   UNK N   1      20.832  14.281   7.565  0.00  0.00     0.255 C 
HETATM    2  O   UNK N   1      19.799  14.308   8.225  0.00  0.00    -0.267 OA
HETATM    3  N   UNK N   1      20.970  15.142   6.505  0.00  0.00    -0.343 N 
HETATM    4  C   UNK N   1      19.891  16.036   6.099  0.00  0.00     0.132 C 
HETATM    5  C   UNK N   1      19.591  15.937   4.576  0.00  0.00     0.078 C 
HETATM    6  C   UNK N   1      20.783  15.465   3.774  0.00  0.00     0.023 A 
HETATM    7  C   UNK N   1      21.980  15.137   4.370  0.00  0.00    -0.005 A 
HETATM    8  C   UNK N   1      22.816  14.696   3.387  0.00  0.00     0.004 A 
HETATM    9  C   UNK N   1      24.120  14.219   3.453  0.00  0.00     0.056 A 
HETATM   10  C   UNK N   1      24.729  13.817   2.253  0.00  0.00     0.117 A 
HETATM   11  C   UNK N   1      24.024  13.913   1.029  0.00  0.00     0.044 A 
HETATM   12  C   UNK N   1      22.704  14.406   0.998  0.00  0.00     0.033 A 
HETATM   13  C   UNK N   1      22.123  14.786   2.208  0.00  0.00     0.046 A 
HETATM   14  N   UNK N   1      20.875  15.265   2.425  0.00  0.00    -0.339 N 
HETATM   15  F   UNK N   1      25.992  13.331   2.272  0.00  0.00    -0.206 F 
HETATM   16  C   UNK N   1      22.233  15.266   5.815  0.00  0.00     0.167 C 
ENDROOT
BRANCH   1  17
HETATM   17  C   UNK N   1      21.934  13.329   7.968  0.00  0.00     0.043 A 
HETATM   18  C   UNK N   1      22.754  13.651   9.066  0.00  0.00     0.018 A 
HETATM   19  C   UNK N   1      23.779  12.807   9.489  0.00  0.00     0.002 A 
HETATM   20  C   UNK N   1      24.002  11.603   8.832  0.00  0.00     0.012 A 
HETATM   21  C   UNK N   1      23.212  11.244   7.742  0.00  0.00    -0.025 A 
HETATM   22  C   UNK N   1      22.177  12.107   7.288  0.00  0.00    -0.010 A 
HETATM   23  C   UNK N   1      23.433  10.018   7.112  0.00  0.00     0.012 A 
HETATM   24  C   UNK N   1      21.388  11.699   6.201  0.00  0.00     0.013 A 
HETATM   25  C   UNK N   1      21.617  10.470   5.578  0.00  0.00     0.001 A 
HETATM   26  C   UNK N   1      22.636   9.631   6.034  0.00  0.00     0.001 A 
ENDBRANCH   1  17
BRANCH  14  27
HETATM   27  C   UNK N   1      19.899  15.498   1.349  0.00  0.00     0.238 C 
BRANCH  27  28
HETATM   28  C   UNK N   1      19.847  16.902   0.839  0.00  0.00     0.158 C 
HETATM   29  O   UNK N   1      20.377  17.181  -0.224  0.00  0.00    -0.649 OA
BRANCH  28  30
HETATM   30  O   UNK N   1      19.172  17.844   1.522  0.00  0.00    -0.775 OA
HETATM   31  H   UNK N   1      18.489  18.472   1.391  0.00  0.00     0.167 HD
ENDBRANCH  28  30
ENDBRANCH  27  28
ENDBRANCH  14  27
TORSDOF 4
ENDMDL
MODEL 7
REMARK VINA RESULT:      -7.7      1.738      2.164
REMARK  4 active torsions:
REMARK  status: ('A' for Active; 'I' for Inactive)
REMARK    1  A    between atoms: C_10  and  C_11 
REMARK       I    between atoms: C_11  and  N_13 
REMARK    2  A    between atoms: N_24  and  C_25 
REMARK    3  A    between atoms: C_25  and  C_26 
REMARK    4  A    between atoms: C_26  and  O_28 
ROOT
HETATM    1  C   UNK N   1      27.548  19.579   4.892  0.00  0.00     0.255 C 
HETATM    2  O   UNK N   1      28.056  20.651   4.582  0.00  0.00    -0.267 OA
HETATM    3  N   UNK N   1      26.461  19.127   4.188  0.00  0.00    -0.343 N 
HETATM    4  C   UNK N   1      25.849  19.923   3.130  0.00  0.00     0.132 C 
HETATM    5  C   UNK N   1      24.310  20.054   3.310  0.00  0.00     0.078 C 
HETATM    6  C   UNK N   1      23.714  18.910   4.100  0.00  0.00     0.023 A 
HETATM    7  C   UNK N   1      24.490  17.897   4.615  0.00  0.00    -0.005 A 
HETATM    8  C   UNK N   1      23.664  17.069   5.316  0.00  0.00     0.004 A 
HETATM    9  C   UNK N   1      23.941  15.922   6.050  0.00  0.00     0.056 A 
HETATM   10  C   UNK N   1      22.867  15.279   6.687  0.00  0.00     0.117 A 
HETATM   11  C   UNK N   1      21.555  15.794   6.564  0.00  0.00     0.044 A 
HETATM   12  C   UNK N   1      21.308  16.958   5.808  0.00  0.00     0.033 A 
HETATM   13  C   UNK N   1      22.398  17.579   5.197  0.00  0.00     0.046 A 
HETATM   14  N   UNK N   1      22.407  18.706   4.445  0.00  0.00    -0.339 N 
HETATM   15  F   UNK N   1      23.093  14.168   7.427  0.00  0.00    -0.206 F 
HETATM   16  C   UNK N   1      25.944  17.795   4.403  0.00  0.00     0.167 C 
ENDROOT
BRANCH   1  17
HETATM   17  C   UNK N   1      28.164  18.773   6.012  0.00  0.00     0.043 A 
HETATM   18  C   UNK N   1      27.724  18.982   7.333  0.00  0.00     0.018 A 
HETATM   19  C   UNK N   1      28.248  18.262   8.404  0.00  0.00     0.002 A 
HETATM   20  C   UNK N   1      29.221  17.295   8.181  0.00  0.00     0.012 A 
HETATM   21  C   UNK N   1      29.683  17.054   6.888  0.00  0.00    -0.025 A 
HETATM   22  C   UNK N   1      29.171  17.798   5.791  0.00  0.00    -0.010 A 
HETATM   23  C   UNK N   1      30.640  16.059   6.680  0.00  0.00     0.012 A 
HETATM   24  C   UNK N   1      29.645  17.508   4.501  0.00  0.00     0.013 A 
HETATM   25  C   UNK N   1      30.603  16.511   4.303  0.00  0.00     0.001 A 
HETATM   26  C   UNK N   1      31.097  15.787   5.390  0.00  0.00     0.001 A 
ENDBRANCH   1  17
BRANCH  14  27
HETATM   27  C   UNK N   1      21.194  19.470   4.117  0.00  0.00     0.238 C 
BRANCH  27  28
HETATM   28  C   UNK N   1      21.213  20.136   2.779  0.00  0.00     0.158 C 
HETATM   29  O   UNK N   1      20.989  19.483   1.774  0.00  0.00    -0.649 OA
BRANCH  28  30
HETATM   30  O   UNK N   1      21.421  21.462   2.687  0.00  0.00    -0.775 OA
HETATM   31  H   UNK N   1      21.831  22.085   2.119  0.00  0.00     0.167 HD
ENDBRANCH  28  30
ENDBRANCH  27  28
ENDBRANCH  14  27
TORSDOF 4
ENDMDL
MODEL 8
REMARK VINA RESULT:      -7.6     13.039     15.951
REMARK  4 active torsions:
REMARK  status: ('A' for Active; 'I' for Inactive)
REMARK    1  A    between atoms: C_10  and  C_11 
REMARK       I    between atoms: C_11  and  N_13 
REMARK    2  A    between atoms: N_24  and  C_25 
REMARK    3  A    between atoms: C_25  and  C_26 
REMARK    4  A    between atoms: C_26  and  O_28 
ROOT
HETATM    1  C   UNK N   1      27.466  26.112  -8.073  0.00  0.00     0.255 C 
HETATM    2  O   UNK N   1      26.947  26.304  -9.167  0.00  0.00    -0.267 OA
HETATM    3  N   UNK N   1      28.640  25.404  -8.006  0.00  0.00    -0.343 N 
HETATM    4  C   UNK N   1      29.246  24.812  -9.194  0.00  0.00     0.132 C 
HETATM    5  C   UNK N   1      29.596  23.312  -8.986  0.00  0.00     0.078 C 
HETATM    6  C   UNK N   1      29.819  22.958  -7.533  0.00  0.00     0.023 A 
HETATM    7  C   UNK N   1      29.685  23.888  -6.527  0.00  0.00    -0.005 A 
HETATM    8  C   UNK N   1      29.890  23.240  -5.345  0.00  0.00     0.004 A 
HETATM    9  C   UNK N   1      29.840  23.705  -4.036  0.00  0.00     0.056 A 
HETATM   10  C   UNK N   1      30.086  22.782  -3.006  0.00  0.00     0.117 A 
HETATM   11  C   UNK N   1      30.381  21.433  -3.314  0.00  0.00     0.044 A 
HETATM   12  C   UNK N   1      30.428  20.995  -4.653  0.00  0.00     0.033 A 
HETATM   13  C   UNK N   1      30.168  21.933  -5.653  0.00  0.00     0.046 A 
HETATM   14  N   UNK N   1      30.139  21.743  -6.993  0.00  0.00    -0.339 N 
HETATM   15  F   UNK N   1      30.031  23.187  -1.716  0.00  0.00    -0.206 F 
HETATM   16  C   UNK N   1      29.374  25.307  -6.765  0.00  0.00     0.167 C 
ENDROOT
BRANCH   1  17
HETATM   17  C   UNK N   1      26.817  26.697  -6.841  0.00  0.00     0.043 A 
HETATM   18  C   UNK N   1      25.814  25.964  -6.177  0.00  0.00     0.018 A 
HETATM   19  C   UNK N   1      25.188  26.449  -5.031  0.00  0.00     0.002 A 
HETATM   20  C   UNK N   1      25.559  27.680  -4.505  0.00  0.00     0.012 A 
HETATM   21  C   UNK N   1      26.549  28.437  -5.129  0.00  0.00    -0.025 A 
HETATM   22  C   UNK N   1      27.181  27.963  -6.310  0.00  0.00    -0.010 A 
HETATM   23  C   UNK N   1      26.930  29.658  -4.569  0.00  0.00     0.012 A 
HETATM   24  C   UNK N   1      28.190  28.744  -6.896  0.00  0.00     0.013 A 
HETATM   25  C   UNK N   1      28.562  29.965  -6.328  0.00  0.00     0.001 A 
HETATM   26  C   UNK N   1      27.935  30.420  -5.166  0.00  0.00     0.001 A 
ENDBRANCH   1  17
BRANCH  14  27
HETATM   27  C   UNK N   1      30.422  20.450  -7.634  0.00  0.00     0.238 C 
BRANCH  27  28
HETATM   28  C   UNK N   1      29.221  19.598  -7.889  0.00  0.00     0.158 C 
HETATM   29  O   UNK N   1      29.313  18.383  -7.813  0.00  0.00    -0.649 OA
BRANCH  28  30
HETATM   30  O   UNK N   1      28.030  20.167  -8.148  0.00  0.00    -0.775 OA
HETATM   31  H   UNK N   1      27.126  20.069  -7.924  0.00  0.00     0.167 HD
ENDBRANCH  28  30
ENDBRANCH  27  28
ENDBRANCH  14  27
TORSDOF 4
ENDMDL
MODEL 9
REMARK VINA RESULT:      -7.5      6.682     10.298
REMARK  4 active torsions:
REMARK  status: ('A' for Active; 'I' for Inactive)
REMARK    1  A    between atoms: C_10  and  C_11 
REMARK       I    between atoms: C_11  and  N_13 
REMARK    2  A    between atoms: N_24  and  C_25 
REMARK    3  A    between atoms: C_25  and  C_26 
REMARK    4  A    between atoms: C_26  and  O_28 
ROOT
HETATM    1  C   UNK N   1      34.119  16.973   6.937  0.00  0.00     0.255 C 
HETATM    2  O   UNK N   1      34.596  18.096   6.820  0.00  0.00    -0.267 OA
HETATM    3  N   UNK N   1      33.953  16.445   8.192  0.00  0.00    -0.343 N 
HETATM    4  C   UNK N   1      34.398  17.156   9.387  0.00  0.00     0.132 C 
HETATM    5  C   UNK N   1      35.271  16.260  10.310  0.00  0.00     0.078 C 
HETATM    6  C   UNK N   1      34.983  14.785  10.137  0.00  0.00     0.023 A 
HETATM    7  C   UNK N   1      34.060  14.324   9.225  0.00  0.00    -0.005 A 
HETATM    8  C   UNK N   1      34.086  12.962   9.276  0.00  0.00     0.004 A 
HETATM    9  C   UNK N   1      33.377  12.014   8.546  0.00  0.00     0.056 A 
HETATM   10  C   UNK N   1      33.632  10.660   8.815  0.00  0.00     0.117 A 
HETATM   11  C   UNK N   1      34.573  10.294   9.806  0.00  0.00     0.044 A 
HETATM   12  C   UNK N   1      35.271  11.281  10.532  0.00  0.00     0.033 A 
HETATM   13  C   UNK N   1      35.005  12.618  10.233  0.00  0.00     0.046 A 
HETATM   14  N   UNK N   1      35.560  13.725  10.780  0.00  0.00    -0.339 N 
HETATM   15  F   UNK N   1      32.976   9.703   8.116  0.00  0.00    -0.206 F 
HETATM   16  C   UNK N   1      33.235  15.206   8.384  0.00  0.00     0.167 C 
ENDROOT
BRANCH   1  17
HETATM   17  C   UNK N   1      33.691  16.226   5.695  0.00  0.00     0.043 A 
HETATM   18  C   UNK N   1      34.569  15.287   5.119  0.00  0.00     0.018 A 
HETATM   19  C   UNK N   1      34.224  14.563   3.981  0.00  0.00     0.002 A 
HETATM   20  C   UNK N   1      32.979  14.745   3.392  0.00  0.00     0.012 A 
HETATM   21  C   UNK N   1      32.078  15.661   3.932  0.00  0.00    -0.025 A 
HETATM   22  C   UNK N   1      32.427  16.422   5.080  0.00  0.00    -0.010 A 
HETATM   23  C   UNK N   1      30.820  15.809   3.343  0.00  0.00     0.012 A 
HETATM   24  C   UNK N   1      31.483  17.318   5.607  0.00  0.00     0.013 A 
HETATM   25  C   UNK N   1      30.227  17.460   5.011  0.00  0.00     0.001 A 
HETATM   26  C   UNK N   1      29.896  16.705   3.883  0.00  0.00     0.001 A 
ENDBRANCH   1  17
BRANCH  14  27
HETATM   27  C   UNK N   1      36.564  13.682  11.854  0.00  0.00     0.238 C 
BRANCH  27  28
HETATM   28  C   UNK N   1      36.053  14.053  13.208  0.00  0.00     0.158 C 
HETATM   29  O   UNK N   1      34.961  13.652  13.575  0.00  0.00    -0.649 OA
BRANCH  28  30
HETATM   30  O   UNK N   1      36.817  14.780  14.043  0.00  0.00    -0.775 OA
HETATM   31  H   UNK N   1      37.472  15.450  14.014  0.00  0.00     0.167 HD
ENDBRANCH  28  30
ENDBRANCH  27  28
ENDBRANCH  14  27
TORSDOF 4
ENDMDL
