MODEL 1
REMARK VINA RESULT:      -6.4      0.000      0.000
REMARK  9 active torsions:
REMARK  status: ('A' for Active; 'I' for Inactive)
REMARK    1  A    between atoms: O_2  and  C_3 
REMARK    2  A    between atoms: C_6  and  C_10 
REMARK    3  A    between atoms: C_8  and  O_9 
REMARK    4  A    between atoms: C_10  and  C_11 
REMARK    5  A    between atoms: C_11  and  C_12 
REMARK    6  A    between atoms: C_11  and  O_24 
REMARK    7  A    between atoms: C_14  and  O_22 
REMARK    8  A    between atoms: C_15  and  O_20 
REMARK    9  A    between atoms: C_16  and  O_18 
ROOT
HETATM    1  C   UNK N   1      28.797  17.769   8.499  0.00  0.00     0.155 C 
ENDROOT
BRANCH   1   2
HETATM    2  C   UNK N   1      30.075  18.431   8.996  0.00  0.00     0.075 C 
BRANCH   2   3
HETATM    3  C   UNK N   1      31.286  17.711   8.532  0.00  0.00    -0.053 A 
HETATM    4  C   UNK N   1      31.282  16.322   8.414  0.00  0.00     0.010 A 
HETATM    5  C   UNK N   1      32.440  15.655   8.011  0.00  0.00     0.040 A 
HETATM    6  C   UNK N   1      33.613  16.363   7.721  0.00  0.00     0.101 A 
HETATM    7  C   UNK N   1      33.608  17.779   7.845  0.00  0.00     0.099 A 
HETATM    8  C   UNK N   1      32.446  18.434   8.254  0.00  0.00     0.046 A 
BRANCH   6   9
HETATM    9  O   UNK N   1      34.701  15.649   7.333  0.00  0.00    -0.353 OA
HETATM   10  C   UNK N   1      34.985  15.269   6.042  0.00  0.00     0.210 C 
ENDBRANCH   6   9
BRANCH   7  11
HETATM   11  O   UNK N   1      34.702  18.513   7.579  0.00  0.00    -0.358 OA
HETATM   12  H   UNK N   1      34.700  19.273   7.031  0.00  0.00     0.217 HD
ENDBRANCH   7  11
ENDBRANCH   2   3
ENDBRANCH   1   2
BRANCH   1  13
HETATM   13  C   UNK N   1      28.465  18.368   7.166  0.00  0.00    -0.024 A 
HETATM   14  C   UNK N   1      28.626  17.656   5.980  0.00  0.00     0.049 A 
HETATM   15  C   UNK N   1      28.226  18.204   4.748  0.00  0.00     0.104 A 
HETATM   16  C   UNK N   1      27.644  19.505   4.717  0.00  0.00     0.135 A 
HETATM   17  C   UNK N   1      27.508  20.232   5.933  0.00  0.00     0.104 A 
HETATM   18  C   UNK N   1      27.922  19.650   7.128  0.00  0.00     0.049 A 
BRANCH  15  19
HETATM   19  O   UNK N   1      28.390  17.492   3.606  0.00  0.00    -0.353 OA
HETATM   20  C   UNK N   1      29.373  16.543   3.432  0.00  0.00     0.210 C 
ENDBRANCH  15  19
BRANCH  16  21
HETATM   21  O   UNK N   1      27.207  20.076   3.559  0.00  0.00    -0.351 OA
HETATM   22  C   UNK N   1      25.911  20.087   3.099  0.00  0.00     0.210 C 
ENDBRANCH  16  21
BRANCH  17  23
HETATM   23  O   UNK N   1      26.969  21.479   6.014  0.00  0.00    -0.353 OA
HETATM   24  C   UNK N   1      26.177  21.953   7.033  0.00  0.00     0.210 C 
ENDBRANCH  17  23
ENDBRANCH   1  13
BRANCH   1  25
HETATM   25  O   UNK N   1      27.774  17.969   9.432  0.00  0.00    -0.391 OA
HETATM   26  H   UNK N   1      26.863  18.113   9.131  0.00  0.00     0.210 HD
ENDBRANCH   1  25
TORSDOF 9
ENDMDL
MODEL 2
REMARK VINA RESULT:      -6.3      0.330      2.695
REMARK  9 active torsions:
REMARK  status: ('A' for Active; 'I' for Inactive)
REMARK    1  A    between atoms: O_2  and  C_3 
REMARK    2  A    between atoms: C_6  and  C_10 
REMARK    3  A    between atoms: C_8  and  O_9 
REMARK    4  A    between atoms: C_10  and  C_11 
REMARK    5  A    between atoms: C_11  and  C_12 
REMARK    6  A    between atoms: C_11  and  O_24 
REMARK    7  A    between atoms: C_14  and  O_22 
REMARK    8  A    between atoms: C_15  and  O_20 
REMARK    9  A    between atoms: C_16  and  O_18 
ROOT
HETATM    1  C   UNK N   1      28.906  17.412   8.584  0.00  0.00     0.155 C 
ENDROOT
BRANCH   1   2
HETATM    2  C   UNK N   1      30.174  18.132   9.020  0.00  0.00     0.075 C 
BRANCH   2   3
HETATM    3  C   UNK N   1      31.391  17.492   8.465  0.00  0.00    -0.053 A 
HETATM    4  C   UNK N   1      31.428  16.116   8.241  0.00  0.00     0.010 A 
HETATM    5  C   UNK N   1      32.592  15.522   7.751  0.00  0.00     0.040 A 
HETATM    6  C   UNK N   1      33.731  16.290   7.479  0.00  0.00     0.101 A 
HETATM    7  C   UNK N   1      33.685  17.691   7.712  0.00  0.00     0.099 A 
HETATM    8  C   UNK N   1      32.517  18.273   8.207  0.00  0.00     0.046 A 
BRANCH   6   9
HETATM    9  O   UNK N   1      34.828  15.645   7.004  0.00  0.00    -0.353 OA
HETATM   10  C   UNK N   1      35.029  15.277   5.694  0.00  0.00     0.210 C 
ENDBRANCH   6   9
BRANCH   7  11
HETATM   11  O   UNK N   1      34.746  18.481   7.470  0.00  0.00    -0.358 OA
HETATM   12  H   UNK N   1      35.493  18.213   6.971  0.00  0.00     0.217 HD
ENDBRANCH   7  11
ENDBRANCH   2   3
ENDBRANCH   1   2
BRANCH   1  13
HETATM   13  C   UNK N   1      28.414  18.080   7.335  0.00  0.00    -0.024 A 
HETATM   14  C   UNK N   1      28.039  19.422   7.319  0.00  0.00     0.049 A 
HETATM   15  C   UNK N   1      27.664  20.053   6.120  0.00  0.00     0.104 A 
HETATM   16  C   UNK N   1      27.674  19.308   4.904  0.00  0.00     0.135 A 
HETATM   17  C   UNK N   1      28.035  17.932   4.938  0.00  0.00     0.104 A 
HETATM   18  C   UNK N   1      28.395  17.348   6.151  0.00  0.00     0.049 A 
BRANCH  15  19
HETATM   19  O   UNK N   1      27.305  21.360   6.127  0.00  0.00    -0.353 OA
HETATM   20  C   UNK N   1      26.245  21.857   6.852  0.00  0.00     0.210 C 
ENDBRANCH  15  19
BRANCH  16  21
HETATM   21  O   UNK N   1      27.353  19.872   3.706  0.00  0.00    -0.351 OA
HETATM   22  C   UNK N   1      26.082  20.075   3.219  0.00  0.00     0.210 C 
ENDBRANCH  16  21
BRANCH  17  23
HETATM   23  O   UNK N   1      28.075  17.132   3.839  0.00  0.00    -0.353 OA
HETATM   24  C   UNK N   1      29.210  16.648   3.232  0.00  0.00     0.210 C 
ENDBRANCH  17  23
ENDBRANCH   1  13
BRANCH   1  25
HETATM   25  O   UNK N   1      27.960  17.467   9.613  0.00  0.00    -0.391 OA
HETATM   26  H   UNK N   1      28.159  17.949  10.431  0.00  0.00     0.210 HD
ENDBRANCH   1  25
TORSDOF 9
ENDMDL
MODEL 3
REMARK VINA RESULT:      -6.1      3.284      5.157
REMARK  9 active torsions:
REMARK  status: ('A' for Active; 'I' for Inactive)
REMARK    1  A    between atoms: O_2  and  C_3 
REMARK    2  A    between atoms: C_6  and  C_10 
REMARK    3  A    between atoms: C_8  and  O_9 
REMARK    4  A    between atoms: C_10  and  C_11 
REMARK    5  A    between atoms: C_11  and  C_12 
REMARK    6  A    between atoms: C_11  and  O_24 
REMARK    7  A    between atoms: C_14  and  O_22 
REMARK    8  A    between atoms: C_15  and  O_20 
REMARK    9  A    between atoms: C_16  and  O_18 
ROOT
HETATM    1  C   UNK N   1      34.183  17.851   8.371  0.00  0.00     0.155 C 
ENDROOT
BRANCH   1   2
HETATM    2  C   UNK N   1      34.960  16.546   8.263  0.00  0.00     0.075 C 
BRANCH   2   3
HETATM    3  C   UNK N   1      34.991  15.814   9.551  0.00  0.00    -0.053 A 
HETATM    4  C   UNK N   1      35.486  16.426  10.702  0.00  0.00     0.010 A 
HETATM    5  C   UNK N   1      35.542  15.713  11.900  0.00  0.00     0.040 A 
HETATM    6  C   UNK N   1      35.108  14.383  11.966  0.00  0.00     0.101 A 
HETATM    7  C   UNK N   1      34.606  13.766  10.788  0.00  0.00     0.099 A 
HETATM    8  C   UNK N   1      34.559  14.488   9.594  0.00  0.00     0.046 A 
BRANCH   6   9
HETATM    9  O   UNK N   1      35.191  13.751  13.165  0.00  0.00    -0.353 OA
HETATM   10  C   UNK N   1      36.170  13.959  14.109  0.00  0.00     0.210 C 
ENDBRANCH   6   9
BRANCH   7  11
HETATM   11  O   UNK N   1      34.173  12.494  10.789  0.00  0.00    -0.358 OA
HETATM   12  H   UNK N   1      34.169  11.943  10.031  0.00  0.00     0.217 HD
ENDBRANCH   7  11
ENDBRANCH   2   3
ENDBRANCH   1   2
BRANCH   1  13
HETATM   13  C   UNK N   1      32.888  17.670   7.639  0.00  0.00    -0.024 A 
HETATM   14  C   UNK N   1      32.845  17.475   6.260  0.00  0.00     0.049 A 
HETATM   15  C   UNK N   1      31.628  17.219   5.604  0.00  0.00     0.104 A 
HETATM   16  C   UNK N   1      30.424  17.152   6.364  0.00  0.00     0.135 A 
HETATM   17  C   UNK N   1      30.478  17.377   7.769  0.00  0.00     0.104 A 
HETATM   18  C   UNK N   1      31.706  17.632   8.374  0.00  0.00     0.049 A 
BRANCH  15  19
HETATM   19  O   UNK N   1      31.609  17.031   4.262  0.00  0.00    -0.353 OA
HETATM   20  C   UNK N   1      32.734  17.078   3.468  0.00  0.00     0.210 C 
ENDBRANCH  15  19
BRANCH  16  21
HETATM   21  O   UNK N   1      29.219  16.875   5.791  0.00  0.00    -0.351 OA
HETATM   22  C   UNK N   1      28.689  15.622   5.581  0.00  0.00     0.210 C 
ENDBRANCH  16  21
BRANCH  17  23
HETATM   23  O   UNK N   1      29.390  17.338   8.584  0.00  0.00    -0.353 OA
HETATM   24  C   UNK N   1      28.692  18.426   9.053  0.00  0.00     0.210 C 
ENDBRANCH  17  23
ENDBRANCH   1  13
BRANCH   1  25
HETATM   25  O   UNK N   1      34.945  18.894   7.834  0.00  0.00    -0.391 OA
HETATM   26  H   UNK N   1      34.893  19.097   6.887  0.00  0.00     0.210 HD
ENDBRANCH   1  25
TORSDOF 9
ENDMDL
MODEL 4
REMARK VINA RESULT:      -6.1      2.724      4.346
REMARK  9 active torsions:
REMARK  status: ('A' for Active; 'I' for Inactive)
REMARK    1  A    between atoms: O_2  and  C_3 
REMARK    2  A    between atoms: C_6  and  C_10 
REMARK    3  A    between atoms: C_8  and  O_9 
REMARK    4  A    between atoms: C_10  and  C_11 
REMARK    5  A    between atoms: C_11  and  C_12 
REMARK    6  A    between atoms: C_11  and  O_24 
REMARK    7  A    between atoms: C_14  and  O_22 
REMARK    8  A    between atoms: C_15  and  O_20 
REMARK    9  A    between atoms: C_16  and  O_18 
ROOT
HETATM    1  C   UNK N   1      31.695  17.505   5.058  0.00  0.00     0.155 C 
ENDROOT
BRANCH   1   2
HETATM    2  C   UNK N   1      32.639  16.364   5.413  0.00  0.00     0.075 C 
BRANCH   2   3
HETATM    3  C   UNK N   1      33.302  16.583   6.721  0.00  0.00    -0.053 A 
HETATM    4  C   UNK N   1      33.278  15.592   7.702  0.00  0.00     0.010 A 
HETATM    5  C   UNK N   1      33.876  15.824   8.941  0.00  0.00     0.040 A 
HETATM    6  C   UNK N   1      34.504  17.045   9.217  0.00  0.00     0.101 A 
HETATM    7  C   UNK N   1      34.523  18.050   8.213  0.00  0.00     0.099 A 
HETATM    8  C   UNK N   1      33.917  17.807   6.979  0.00  0.00     0.046 A 
BRANCH   6   9
HETATM    9  O   UNK N   1      35.066  17.201  10.444  0.00  0.00    -0.353 OA
HETATM   10  C   UNK N   1      35.502  16.180  11.256  0.00  0.00     0.210 C 
ENDBRANCH   6   9
BRANCH   7  11
HETATM   11  O   UNK N   1      35.112  19.241   8.419  0.00  0.00    -0.358 OA
HETATM   12  H   UNK N   1      34.647  20.017   8.662  0.00  0.00     0.217 HD
ENDBRANCH   7  11
ENDBRANCH   2   3
ENDBRANCH   1   2
BRANCH   1  13
HETATM   13  C   UNK N   1      30.318  17.106   5.497  0.00  0.00    -0.024 A 
HETATM   14  C   UNK N   1      29.768  17.561   6.694  0.00  0.00     0.049 A 
HETATM   15  C   UNK N   1      28.444  17.247   7.045  0.00  0.00     0.104 A 
HETATM   16  C   UNK N   1      27.653  16.457   6.160  0.00  0.00     0.135 A 
HETATM   17  C   UNK N   1      28.234  15.979   4.952  0.00  0.00     0.104 A 
HETATM   18  C   UNK N   1      29.552  16.311   4.648  0.00  0.00     0.049 A 
BRANCH  15  19
HETATM   19  O   UNK N   1      27.928  17.701   8.214  0.00  0.00    -0.353 OA
HETATM   20  C   UNK N   1      28.465  17.412   9.449  0.00  0.00     0.210 C 
ENDBRANCH  15  19
BRANCH  16  21
HETATM   21  O   UNK N   1      26.353  16.148   6.430  0.00  0.00    -0.351 OA
HETATM   22  C   UNK N   1      25.910  15.062   7.150  0.00  0.00     0.210 C 
ENDBRANCH  16  21
BRANCH  17  23
HETATM   23  O   UNK N   1      27.570  15.218   4.041  0.00  0.00    -0.353 OA
HETATM   24  C   UNK N   1      27.018  15.663   2.863  0.00  0.00     0.210 C 
ENDBRANCH  17  23
ENDBRANCH   1  13
BRANCH   1  25
HETATM   25  O   UNK N   1      31.755  17.750   3.682  0.00  0.00    -0.391 OA
HETATM   26  H   UNK N   1      32.289  18.485   3.342  0.00  0.00     0.210 HD
ENDBRANCH   1  25
TORSDOF 9
ENDMDL
MODEL 5
REMARK VINA RESULT:      -6.0      1.474      6.844
REMARK  9 active torsions:
REMARK  status: ('A' for Active; 'I' for Inactive)
REMARK    1  A    between atoms: O_2  and  C_3 
REMARK    2  A    between atoms: C_6  and  C_10 
REMARK    3  A    between atoms: C_8  and  O_9 
REMARK    4  A    between atoms: C_10  and  C_11 
REMARK    5  A    between atoms: C_11  and  C_12 
REMARK    6  A    between atoms: C_11  and  O_24 
REMARK    7  A    between atoms: C_14  and  O_22 
REMARK    8  A    between atoms: C_15  and  O_20 
REMARK    9  A    between atoms: C_16  and  O_18 
ROOT
HETATM    1  C   UNK N   1      29.841  18.218   8.451  0.00  0.00     0.155 C 
ENDROOT
BRANCH   1   2
HETATM    2  C   UNK N   1      28.711  17.493   7.734  0.00  0.00     0.075 C 
BRANCH   2   3
HETATM    3  C   UNK N   1      28.154  18.301   6.623  0.00  0.00    -0.053 A 
HETATM    4  C   UNK N   1      27.936  17.728   5.370  0.00  0.00     0.010 A 
HETATM    5  C   UNK N   1      27.444  18.509   4.324  0.00  0.00     0.040 A 
HETATM    6  C   UNK N   1      27.164  19.868   4.512  0.00  0.00     0.101 A 
HETATM    7  C   UNK N   1      27.390  20.445   5.791  0.00  0.00     0.099 A 
HETATM    8  C   UNK N   1      27.887  19.655   6.828  0.00  0.00     0.046 A 
BRANCH   6   9
HETATM    9  O   UNK N   1      26.687  20.566   3.449  0.00  0.00    -0.353 OA
HETATM   10  C   UNK N   1      25.439  20.414   2.891  0.00  0.00     0.210 C 
ENDBRANCH   6   9
BRANCH   7  11
HETATM   11  O   UNK N   1      27.139  21.743   6.033  0.00  0.00    -0.358 OA
HETATM   12  H   UNK N   1      27.725  22.439   5.807  0.00  0.00     0.217 HD
ENDBRANCH   7  11
ENDBRANCH   2   3
ENDBRANCH   1   2
BRANCH   1  13
HETATM   13  C   UNK N   1      31.134  17.682   7.917  0.00  0.00    -0.024 A 
HETATM   14  C   UNK N   1      31.221  17.097   6.655  0.00  0.00     0.049 A 
HETATM   15  C   UNK N   1      32.459  16.679   6.137  0.00  0.00     0.104 A 
HETATM   16  C   UNK N   1      33.642  16.863   6.912  0.00  0.00     0.135 A 
HETATM   17  C   UNK N   1      33.536  17.439   8.210  0.00  0.00     0.104 A 
HETATM   18  C   UNK N   1      32.287  17.833   8.684  0.00  0.00     0.049 A 
BRANCH  15  19
HETATM   19  O   UNK N   1      32.522  16.114   4.906  0.00  0.00    -0.353 OA
HETATM   20  C   UNK N   1      32.621  16.838   3.738  0.00  0.00     0.210 C 
ENDBRANCH  15  19
BRANCH  16  21
HETATM   21  O   UNK N   1      34.874  16.509   6.451  0.00  0.00    -0.351 OA
HETATM   22  C   UNK N   1      35.409  15.241   6.455  0.00  0.00     0.210 C 
ENDBRANCH  16  21
BRANCH  17  23
HETATM   23  O   UNK N   1      34.598  17.656   9.031  0.00  0.00    -0.353 OA
HETATM   24  C   UNK N   1      35.056  16.800  10.004  0.00  0.00     0.210 C 
ENDBRANCH  17  23
ENDBRANCH   1  13
BRANCH   1  25
HETATM   25  O   UNK N   1      29.723  18.019   9.831  0.00  0.00    -0.391 OA
HETATM   26  H   UNK N   1      30.247  17.330  10.270  0.00  0.00     0.210 HD
ENDBRANCH   1  25
TORSDOF 9
ENDMDL
MODEL 6
REMARK VINA RESULT:      -6.0      3.706      6.541
REMARK  9 active torsions:
REMARK  status: ('A' for Active; 'I' for Inactive)
REMARK    1  A    between atoms: O_2  and  C_3 
REMARK    2  A    between atoms: C_6  and  C_10 
REMARK    3  A    between atoms: C_8  and  O_9 
REMARK    4  A    between atoms: C_10  and  C_11 
REMARK    5  A    between atoms: C_11  and  C_12 
REMARK    6  A    between atoms: C_11  and  O_24 
REMARK    7  A    between atoms: C_14  and  O_22 
REMARK    8  A    between atoms: C_15  and  O_20 
REMARK    9  A    between atoms: C_16  and  O_18 
ROOT
HETATM    1  C   UNK N   1      25.703  20.358   3.465  0.00  0.00     0.155 C 
ENDROOT
BRANCH   1   2
HETATM    2  C   UNK N   1      26.553  19.096   3.520  0.00  0.00     0.075 C 
BRANCH   2   3
HETATM    3  C   UNK N   1      27.215  18.933   4.836  0.00  0.00    -0.053 A 
HETATM    4  C   UNK N   1      27.119  19.931   5.806  0.00  0.00     0.010 A 
HETATM    5  C   UNK N   1      27.777  19.780   7.028  0.00  0.00     0.040 A 
HETATM    6  C   UNK N   1      28.537  18.636   7.297  0.00  0.00     0.101 A 
HETATM    7  C   UNK N   1      28.632  17.625   6.303  0.00  0.00     0.099 A 
HETATM    8  C   UNK N   1      27.973  17.789   5.084  0.00  0.00     0.046 A 
BRANCH   6   9
HETATM    9  O   UNK N   1      29.149  18.556   8.507  0.00  0.00    -0.353 OA
HETATM   10  C   UNK N   1      28.660  17.887   9.604  0.00  0.00     0.210 C 
ENDBRANCH   6   9
BRANCH   7  11
HETATM   11  O   UNK N   1      29.346  16.504   6.504  0.00  0.00    -0.358 OA
HETATM   12  H   UNK N   1      30.168  16.482   6.954  0.00  0.00     0.217 HD
ENDBRANCH   7  11
ENDBRANCH   2   3
ENDBRANCH   1   2
BRANCH   1  13
HETATM   13  C   UNK N   1      24.265  19.935   3.453  0.00  0.00    -0.024 A 
HETATM   14  C   UNK N   1      23.803  18.882   4.240  0.00  0.00     0.049 A 
HETATM   15  C   UNK N   1      22.436  18.558   4.281  0.00  0.00     0.104 A 
HETATM   16  C   UNK N   1      21.511  19.323   3.511  0.00  0.00     0.135 A 
HETATM   17  C   UNK N   1      21.999  20.380   2.693  0.00  0.00     0.104 A 
HETATM   18  C   UNK N   1      23.363  20.661   2.680  0.00  0.00     0.049 A 
BRANCH  15  19
HETATM   19  O   UNK N   1      22.007  17.531   5.055  0.00  0.00    -0.353 OA
HETATM   20  C   UNK N   1      21.543  17.686   6.343  0.00  0.00     0.210 C 
ENDBRANCH  15  19
BRANCH  16  21
HETATM   21  O   UNK N   1      20.170  19.077   3.536  0.00  0.00    -0.351 OA
HETATM   22  C   UNK N   1      19.497  18.172   2.749  0.00  0.00     0.210 C 
ENDBRANCH  16  21
BRANCH  17  23
HETATM   23  O   UNK N   1      21.204  21.167   1.919  0.00  0.00    -0.353 OA
HETATM   24  C   UNK N   1      20.806  20.897   0.631  0.00  0.00     0.210 C 
ENDBRANCH  17  23
ENDBRANCH   1  13
BRANCH   1  25
HETATM   25  O   UNK N   1      26.039  21.098   2.327  0.00  0.00    -0.391 OA
HETATM   26  H   UNK N   1      25.355  21.336   1.681  0.00  0.00     0.210 HD
ENDBRANCH   1  25
TORSDOF 9
ENDMDL
MODEL 7
REMARK VINA RESULT:      -5.9      3.196      5.484
REMARK  9 active torsions:
REMARK  status: ('A' for Active; 'I' for Inactive)
REMARK    1  A    between atoms: O_2  and  C_3 
REMARK    2  A    between atoms: C_6  and  C_10 
REMARK    3  A    between atoms: C_8  and  O_9 
REMARK    4  A    between atoms: C_10  and  C_11 
REMARK    5  A    between atoms: C_11  and  C_12 
REMARK    6  A    between atoms: C_11  and  O_24 
REMARK    7  A    between atoms: C_14  and  O_22 
REMARK    8  A    between atoms: C_15  and  O_20 
REMARK    9  A    between atoms: C_16  and  O_18 
ROOT
HETATM    1  C   UNK N   1      33.998  17.658   8.229  0.00  0.00     0.155 C 
ENDROOT
BRANCH   1   2
HETATM    2  C   UNK N   1      34.767  16.346   8.141  0.00  0.00     0.075 C 
BRANCH   2   3
HETATM    3  C   UNK N   1      34.851  15.666   9.456  0.00  0.00    -0.053 A 
HETATM    4  C   UNK N   1      35.335  16.344  10.574  0.00  0.00     0.010 A 
HETATM    5  C   UNK N   1      35.442  15.680  11.798  0.00  0.00     0.040 A 
HETATM    6  C   UNK N   1      35.069  14.336  11.920  0.00  0.00     0.101 A 
HETATM    7  C   UNK N   1      34.578  13.653  10.776  0.00  0.00     0.099 A 
HETATM    8  C   UNK N   1      34.480  14.325   9.557  0.00  0.00     0.046 A 
BRANCH   6   9
HETATM    9  O   UNK N   1      35.199  13.755  13.141  0.00  0.00    -0.353 OA
HETATM   10  C   UNK N   1      36.188  14.035  14.055  0.00  0.00     0.210 C 
ENDBRANCH   6   9
BRANCH   7  11
HETATM   11  O   UNK N   1      34.204  12.363  10.832  0.00  0.00    -0.358 OA
HETATM   12  H   UNK N   1      34.712  11.656  10.485  0.00  0.00     0.217 HD
ENDBRANCH   7  11
ENDBRANCH   2   3
ENDBRANCH   1   2
BRANCH   1  13
HETATM   13  C   UNK N   1      32.699  17.470   7.507  0.00  0.00    -0.024 A 
HETATM   14  C   UNK N   1      31.476  17.507   8.173  0.00  0.00     0.049 A 
HETATM   15  C   UNK N   1      30.264  17.417   7.465  0.00  0.00     0.104 A 
HETATM   16  C   UNK N   1      30.291  17.291   6.045  0.00  0.00     0.135 A 
HETATM   17  C   UNK N   1      31.547  17.230   5.378  0.00  0.00     0.104 A 
HETATM   18  C   UNK N   1      32.721  17.318   6.122  0.00  0.00     0.049 A 
BRANCH  15  19
HETATM   19  O   UNK N   1      29.085  17.457   8.133  0.00  0.00    -0.353 OA
HETATM   20  C   UNK N   1      28.897  18.149   9.309  0.00  0.00     0.210 C 
ENDBRANCH  15  19
BRANCH  16  21
HETATM   21  O   UNK N   1      29.151  17.232   5.301  0.00  0.00    -0.351 OA
HETATM   22  C   UNK N   1      28.474  18.305   4.768  0.00  0.00     0.210 C 
ENDBRANCH  16  21
BRANCH  17  23
HETATM   23  O   UNK N   1      31.685  17.108   4.031  0.00  0.00    -0.353 OA
HETATM   24  C   UNK N   1      31.894  15.937   3.342  0.00  0.00     0.210 C 
ENDBRANCH  17  23
ENDBRANCH   1  13
BRANCH   1  25
HETATM   25  O   UNK N   1      34.763  18.686   7.670  0.00  0.00    -0.391 OA
HETATM   26  H   UNK N   1      34.980  19.473   8.196  0.00  0.00     0.210 HD
ENDBRANCH   1  25
TORSDOF 9
ENDMDL
MODEL 8
REMARK VINA RESULT:      -5.9      8.550     12.045
REMARK  9 active torsions:
REMARK  status: ('A' for Active; 'I' for Inactive)
REMARK    1  A    between atoms: O_2  and  C_3 
REMARK    2  A    between atoms: C_6  and  C_10 
REMARK    3  A    between atoms: C_8  and  O_9 
REMARK    4  A    between atoms: C_10  and  C_11 
REMARK    5  A    between atoms: C_11  and  C_12 
REMARK    6  A    between atoms: C_11  and  O_24 
REMARK    7  A    between atoms: C_14  and  O_22 
REMARK    8  A    between atoms: C_15  and  O_20 
REMARK    9  A    between atoms: C_16  and  O_18 
ROOT
HETATM    1  C   UNK N   1      36.316  13.933  14.579  0.00  0.00     0.155 C 
ENDROOT
BRANCH   1   2
HETATM    2  C   UNK N   1      35.234  12.930  14.959  0.00  0.00     0.075 C 
BRANCH   2   3
HETATM    3  C   UNK N   1      35.373  12.473  16.362  0.00  0.00    -0.053 A 
HETATM    4  C   UNK N   1      35.741  11.158  16.645  0.00  0.00     0.010 A 
HETATM    5  C   UNK N   1      35.834  10.731  17.971  0.00  0.00     0.040 A 
HETATM    6  C   UNK N   1      35.561  11.608  19.028  0.00  0.00     0.101 A 
HETATM    7  C   UNK N   1      35.185  12.945  18.731  0.00  0.00     0.099 A 
HETATM    8  C   UNK N   1      35.091  13.359  17.401  0.00  0.00     0.046 A 
BRANCH   6   9
HETATM    9  O   UNK N   1      35.672  11.124  20.292  0.00  0.00    -0.353 OA
HETATM   10  C   UNK N   1      36.781  10.499  20.811  0.00  0.00     0.210 C 
ENDBRANCH   6   9
BRANCH   7  11
HETATM   11  O   UNK N   1      34.912  13.833  19.703  0.00  0.00    -0.358 OA
HETATM   12  H   UNK N   1      35.211  14.721  19.697  0.00  0.00     0.217 HD
ENDBRANCH   7  11
ENDBRANCH   2   3
ENDBRANCH   1   2
BRANCH   1  13
HETATM   13  C   UNK N   1      36.332  14.037  13.084  0.00  0.00    -0.024 A 
HETATM   14  C   UNK N   1      36.139  15.252  12.431  0.00  0.00     0.049 A 
HETATM   15  C   UNK N   1      36.246  15.344  11.032  0.00  0.00     0.104 A 
HETATM   16  C   UNK N   1      36.561  14.178  10.275  0.00  0.00     0.135 A 
HETATM   17  C   UNK N   1      36.731  12.938  10.952  0.00  0.00     0.104 A 
HETATM   18  C   UNK N   1      36.611  12.894  12.339  0.00  0.00     0.049 A 
BRANCH  15  19
HETATM   19  O   UNK N   1      36.056  16.537  10.416  0.00  0.00    -0.353 OA
HETATM   20  C   UNK N   1      34.849  16.943   9.892  0.00  0.00     0.210 C 
ENDBRANCH  15  19
BRANCH  16  21
HETATM   21  O   UNK N   1      36.709  14.211   8.920  0.00  0.00    -0.351 OA
HETATM   22  C   UNK N   1      35.733  13.937   7.990  0.00  0.00     0.210 C 
ENDBRANCH  16  21
BRANCH  17  23
HETATM   23  O   UNK N   1      37.030  11.768  10.327  0.00  0.00    -0.353 OA
HETATM   24  C   UNK N   1      38.145  10.994  10.549  0.00  0.00     0.210 C 
ENDBRANCH  17  23
ENDBRANCH   1  13
BRANCH   1  25
HETATM   25  O   UNK N   1      37.547  13.505  15.087  0.00  0.00    -0.391 OA
HETATM   26  H   UNK N   1      38.185  14.153  15.426  0.00  0.00     0.210 HD
ENDBRANCH   1  25
TORSDOF 9
ENDMDL
MODEL 9
REMARK VINA RESULT:      -5.8      5.129      7.622
REMARK  9 active torsions:
REMARK  status: ('A' for Active; 'I' for Inactive)
REMARK    1  A    between atoms: O_2  and  C_3 
REMARK    2  A    between atoms: C_6  and  C_10 
REMARK    3  A    between atoms: C_8  and  O_9 
REMARK    4  A    between atoms: C_10  and  C_11 
REMARK    5  A    between atoms: C_11  and  C_12 
REMARK    6  A    between atoms: C_11  and  O_24 
REMARK    7  A    between atoms: C_14  and  O_22 
REMARK    8  A    between atoms: C_15  and  O_20 
REMARK    9  A    between atoms: C_16  and  O_18 
ROOT
HETATM    1  C   UNK N   1      34.168  14.314  10.310  0.00  0.00     0.155 C 
ENDROOT
BRANCH   1   2
HETATM    2  C   UNK N   1      35.602  14.107  10.776  0.00  0.00     0.075 C 
BRANCH   2   3
HETATM    3  C   UNK N   1      35.666  13.677  12.194  0.00  0.00    -0.053 A 
HETATM    4  C   UNK N   1      34.947  12.565  12.630  0.00  0.00     0.010 A 
HETATM    5  C   UNK N   1      34.988  12.192  13.974  0.00  0.00     0.040 A 
HETATM    6  C   UNK N   1      35.744  12.923  14.899  0.00  0.00     0.101 A 
HETATM    7  C   UNK N   1      36.473  14.056  14.447  0.00  0.00     0.099 A 
HETATM    8  C   UNK N   1      36.420  14.422  13.101  0.00  0.00     0.046 A 
BRANCH   6   9
HETATM    9  O   UNK N   1      35.739  12.503  16.190  0.00  0.00    -0.353 OA
HETATM   10  C   UNK N   1      35.006  13.068  17.208  0.00  0.00     0.210 C 
ENDBRANCH   6   9
BRANCH   7  11
HETATM   11  O   UNK N   1      37.218  14.796  15.286  0.00  0.00    -0.358 OA
HETATM   12  H   UNK N   1      38.125  14.637  15.456  0.00  0.00     0.217 HD
ENDBRANCH   7  11
ENDBRANCH   2   3
ENDBRANCH   1   2
BRANCH   1  13
HETATM   13  C   UNK N   1      34.206  15.219   9.116  0.00  0.00    -0.024 A 
HETATM   14  C   UNK N   1      35.012  14.945   8.013  0.00  0.00     0.049 A 
HETATM   15  C   UNK N   1      34.968  15.759   6.867  0.00  0.00     0.104 A 
HETATM   16  C   UNK N   1      34.082  16.876   6.835  0.00  0.00     0.135 A 
HETATM   17  C   UNK N   1      33.283  17.160   7.978  0.00  0.00     0.104 A 
HETATM   18  C   UNK N   1      33.364  16.328   9.092  0.00  0.00     0.049 A 
BRANCH  15  19
HETATM   19  O   UNK N   1      35.758  15.474   5.803  0.00  0.00    -0.353 OA
HETATM   20  C   UNK N   1      35.905  14.209   5.279  0.00  0.00     0.210 C 
ENDBRANCH  15  19
BRANCH  16  21
HETATM   21  O   UNK N   1      33.971  17.682   5.741  0.00  0.00    -0.351 OA
HETATM   22  C   UNK N   1      33.092  17.515   4.697  0.00  0.00     0.210 C 
ENDBRANCH  16  21
BRANCH  17  23
HETATM   23  O   UNK N   1      32.409  18.199   8.053  0.00  0.00    -0.353 OA
HETATM   24  C   UNK N   1      31.156  18.163   8.618  0.00  0.00     0.210 C 
ENDBRANCH  17  23
ENDBRANCH   1  13
BRANCH   1  25
HETATM   25  O   UNK N   1      33.411  14.857  11.354  0.00  0.00    -0.391 OA
HETATM   26  H   UNK N   1      33.425  15.813  11.518  0.00  0.00     0.210 HD
ENDBRANCH   1  25
TORSDOF 9
ENDMDL
