MODEL 1
REMARK VINA RESULT:      -7.3      0.000      0.000
REMARK  19 active torsions:
REMARK  status: ('A' for Active; 'I' for Inactive)
REMARK    1  A    between atoms: C_2  and  C_3 
REMARK    2  A    between atoms: C_3  and  C_4 
REMARK    3  A    between atoms: C_5  and  O_20 
REMARK    4  A    between atoms: C_8  and  C_17 
REMARK    5  A    between atoms: C_9  and  O_10 
REMARK    6  A    between atoms: O_10  and  C_11 
REMARK    7  A    between atoms: C_11  and  C_12 
REMARK    8  A    between atoms: C_12  and  C_13 
REMARK    9  A    between atoms: C_13  and  C_14 
REMARK   10  A    between atoms: C_14  and  O_16 
REMARK   11  A    between atoms: O_20  and  C_21 
REMARK   12  A    between atoms: C_21  and  C_22 
REMARK   13  A    between atoms: C_22  and  C_23 
REMARK   14  A    between atoms: C_23  and  S_24 
REMARK   15  A    between atoms: S_24  and  C_25 
REMARK   16  A    between atoms: C_28  and  C_35 
REMARK   17  A    between atoms: C_29  and  O_34 
REMARK   18  A    between atoms: C_30  and  C_31 
REMARK   19  A    between atoms: C_31  and  C_32 
ROOT
HETATM    1  C   UNK N   1      24.649  18.275   3.773  0.00  0.00     0.010 A 
HETATM    2  C   UNK N   1      25.398  19.400   3.402  0.00  0.00     0.077 A 
HETATM    3  C   UNK N   1      24.758  20.566   2.981  0.00  0.00     0.038 A 
HETATM    4  C   UNK N   1      23.369  20.623   2.931  0.00  0.00     0.021 A 
HETATM    5  C   UNK N   1      22.587  19.520   3.307  0.00  0.00     0.043 A 
HETATM    6  C   UNK N   1      23.228  18.329   3.737  0.00  0.00     0.091 A 
ENDROOT
BRANCH   2   7
HETATM    7  O   UNK N   1      26.743  19.346   3.461  0.00  0.00    -0.350 OA
BRANCH   7   8
HETATM    8  C   UNK N   1      27.445  20.048   4.401  0.00  0.00     0.176 C 
BRANCH   8   9
HETATM    9  C   UNK N   1      28.617  19.206   4.902  0.00  0.00     0.037 C 
BRANCH   9  10
HETATM   10  C   UNK N   1      28.215  18.304   6.060  0.00  0.00     0.081 C 
BRANCH  10  11
HETATM   11  S   UNK N   1      29.027  16.692   5.880  0.00  0.00    -0.129 SA
BRANCH  11  12
HETATM   12  C   UNK N   1      30.695  17.037   6.514  0.00  0.00     0.009 A 
HETATM   13  C   UNK N   1      30.779  17.089   7.904  0.00  0.00     0.020 A 
HETATM   14  C   UNK N   1      31.975  17.375   8.547  0.00  0.00     0.019 A 
HETATM   15  C   UNK N   1      33.141  17.619   7.820  0.00  0.00     0.043 A 
HETATM   16  C   UNK N   1      33.090  17.565   6.410  0.00  0.00     0.087 A 
HETATM   17  C   UNK N   1      31.873  17.285   5.745  0.00  0.00    -0.007 A 
BRANCH  15  18
HETATM   18  C   UNK N   1      34.389  17.931   8.574  0.00  0.00     0.158 C 
HETATM   19  O   UNK N   1      34.968  18.987   8.367  0.00  0.00    -0.293 OA
HETATM   20  C   UNK N   1      34.977  16.990   9.575  0.00  0.00     0.097 C 
ENDBRANCH  15  18
BRANCH  16  21
HETATM   21  O   UNK N   1      34.201  17.783   5.681  0.00  0.00    -0.359 OA
HETATM   22  H   UNK N   1      34.490  17.157   5.047  0.00  0.00     0.217 HD
ENDBRANCH  16  21
BRANCH  17  23
HETATM   23  C   UNK N   1      31.893  17.249   4.244  0.00  0.00     0.042 C 
BRANCH  23  24
HETATM   24  C   UNK N   1      32.055  15.831   3.718  0.00  0.00     0.000 C 
HETATM   25  C   UNK N   1      33.369  15.719   2.973  0.00  0.00     0.005 C 
ENDBRANCH  23  24
ENDBRANCH  17  23
ENDBRANCH  11  12
ENDBRANCH  10  11
ENDBRANCH   9  10
ENDBRANCH   8   9
ENDBRANCH   7   8
ENDBRANCH   2   7
BRANCH   1  26
HETATM   26  C   UNK N   1      25.388  17.015   4.136  0.00  0.00     0.044 C 
BRANCH  26  27
HETATM   27  C   UNK N   1      25.636  16.122   2.935  0.00  0.00     0.000 C 
HETATM   28  C   UNK N   1      27.083  15.680   2.946  0.00  0.00     0.005 C 
ENDBRANCH  26  27
ENDBRANCH   1  26
BRANCH   6  29
HETATM   29  O   UNK N   1      22.450  17.273   4.110  0.00  0.00    -0.349 OA
BRANCH  29  30
HETATM   30  C   UNK N   1      22.367  16.744   5.380  0.00  0.00     0.176 C 
BRANCH  30  31
HETATM   31  C   UNK N   1      21.658  17.727   6.310  0.00  0.00     0.037 C 
BRANCH  31  32
HETATM   32  C   UNK N   1      20.597  17.005   7.126  0.00  0.00     0.112 C 
BRANCH  32  33
HETATM   33  C   UNK N   1      20.039  17.873   8.210  0.00  0.00     0.139 C 
HETATM   34  O   UNK N   1      20.403  19.033   8.297  0.00  0.00    -0.650 OA
BRANCH  33  35
HETATM   35  O   UNK N   1      19.142  17.388   9.092  0.00  0.00    -0.776 OA
HETATM   36  H   UNK N   1      19.085  16.514   9.427  0.00  0.00     0.167 HD
ENDBRANCH  33  35
ENDBRANCH  32  33
ENDBRANCH  31  32
ENDBRANCH  30  31
ENDBRANCH  29  30
ENDBRANCH   6  29
BRANCH   5  37
HETATM   37  C   UNK N   1      21.102  19.647   3.260  0.00  0.00     0.158 C 
HETATM   38  O   UNK N   1      20.499  20.283   4.112  0.00  0.00    -0.293 OA
HETATM   39  C   UNK N   1      20.315  19.011   2.159  0.00  0.00     0.097 C 
ENDBRANCH   5  37
TORSDOF 19
ENDMDL
MODEL 2
REMARK VINA RESULT:      -6.7      2.587     10.108
REMARK  19 active torsions:
REMARK  status: ('A' for Active; 'I' for Inactive)
REMARK    1  A    between atoms: C_2  and  C_3 
REMARK    2  A    between atoms: C_3  and  C_4 
REMARK    3  A    between atoms: C_5  and  O_20 
REMARK    4  A    between atoms: C_8  and  C_17 
REMARK    5  A    between atoms: C_9  and  O_10 
REMARK    6  A    between atoms: O_10  and  C_11 
REMARK    7  A    between atoms: C_11  and  C_12 
REMARK    8  A    between atoms: C_12  and  C_13 
REMARK    9  A    between atoms: C_13  and  C_14 
REMARK   10  A    between atoms: C_14  and  O_16 
REMARK   11  A    between atoms: O_20  and  C_21 
REMARK   12  A    between atoms: C_21  and  C_22 
REMARK   13  A    between atoms: C_22  and  C_23 
REMARK   14  A    between atoms: C_23  and  S_24 
REMARK   15  A    between atoms: S_24  and  C_25 
REMARK   16  A    between atoms: C_28  and  C_35 
REMARK   17  A    between atoms: C_29  and  O_34 
REMARK   18  A    between atoms: C_30  and  C_31 
REMARK   19  A    between atoms: C_31  and  C_32 
ROOT
HETATM    1  C   UNK N   1      29.440  17.430   6.035  0.00  0.00     0.010 A 
HETATM    2  C   UNK N   1      28.518  18.403   5.626  0.00  0.00     0.077 A 
HETATM    3  C   UNK N   1      27.854  19.187   6.570  0.00  0.00     0.038 A 
HETATM    4  C   UNK N   1      28.108  19.013   7.927  0.00  0.00     0.021 A 
HETATM    5  C   UNK N   1      29.035  18.058   8.372  0.00  0.00     0.043 A 
HETATM    6  C   UNK N   1      29.715  17.255   7.421  0.00  0.00     0.091 A 
ENDROOT
BRANCH   2   7
HETATM    7  O   UNK N   1      28.281  18.575   4.311  0.00  0.00    -0.350 OA
BRANCH   7   8
HETATM    8  C   UNK N   1      27.011  18.724   3.829  0.00  0.00     0.176 C 
BRANCH   8   9
HETATM    9  C   UNK N   1      26.313  17.365   3.792  0.00  0.00     0.037 C 
BRANCH   9  10
HETATM   10  C   UNK N   1      25.122  17.312   4.737  0.00  0.00     0.081 C 
BRANCH  10  11
HETATM   11  S   UNK N   1      24.281  15.714   4.558  0.00  0.00    -0.129 SA
BRANCH  11  12
HETATM   12  C   UNK N   1      22.971  15.835   5.812  0.00  0.00     0.009 A 
HETATM   13  C   UNK N   1      22.184  16.980   5.709  0.00  0.00     0.020 A 
HETATM   14  C   UNK N   1      21.162  17.240   6.611  0.00  0.00     0.019 A 
HETATM   15  C   UNK N   1      20.882  16.356   7.654  0.00  0.00     0.043 A 
HETATM   16  C   UNK N   1      21.656  15.182   7.780  0.00  0.00     0.087 A 
HETATM   17  C   UNK N   1      22.708  14.914   6.873  0.00  0.00    -0.007 A 
BRANCH  15  18
HETATM   18  C   UNK N   1      19.777  16.702   8.593  0.00  0.00     0.158 C 
HETATM   19  O   UNK N   1      19.016  15.827   8.975  0.00  0.00    -0.293 OA
HETATM   20  C   UNK N   1      19.550  18.096   9.083  0.00  0.00     0.097 C 
ENDBRANCH  15  18
BRANCH  16  21
HETATM   21  O   UNK N   1      21.402  14.304   8.769  0.00  0.00    -0.359 OA
HETATM   22  H   UNK N   1      20.627  14.380   9.290  0.00  0.00     0.217 HD
ENDBRANCH  16  21
BRANCH  17  23
HETATM   23  C   UNK N   1      23.492  13.649   7.070  0.00  0.00     0.042 C 
BRANCH  23  24
HETATM   24  C   UNK N   1      24.782  13.900   7.835  0.00  0.00     0.000 C 
HETATM   25  C   UNK N   1      24.741  13.150   9.151  0.00  0.00     0.005 C 
ENDBRANCH  23  24
ENDBRANCH  17  23
ENDBRANCH  11  12
ENDBRANCH  10  11
ENDBRANCH   9  10
ENDBRANCH   8   9
ENDBRANCH   7   8
ENDBRANCH   2   7
BRANCH   1  26
HETATM   26  C   UNK N   1      30.064  16.551   4.985  0.00  0.00     0.044 C 
BRANCH  26  27
HETATM   27  C   UNK N   1      31.204  17.238   4.257  0.00  0.00     0.000 C 
HETATM   28  C   UNK N   1      32.201  16.191   3.812  0.00  0.00     0.005 C 
ENDBRANCH  26  27
ENDBRANCH   1  26
BRANCH   6  29
HETATM   29  O   UNK N   1      30.621  16.341   7.873  0.00  0.00    -0.349 OA
BRANCH  29  30
HETATM   30  C   UNK N   1      31.991  16.448   7.769  0.00  0.00     0.176 C 
BRANCH  30  31
HETATM   31  C   UNK N   1      32.426  17.888   8.037  0.00  0.00     0.037 C 
BRANCH  31  32
HETATM   32  C   UNK N   1      33.819  18.127   7.478  0.00  0.00     0.112 C 
BRANCH  32  33
HETATM   33  C   UNK N   1      34.827  18.342   8.564  0.00  0.00     0.139 C 
HETATM   34  O   UNK N   1      35.483  19.370   8.580  0.00  0.00    -0.650 OA
BRANCH  33  35
HETATM   35  O   UNK N   1      35.020  17.413   9.522  0.00  0.00    -0.776 OA
HETATM   36  H   UNK N   1      35.371  17.543  10.381  0.00  0.00     0.167 HD
ENDBRANCH  33  35
ENDBRANCH  32  33
ENDBRANCH  31  32
ENDBRANCH  30  31
ENDBRANCH  29  30
ENDBRANCH   6  29
BRANCH   5  37
HETATM   37  C   UNK N   1      29.287  17.935   9.837  0.00  0.00     0.158 C 
HETATM   38  O   UNK N   1      29.745  18.871  10.475  0.00  0.00    -0.293 OA
HETATM   39  C   UNK N   1      28.971  16.666  10.563  0.00  0.00     0.097 C 
ENDBRANCH   5  37
TORSDOF 19
ENDMDL
MODEL 3
REMARK VINA RESULT:      -6.6      2.922      9.764
REMARK  19 active torsions:
REMARK  status: ('A' for Active; 'I' for Inactive)
REMARK    1  A    between atoms: C_2  and  C_3 
REMARK    2  A    between atoms: C_3  and  C_4 
REMARK    3  A    between atoms: C_5  and  O_20 
REMARK    4  A    between atoms: C_8  and  C_17 
REMARK    5  A    between atoms: C_9  and  O_10 
REMARK    6  A    between atoms: O_10  and  C_11 
REMARK    7  A    between atoms: C_11  and  C_12 
REMARK    8  A    between atoms: C_12  and  C_13 
REMARK    9  A    between atoms: C_13  and  C_14 
REMARK   10  A    between atoms: C_14  and  O_16 
REMARK   11  A    between atoms: O_20  and  C_21 
REMARK   12  A    between atoms: C_21  and  C_22 
REMARK   13  A    between atoms: C_22  and  C_23 
REMARK   14  A    between atoms: C_23  and  S_24 
REMARK   15  A    between atoms: S_24  and  C_25 
REMARK   16  A    between atoms: C_28  and  C_35 
REMARK   17  A    between atoms: C_29  and  O_34 
REMARK   18  A    between atoms: C_30  and  C_31 
REMARK   19  A    between atoms: C_31  and  C_32 
ROOT
HETATM    1  C   UNK N   1      28.249  18.090   5.109  0.00  0.00     0.010 A 
HETATM    2  C   UNK N   1      27.699  19.356   4.864  0.00  0.00     0.077 A 
HETATM    3  C   UNK N   1      27.425  20.223   5.923  0.00  0.00     0.038 A 
HETATM    4  C   UNK N   1      27.701  19.840   7.232  0.00  0.00     0.021 A 
HETATM    5  C   UNK N   1      28.265  18.585   7.513  0.00  0.00     0.043 A 
HETATM    6  C   UNK N   1      28.547  17.696   6.444  0.00  0.00     0.091 A 
ENDROOT
BRANCH   2   7
HETATM    7  O   UNK N   1      27.440  19.728   3.595  0.00  0.00    -0.350 OA
BRANCH   7   8
HETATM    8  C   UNK N   1      26.377  20.532   3.291  0.00  0.00     0.176 C 
BRANCH   8   9
HETATM    9  C   UNK N   1      25.222  19.679   2.769  0.00  0.00     0.037 C 
BRANCH   9  10
HETATM   10  C   UNK N   1      24.026  19.704   3.710  0.00  0.00     0.081 C 
BRANCH  10  11
HETATM   11  S   UNK N   1      24.129  18.299   4.853  0.00  0.00    -0.129 SA
BRANCH  11  12
HETATM   12  C   UNK N   1      22.938  17.134   4.126  0.00  0.00     0.009 A 
HETATM   13  C   UNK N   1      21.879  17.743   3.456  0.00  0.00     0.020 A 
HETATM   14  C   UNK N   1      20.865  16.994   2.874  0.00  0.00     0.019 A 
HETATM   15  C   UNK N   1      20.875  15.600   2.936  0.00  0.00     0.043 A 
HETATM   16  C   UNK N   1      21.940  14.954   3.600  0.00  0.00     0.087 A 
HETATM   17  C   UNK N   1      22.971  15.708   4.207  0.00  0.00    -0.007 A 
BRANCH  15  18
HETATM   18  C   UNK N   1      19.749  14.860   2.299  0.00  0.00     0.158 C 
HETATM   19  O   UNK N   1      19.007  14.180   2.992  0.00  0.00    -0.293 OA
HETATM   20  C   UNK N   1      19.494  14.902   0.827  0.00  0.00     0.097 C 
ENDBRANCH  15  18
BRANCH  16  21
HETATM   21  O   UNK N   1      21.983  13.610   3.666  0.00  0.00    -0.359 OA
HETATM   22  H   UNK N   1      21.744  13.160   4.452  0.00  0.00     0.217 HD
ENDBRANCH  16  21
BRANCH  17  23
HETATM   23  C   UNK N   1      24.069  14.953   4.900  0.00  0.00     0.042 C 
BRANCH  23  24
HETATM   24  C   UNK N   1      23.877  14.940   6.409  0.00  0.00     0.000 C 
HETATM   25  C   UNK N   1      25.224  14.788   7.085  0.00  0.00     0.005 C 
ENDBRANCH  23  24
ENDBRANCH  17  23
ENDBRANCH  11  12
ENDBRANCH  10  11
ENDBRANCH   9  10
ENDBRANCH   8   9
ENDBRANCH   7   8
ENDBRANCH   2   7
BRANCH   1  26
HETATM   26  C   UNK N   1      28.445  17.160   3.943  0.00  0.00     0.044 C 
BRANCH  26  27
HETATM   27  C   UNK N   1      27.389  16.072   3.886  0.00  0.00     0.000 C 
HETATM   28  C   UNK N   1      26.522  16.296   2.667  0.00  0.00     0.005 C 
ENDBRANCH  26  27
ENDBRANCH   1  26
BRANCH   6  29
HETATM   29  O   UNK N   1      29.106  16.487   6.737  0.00  0.00    -0.349 OA
BRANCH  29  30
HETATM   30  C   UNK N   1      30.290  16.002   6.224  0.00  0.00     0.176 C 
BRANCH  30  31
HETATM   31  C   UNK N   1      31.433  16.277   7.200  0.00  0.00     0.037 C 
BRANCH  31  32
HETATM   32  C   UNK N   1      32.215  17.504   6.759  0.00  0.00     0.112 C 
BRANCH  32  33
HETATM   33  C   UNK N   1      33.422  17.734   7.614  0.00  0.00     0.139 C 
HETATM   34  O   UNK N   1      33.351  17.544   8.816  0.00  0.00    -0.650 OA
BRANCH  33  35
HETATM   35  O   UNK N   1      34.585  18.150   7.072  0.00  0.00    -0.776 OA
HETATM   36  H   UNK N   1      35.206  17.639   6.592  0.00  0.00     0.167 HD
ENDBRANCH  33  35
ENDBRANCH  32  33
ENDBRANCH  31  32
ENDBRANCH  30  31
ENDBRANCH  29  30
ENDBRANCH   6  29
BRANCH   5  37
HETATM   37  C   UNK N   1      28.565  18.238   8.932  0.00  0.00     0.158 C 
HETATM   38  O   UNK N   1      27.786  17.567   9.591  0.00  0.00    -0.293 OA
HETATM   39  C   UNK N   1      29.835  18.693   9.578  0.00  0.00     0.097 C 
ENDBRANCH   5  37
TORSDOF 19
ENDMDL
MODEL 4
REMARK VINA RESULT:      -6.5      2.319      5.241
REMARK  19 active torsions:
REMARK  status: ('A' for Active; 'I' for Inactive)
REMARK    1  A    between atoms: C_2  and  C_3 
REMARK    2  A    between atoms: C_3  and  C_4 
REMARK    3  A    between atoms: C_5  and  O_20 
REMARK    4  A    between atoms: C_8  and  C_17 
REMARK    5  A    between atoms: C_9  and  O_10 
REMARK    6  A    between atoms: O_10  and  C_11 
REMARK    7  A    between atoms: C_11  and  C_12 
REMARK    8  A    between atoms: C_12  and  C_13 
REMARK    9  A    between atoms: C_13  and  C_14 
REMARK   10  A    between atoms: C_14  and  O_16 
REMARK   11  A    between atoms: O_20  and  C_21 
REMARK   12  A    between atoms: C_21  and  C_22 
REMARK   13  A    between atoms: C_22  and  C_23 
REMARK   14  A    between atoms: C_23  and  S_24 
REMARK   15  A    between atoms: S_24  and  C_25 
REMARK   16  A    between atoms: C_28  and  C_35 
REMARK   17  A    between atoms: C_29  and  O_34 
REMARK   18  A    between atoms: C_30  and  C_31 
REMARK   19  A    between atoms: C_31  and  C_32 
ROOT
HETATM    1  C   UNK N   1      23.916  17.285   4.487  0.00  0.00     0.010 A 
HETATM    2  C   UNK N   1      24.846  16.293   4.826  0.00  0.00     0.077 A 
HETATM    3  C   UNK N   1      24.583  15.408   5.873  0.00  0.00     0.038 A 
HETATM    4  C   UNK N   1      23.391  15.500   6.585  0.00  0.00     0.021 A 
HETATM    5  C   UNK N   1      22.432  16.473   6.264  0.00  0.00     0.043 A 
HETATM    6  C   UNK N   1      22.689  17.378   5.202  0.00  0.00     0.091 A 
ENDROOT
BRANCH   2   7
HETATM    7  O   UNK N   1      25.995  16.199   4.129  0.00  0.00    -0.350 OA
BRANCH   7   8
HETATM    8  C   UNK N   1      26.493  14.989   3.734  0.00  0.00     0.176 C 
BRANCH   8   9
HETATM    9  C   UNK N   1      27.795  15.196   2.962  0.00  0.00     0.037 C 
BRANCH   9  10
HETATM   10  C   UNK N   1      29.016  14.856   3.804  0.00  0.00     0.081 C 
BRANCH  10  11
HETATM   11  S   UNK N   1      30.166  16.258   3.794  0.00  0.00    -0.129 SA
BRANCH  11  12
HETATM   12  C   UNK N   1      29.285  17.477   4.814  0.00  0.00     0.009 A 
HETATM   13  C   UNK N   1      28.494  18.365   4.089  0.00  0.00     0.020 A 
HETATM   14  C   UNK N   1      27.782  19.378   4.716  0.00  0.00     0.019 A 
HETATM   15  C   UNK N   1      27.831  19.540   6.101  0.00  0.00     0.043 A 
HETATM   16  C   UNK N   1      28.617  18.649   6.865  0.00  0.00     0.087 A 
HETATM   17  C   UNK N   1      29.355  17.621   6.234  0.00  0.00    -0.007 A 
BRANCH  15  18
HETATM   18  C   UNK N   1      27.051  20.656   6.707  0.00  0.00     0.158 C 
HETATM   19  O   UNK N   1      26.595  20.529   7.834  0.00  0.00    -0.293 OA
HETATM   20  C   UNK N   1      26.786  21.935   5.981  0.00  0.00     0.097 C 
ENDBRANCH  15  18
BRANCH  16  21
HETATM   21  O   UNK N   1      28.674  18.773   8.204  0.00  0.00    -0.359 OA
HETATM   22  H   UNK N   1      28.013  19.246   8.671  0.00  0.00     0.217 HD
ENDBRANCH  16  21
BRANCH  17  23
HETATM   23  C   UNK N   1      30.172  16.715   7.109  0.00  0.00     0.042 C 
BRANCH  23  24
HETATM   24  C   UNK N   1      31.628  17.154   7.170  0.00  0.00     0.000 C 
HETATM   25  C   UNK N   1      31.956  17.612   8.576  0.00  0.00     0.005 C 
ENDBRANCH  23  24
ENDBRANCH  17  23
ENDBRANCH  11  12
ENDBRANCH  10  11
ENDBRANCH   9  10
ENDBRANCH   8   9
ENDBRANCH   7   8
ENDBRANCH   2   7
BRANCH   1  26
HETATM   26  C   UNK N   1      24.284  18.269   3.409  0.00  0.00     0.044 C 
BRANCH  26  27
HETATM   27  C   UNK N   1      24.505  19.668   3.952  0.00  0.00     0.000 C 
HETATM   28  C   UNK N   1      25.007  20.553   2.832  0.00  0.00     0.005 C 
ENDBRANCH  26  27
ENDBRANCH   1  26
BRANCH   6  29
HETATM   29  O   UNK N   1      21.739  18.308   4.898  0.00  0.00    -0.349 OA
BRANCH  29  30
HETATM   30  C   UNK N   1      20.596  18.080   4.161  0.00  0.00     0.176 C 
BRANCH  30  31
HETATM   31  C   UNK N   1      20.866  18.345   2.681  0.00  0.00     0.037 C 
BRANCH  31  32
HETATM   32  C   UNK N   1      20.190  19.637   2.249  0.00  0.00     0.112 C 
BRANCH  32  33
HETATM   33  C   UNK N   1      21.186  20.685   1.861  0.00  0.00     0.139 C 
HETATM   34  O   UNK N   1      21.582  20.740   0.709  0.00  0.00    -0.650 OA
BRANCH  33  35
HETATM   35  O   UNK N   1      21.651  21.567   2.769  0.00  0.00    -0.776 OA
HETATM   36  H   UNK N   1      21.280  21.777   3.603  0.00  0.00     0.167 HD
ENDBRANCH  33  35
ENDBRANCH  32  33
ENDBRANCH  31  32
ENDBRANCH  30  31
ENDBRANCH  29  30
ENDBRANCH   6  29
BRANCH   5  37
HETATM   37  C   UNK N   1      21.160  16.508   7.044  0.00  0.00     0.158 C 
HETATM   38  O   UNK N   1      20.919  17.431   7.808  0.00  0.00    -0.293 OA
HETATM   39  C   UNK N   1      20.144  15.421   6.898  0.00  0.00     0.097 C 
ENDBRANCH   5  37
TORSDOF 19
ENDMDL
MODEL 5
REMARK VINA RESULT:      -6.5      3.966     10.917
REMARK  19 active torsions:
REMARK  status: ('A' for Active; 'I' for Inactive)
REMARK    1  A    between atoms: C_2  and  C_3 
REMARK    2  A    between atoms: C_3  and  C_4 
REMARK    3  A    between atoms: C_5  and  O_20 
REMARK    4  A    between atoms: C_8  and  C_17 
REMARK    5  A    between atoms: C_9  and  O_10 
REMARK    6  A    between atoms: O_10  and  C_11 
REMARK    7  A    between atoms: C_11  and  C_12 
REMARK    8  A    between atoms: C_12  and  C_13 
REMARK    9  A    between atoms: C_13  and  C_14 
REMARK   10  A    between atoms: C_14  and  O_16 
REMARK   11  A    between atoms: O_20  and  C_21 
REMARK   12  A    between atoms: C_21  and  C_22 
REMARK   13  A    between atoms: C_22  and  C_23 
REMARK   14  A    between atoms: C_23  and  S_24 
REMARK   15  A    between atoms: S_24  and  C_25 
REMARK   16  A    between atoms: C_28  and  C_35 
REMARK   17  A    between atoms: C_29  and  O_34 
REMARK   18  A    between atoms: C_30  and  C_31 
REMARK   19  A    between atoms: C_31  and  C_32 
ROOT
HETATM    1  C   UNK N   1      34.732  15.345   6.609  0.00  0.00     0.010 A 
HETATM    2  C   UNK N   1      34.063  16.502   6.188  0.00  0.00     0.077 A 
HETATM    3  C   UNK N   1      33.534  17.391   7.125  0.00  0.00     0.038 A 
HETATM    4  C   UNK N   1      33.671  17.138   8.486  0.00  0.00     0.021 A 
HETATM    5  C   UNK N   1      34.347  15.996   8.943  0.00  0.00     0.043 A 
HETATM    6  C   UNK N   1      34.889  15.086   8.000  0.00  0.00     0.091 A 
ENDROOT
BRANCH   2   7
HETATM    7  O   UNK N   1      33.939  16.750   4.869  0.00  0.00    -0.350 OA
BRANCH   7   8
HETATM    8  C   UNK N   1      32.987  17.607   4.391  0.00  0.00     0.176 C 
BRANCH   8   9
HETATM    9  C   UNK N   1      32.377  17.035   3.113  0.00  0.00     0.037 C 
BRANCH   9  10
HETATM   10  C   UNK N   1      31.475  15.843   3.397  0.00  0.00     0.081 C 
BRANCH  10  11
HETATM   11  S   UNK N   1      29.741  16.332   3.178  0.00  0.00    -0.129 SA
BRANCH  11  12
HETATM   12  C   UNK N   1      29.305  16.931   4.838  0.00  0.00     0.009 A 
HETATM   13  C   UNK N   1      30.135  16.457   5.852  0.00  0.00     0.020 A 
HETATM   14  C   UNK N   1      29.917  16.793   7.181  0.00  0.00     0.019 A 
HETATM   15  C   UNK N   1      28.857  17.625   7.547  0.00  0.00     0.043 A 
HETATM   16  C   UNK N   1      28.004  18.128   6.541  0.00  0.00     0.087 A 
HETATM   17  C   UNK N   1      28.211  17.781   5.185  0.00  0.00    -0.007 A 
BRANCH  15  18
HETATM   18  C   UNK N   1      28.675  17.936   8.994  0.00  0.00     0.158 C 
HETATM   19  O   UNK N   1      27.650  17.587   9.560  0.00  0.00    -0.293 OA
HETATM   20  C   UNK N   1      29.699  18.678   9.789  0.00  0.00     0.097 C 
ENDBRANCH  15  18
BRANCH  16  21
HETATM   21  O   UNK N   1      26.981  18.941   6.863  0.00  0.00    -0.359 OA
HETATM   22  H   UNK N   1      26.794  19.703   6.349  0.00  0.00     0.217 HD
ENDBRANCH  16  21
BRANCH  17  23
HETATM   23  C   UNK N   1      27.262  18.349   4.170  0.00  0.00     0.042 C 
BRANCH  23  24
HETATM   24  C   UNK N   1      27.550  19.817   3.890  0.00  0.00     0.000 C 
HETATM   25  C   UNK N   1      26.308  20.474   3.325  0.00  0.00     0.005 C 
ENDBRANCH  23  24
ENDBRANCH  17  23
ENDBRANCH  11  12
ENDBRANCH  10  11
ENDBRANCH   9  10
ENDBRANCH   8   9
ENDBRANCH   7   8
ENDBRANCH   2   7
BRANCH   1  26
HETATM   26  C   UNK N   1      35.208  14.375   5.561  0.00  0.00     0.044 C 
BRANCH  26  27
HETATM   27  C   UNK N   1      34.067  13.605   4.923  0.00  0.00     0.000 C 
HETATM   28  C   UNK N   1      33.513  12.626   5.934  0.00  0.00     0.005 C 
ENDBRANCH  26  27
ENDBRANCH   1  26
BRANCH   6  29
HETATM   29  O   UNK N   1      35.553  13.988   8.464  0.00  0.00    -0.349 OA
BRANCH  29  30
HETATM   30  C   UNK N   1      36.917  13.799   8.428  0.00  0.00     0.176 C 
BRANCH  30  31
HETATM   31  C   UNK N   1      37.464  13.659   9.848  0.00  0.00     0.037 C 
BRANCH  31  32
HETATM   32  C   UNK N   1      36.553  12.767  10.675  0.00  0.00     0.112 C 
BRANCH  32  33
HETATM   33  C   UNK N   1      36.828  12.894  12.141  0.00  0.00     0.139 C 
HETATM   34  O   UNK N   1      36.018  13.457  12.857  0.00  0.00    -0.650 OA
BRANCH  33  35
HETATM   35  O   UNK N   1      37.959  12.395  12.678  0.00  0.00    -0.776 OA
HETATM   36  H   UNK N   1      38.700  12.042  12.225  0.00  0.00     0.167 HD
ENDBRANCH  33  35
ENDBRANCH  32  33
ENDBRANCH  31  32
ENDBRANCH  30  31
ENDBRANCH  29  30
ENDBRANCH   6  29
BRANCH   5  37
HETATM   37  C   UNK N   1      34.488  15.790  10.414  0.00  0.00     0.158 C 
HETATM   38  O   UNK N   1      33.747  15.025  11.013  0.00  0.00    -0.293 OA
HETATM   39  C   UNK N   1      35.550  16.504  11.188  0.00  0.00     0.097 C 
ENDBRANCH   5  37
TORSDOF 19
ENDMDL
MODEL 6
REMARK VINA RESULT:      -6.5      2.098      3.297
REMARK  19 active torsions:
REMARK  status: ('A' for Active; 'I' for Inactive)
REMARK    1  A    between atoms: C_2  and  C_3 
REMARK    2  A    between atoms: C_3  and  C_4 
REMARK    3  A    between atoms: C_5  and  O_20 
REMARK    4  A    between atoms: C_8  and  C_17 
REMARK    5  A    between atoms: C_9  and  O_10 
REMARK    6  A    between atoms: O_10  and  C_11 
REMARK    7  A    between atoms: C_11  and  C_12 
REMARK    8  A    between atoms: C_12  and  C_13 
REMARK    9  A    between atoms: C_13  and  C_14 
REMARK   10  A    between atoms: C_14  and  O_16 
REMARK   11  A    between atoms: O_20  and  C_21 
REMARK   12  A    between atoms: C_21  and  C_22 
REMARK   13  A    between atoms: C_22  and  C_23 
REMARK   14  A    between atoms: C_23  and  S_24 
REMARK   15  A    between atoms: S_24  and  C_25 
REMARK   16  A    between atoms: C_28  and  C_35 
REMARK   17  A    between atoms: C_29  and  O_34 
REMARK   18  A    between atoms: C_30  and  C_31 
REMARK   19  A    between atoms: C_31  and  C_32 
ROOT
HETATM    1  C   UNK N   1      23.852  16.218   5.684  0.00  0.00     0.010 A 
HETATM    2  C   UNK N   1      25.056  16.727   5.176  0.00  0.00     0.077 A 
HETATM    3  C   UNK N   1      25.052  17.831   4.324  0.00  0.00     0.038 A 
HETATM    4  C   UNK N   1      23.851  18.440   3.973  0.00  0.00     0.021 A 
HETATM    5  C   UNK N   1      22.628  17.966   4.474  0.00  0.00     0.043 A 
HETATM    6  C   UNK N   1      22.621  16.844   5.342  0.00  0.00     0.091 A 
ENDROOT
BRANCH   2   7
HETATM    7  O   UNK N   1      26.218  16.140   5.524  0.00  0.00    -0.350 OA
BRANCH   7   8
HETATM    8  C   UNK N   1      27.245  16.008   4.632  0.00  0.00     0.176 C 
BRANCH   8   9
HETATM    9  C   UNK N   1      28.131  14.831   5.038  0.00  0.00     0.037 C 
BRANCH   9  10
HETATM   10  C   UNK N   1      29.576  15.030   4.604  0.00  0.00     0.081 C 
BRANCH  10  11
HETATM   11  S   UNK N   1      29.885  16.797   4.328  0.00  0.00    -0.129 SA
BRANCH  11  12
HETATM   12  C   UNK N   1      31.071  17.183   5.650  0.00  0.00     0.009 A 
HETATM   13  C   UNK N   1      32.394  17.277   5.221  0.00  0.00     0.020 A 
HETATM   14  C   UNK N   1      33.426  17.533   6.112  0.00  0.00     0.019 A 
HETATM   15  C   UNK N   1      33.174  17.711   7.473  0.00  0.00     0.043 A 
HETATM   16  C   UNK N   1      31.842  17.631   7.937  0.00  0.00     0.087 A 
HETATM   17  C   UNK N   1      30.784  17.359   7.038  0.00  0.00    -0.007 A 
BRANCH  15  18
HETATM   18  C   UNK N   1      34.331  17.972   8.376  0.00  0.00     0.158 C 
HETATM   19  O   UNK N   1      34.917  19.042   8.309  0.00  0.00    -0.293 OA
HETATM   20  C   UNK N   1      34.822  16.962   9.362  0.00  0.00     0.097 C 
ENDBRANCH  15  18
BRANCH  16  21
HETATM   21  O   UNK N   1      31.566  17.811   9.242  0.00  0.00    -0.359 OA
HETATM   22  H   UNK N   1      30.750  17.524   9.604  0.00  0.00     0.217 HD
ENDBRANCH  16  21
BRANCH  17  23
HETATM   23  C   UNK N   1      29.395  17.284   7.603  0.00  0.00     0.042 C 
BRANCH  23  24
HETATM   24  C   UNK N   1      28.801  18.667   7.821  0.00  0.00     0.000 C 
HETATM   25  C   UNK N   1      27.886  19.009   6.664  0.00  0.00     0.005 C 
ENDBRANCH  23  24
ENDBRANCH  17  23
ENDBRANCH  11  12
ENDBRANCH  10  11
ENDBRANCH   9  10
ENDBRANCH   8   9
ENDBRANCH   7   8
ENDBRANCH   2   7
BRANCH   1  26
HETATM   26  C   UNK N   1      23.903  14.974   6.529  0.00  0.00     0.044 C 
BRANCH  26  27
HETATM   27  C   UNK N   1      23.428  13.744   5.780  0.00  0.00     0.000 C 
HETATM   28  C   UNK N   1      24.628  13.041   5.183  0.00  0.00     0.005 C 
ENDBRANCH  26  27
ENDBRANCH   1  26
BRANCH   6  29
HETATM   29  O   UNK N   1      21.424  16.406   5.826  0.00  0.00    -0.349 OA
BRANCH  29  30
HETATM   30  C   UNK N   1      20.868  16.761   7.037  0.00  0.00     0.176 C 
BRANCH  30  31
HETATM   31  C   UNK N   1      19.971  15.636   7.551  0.00  0.00     0.037 C 
BRANCH  31  32
HETATM   32  C   UNK N   1      20.032  15.569   9.068  0.00  0.00     0.112 C 
BRANCH  32  33
HETATM   33  C   UNK N   1      20.696  14.315   9.546  0.00  0.00     0.139 C 
HETATM   34  O   UNK N   1      21.894  14.167   9.377  0.00  0.00    -0.650 OA
BRANCH  33  35
HETATM   35  O   UNK N   1      19.984  13.346  10.158  0.00  0.00    -0.776 OA
HETATM   36  H   UNK N   1      19.114  13.063   9.958  0.00  0.00     0.167 HD
ENDBRANCH  33  35
ENDBRANCH  32  33
ENDBRANCH  31  32
ENDBRANCH  30  31
ENDBRANCH  29  30
ENDBRANCH   6  29
BRANCH   5  37
HETATM   37  C   UNK N   1      21.374  18.676   4.087  0.00  0.00     0.158 C 
HETATM   38  O   UNK N   1      20.975  19.637   4.728  0.00  0.00    -0.293 OA
HETATM   39  C   UNK N   1      20.583  18.237   2.896  0.00  0.00     0.097 C 
ENDBRANCH   5  37
TORSDOF 19
ENDMDL
MODEL 7
REMARK VINA RESULT:      -6.4      6.229      8.833
REMARK  19 active torsions:
REMARK  status: ('A' for Active; 'I' for Inactive)
REMARK    1  A    between atoms: C_2  and  C_3 
REMARK    2  A    between atoms: C_3  and  C_4 
REMARK    3  A    between atoms: C_5  and  O_20 
REMARK    4  A    between atoms: C_8  and  C_17 
REMARK    5  A    between atoms: C_9  and  O_10 
REMARK    6  A    between atoms: O_10  and  C_11 
REMARK    7  A    between atoms: C_11  and  C_12 
REMARK    8  A    between atoms: C_12  and  C_13 
REMARK    9  A    between atoms: C_13  and  C_14 
REMARK   10  A    between atoms: C_14  and  O_16 
REMARK   11  A    between atoms: O_20  and  C_21 
REMARK   12  A    between atoms: C_21  and  C_22 
REMARK   13  A    between atoms: C_22  and  C_23 
REMARK   14  A    between atoms: C_23  and  S_24 
REMARK   15  A    between atoms: S_24  and  C_25 
REMARK   16  A    between atoms: C_28  and  C_35 
REMARK   17  A    between atoms: C_29  and  O_34 
REMARK   18  A    between atoms: C_30  and  C_31 
REMARK   19  A    between atoms: C_31  and  C_32 
ROOT
HETATM    1  C   UNK N   1      22.030  15.705   3.743  0.00  0.00     0.010 A 
HETATM    2  C   UNK N   1      23.222  15.142   4.219  0.00  0.00     0.077 A 
HETATM    3  C   UNK N   1      23.611  15.332   5.546  0.00  0.00     0.038 A 
HETATM    4  C   UNK N   1      22.814  16.077   6.409  0.00  0.00     0.021 A 
HETATM    5  C   UNK N   1      21.608  16.644   5.970  0.00  0.00     0.043 A 
HETATM    6  C   UNK N   1      21.203  16.457   4.623  0.00  0.00     0.091 A 
ENDROOT
BRANCH   2   7
HETATM    7  O   UNK N   1      23.987  14.413   3.383  0.00  0.00    -0.350 OA
BRANCH   7   8
HETATM    8  C   UNK N   1      25.214  13.945   3.765  0.00  0.00     0.176 C 
BRANCH   8   9
HETATM    9  C   UNK N   1      25.205  12.417   3.759  0.00  0.00     0.037 C 
BRANCH   9  10
HETATM   10  C   UNK N   1      25.558  11.840   5.122  0.00  0.00     0.081 C 
BRANCH  10  11
HETATM   11  S   UNK N   1      24.385  10.521   5.541  0.00  0.00    -0.129 SA
BRANCH  11  12
HETATM   12  C   UNK N   1      23.315  11.340   6.760  0.00  0.00     0.009 A 
HETATM   13  C   UNK N   1      23.728  11.183   8.081  0.00  0.00     0.020 A 
HETATM   14  C   UNK N   1      23.002  11.718   9.135  0.00  0.00     0.019 A 
HETATM   15  C   UNK N   1      21.829  12.440   8.907  0.00  0.00     0.043 A 
HETATM   16  C   UNK N   1      21.389  12.624   7.578  0.00  0.00     0.087 A 
HETATM   17  C   UNK N   1      22.116  12.072   6.497  0.00  0.00    -0.007 A 
BRANCH  15  18
HETATM   18  C   UNK N   1      21.093  12.978  10.086  0.00  0.00     0.158 C 
HETATM   19  O   UNK N   1      20.489  14.035   9.987  0.00  0.00    -0.293 OA
HETATM   20  C   UNK N   1      21.073  12.277  11.406  0.00  0.00     0.097 C 
ENDBRANCH  15  18
BRANCH  16  21
HETATM   21  O   UNK N   1      20.268  13.326   7.325  0.00  0.00    -0.359 OA
HETATM   22  H   UNK N   1      19.700  13.589   8.023  0.00  0.00     0.217 HD
ENDBRANCH  16  21
BRANCH  17  23
HETATM   23  C   UNK N   1      21.586  12.304   5.112  0.00  0.00     0.042 C 
BRANCH  23  24
HETATM   24  C   UNK N   1      20.776  11.117   4.613  0.00  0.00     0.000 C 
HETATM   25  C   UNK N   1      19.351  11.557   4.348  0.00  0.00     0.005 C 
ENDBRANCH  23  24
ENDBRANCH  17  23
ENDBRANCH  11  12
ENDBRANCH  10  11
ENDBRANCH   9  10
ENDBRANCH   8   9
ENDBRANCH   7   8
ENDBRANCH   2   7
BRANCH   1  26
HETATM   26  C   UNK N   1      21.699  15.545   2.284  0.00  0.00     0.044 C 
BRANCH  26  27
HETATM   27  C   UNK N   1      20.829  14.331   2.016  0.00  0.00     0.000 C 
HETATM   28  C   UNK N   1      19.645  14.754   1.177  0.00  0.00     0.005 C 
ENDBRANCH  26  27
ENDBRANCH   1  26
BRANCH   6  29
HETATM   29  O   UNK N   1      20.021  17.006   4.220  0.00  0.00    -0.349 OA
BRANCH  29  30
HETATM   30  C   UNK N   1      19.882  18.070   3.355  0.00  0.00     0.176 C 
BRANCH  30  31
HETATM   31  C   UNK N   1      20.905  19.154   3.691  0.00  0.00     0.037 C 
BRANCH  31  32
HETATM   32  C   UNK N   1      21.799  19.420   2.491  0.00  0.00     0.112 C 
BRANCH  32  33
HETATM   33  C   UNK N   1      21.292  20.555   1.657  0.00  0.00     0.139 C 
HETATM   34  O   UNK N   1      21.204  20.419   0.449  0.00  0.00    -0.650 OA
BRANCH  33  35
HETATM   35  O   UNK N   1      20.934  21.725   2.225  0.00  0.00    -0.776 OA
HETATM   36  H   UNK N   1      20.300  22.341   1.913  0.00  0.00     0.167 HD
ENDBRANCH  33  35
ENDBRANCH  32  33
ENDBRANCH  31  32
ENDBRANCH  30  31
ENDBRANCH  29  30
ENDBRANCH   6  29
BRANCH   5  37
HETATM   37  C   UNK N   1      20.781  17.410   6.947  0.00  0.00     0.158 C 
HETATM   38  O   UNK N   1      20.943  18.612   7.098  0.00  0.00    -0.293 OA
HETATM   39  C   UNK N   1      19.723  16.728   7.755  0.00  0.00     0.097 C 
ENDBRANCH   5  37
TORSDOF 19
ENDMDL
MODEL 8
REMARK VINA RESULT:      -6.4      3.770      9.831
REMARK  19 active torsions:
REMARK  status: ('A' for Active; 'I' for Inactive)
REMARK    1  A    between atoms: C_2  and  C_3 
REMARK    2  A    between atoms: C_3  and  C_4 
REMARK    3  A    between atoms: C_5  and  O_20 
REMARK    4  A    between atoms: C_8  and  C_17 
REMARK    5  A    between atoms: C_9  and  O_10 
REMARK    6  A    between atoms: O_10  and  C_11 
REMARK    7  A    between atoms: C_11  and  C_12 
REMARK    8  A    between atoms: C_12  and  C_13 
REMARK    9  A    between atoms: C_13  and  C_14 
REMARK   10  A    between atoms: C_14  and  O_16 
REMARK   11  A    between atoms: O_20  and  C_21 
REMARK   12  A    between atoms: C_21  and  C_22 
REMARK   13  A    between atoms: C_22  and  C_23 
REMARK   14  A    between atoms: C_23  and  S_24 
REMARK   15  A    between atoms: S_24  and  C_25 
REMARK   16  A    between atoms: C_28  and  C_35 
REMARK   17  A    between atoms: C_29  and  O_34 
REMARK   18  A    between atoms: C_30  and  C_31 
REMARK   19  A    between atoms: C_31  and  C_32 
ROOT
HETATM    1  C   UNK N   1      33.758  14.847   5.423  0.00  0.00     0.010 A 
HETATM    2  C   UNK N   1      33.359  15.396   4.196  0.00  0.00     0.077 A 
HETATM    3  C   UNK N   1      33.140  16.769   4.075  0.00  0.00     0.038 A 
HETATM    4  C   UNK N   1      33.322  17.606   5.172  0.00  0.00     0.021 A 
HETATM    5  C   UNK N   1      33.734  17.093   6.411  0.00  0.00     0.043 A 
HETATM    6  C   UNK N   1      33.959  15.698   6.545  0.00  0.00     0.091 A 
ENDROOT
BRANCH   2   7
HETATM    7  O   UNK N   1      33.193  14.584   3.133  0.00  0.00    -0.350 OA
BRANCH   7   8
HETATM    8  C   UNK N   1      31.983  14.468   2.508  0.00  0.00     0.176 C 
BRANCH   8   9
HETATM    9  C   UNK N   1      31.168  13.357   3.169  0.00  0.00     0.037 C 
BRANCH   9  10
HETATM   10  C   UNK N   1      29.909  13.893   3.833  0.00  0.00     0.081 C 
BRANCH  10  11
HETATM   11  S   UNK N   1      29.655  15.621   3.340  0.00  0.00    -0.129 SA
BRANCH  11  12
HETATM   12  C   UNK N   1      29.465  16.448   4.947  0.00  0.00     0.009 A 
HETATM   13  C   UNK N   1      30.168  15.844   5.988  0.00  0.00     0.020 A 
HETATM   14  C   UNK N   1      30.101  16.333   7.285  0.00  0.00     0.019 A 
HETATM   15  C   UNK N   1      29.328  17.453   7.592  0.00  0.00     0.043 A 
HETATM   16  C   UNK N   1      28.611  18.092   6.557  0.00  0.00     0.087 A 
HETATM   17  C   UNK N   1      28.663  17.595   5.234  0.00  0.00    -0.007 A 
BRANCH  15  18
HETATM   18  C   UNK N   1      29.293  17.917   9.009  0.00  0.00     0.158 C 
HETATM   19  O   UNK N   1      29.474  19.099   9.259  0.00  0.00    -0.293 OA
HETATM   20  C   UNK N   1      29.057  16.984  10.152  0.00  0.00     0.097 C 
ENDBRANCH  15  18
BRANCH  16  21
HETATM   21  O   UNK N   1      27.866  19.182   6.821  0.00  0.00    -0.359 OA
HETATM   22  H   UNK N   1      28.266  19.976   7.117  0.00  0.00     0.217 HD
ENDBRANCH  16  21
BRANCH  17  23
HETATM   23  C   UNK N   1      27.871  18.322   4.187  0.00  0.00     0.042 C 
BRANCH  23  24
HETATM   24  C   UNK N   1      26.460  17.767   4.061  0.00  0.00     0.000 C 
HETATM   25  C   UNK N   1      25.561  18.816   3.440  0.00  0.00     0.005 C 
ENDBRANCH  23  24
ENDBRANCH  17  23
ENDBRANCH  11  12
ENDBRANCH  10  11
ENDBRANCH   9  10
ENDBRANCH   8   9
ENDBRANCH   7   8
ENDBRANCH   2   7
BRANCH   1  26
HETATM   26  C   UNK N   1      33.896  13.352   5.524  0.00  0.00     0.044 C 
BRANCH  26  27
HETATM   27  C   UNK N   1      32.747  12.713   6.282  0.00  0.00     0.000 C 
HETATM   28  C   UNK N   1      33.309  11.715   7.269  0.00  0.00     0.005 C 
ENDBRANCH  26  27
ENDBRANCH   1  26
BRANCH   6  29
HETATM   29  O   UNK N   1      34.370  15.221   7.755  0.00  0.00    -0.349 OA
BRANCH  29  30
HETATM   30  C   UNK N   1      35.561  14.572   8.001  0.00  0.00     0.176 C 
BRANCH  30  31
HETATM   31  C   UNK N   1      35.622  14.126   9.461  0.00  0.00     0.037 C 
BRANCH  31  32
HETATM   32  C   UNK N   1      34.711  14.995  10.313  0.00  0.00     0.112 C 
BRANCH  32  33
HETATM   33  C   UNK N   1      35.471  16.072  11.023  0.00  0.00     0.139 C 
HETATM   34  O   UNK N   1      35.925  15.854  12.133  0.00  0.00    -0.650 OA
BRANCH  33  35
HETATM   35  O   UNK N   1      35.656  17.279  10.451  0.00  0.00    -0.776 OA
HETATM   36  H   UNK N   1      35.002  17.856  10.109  0.00  0.00     0.167 HD
ENDBRANCH  33  35
ENDBRANCH  32  33
ENDBRANCH  31  32
ENDBRANCH  30  31
ENDBRANCH  29  30
ENDBRANCH   6  29
BRANCH   5  37
HETATM   37  C   UNK N   1      33.939  18.041   7.545  0.00  0.00     0.158 C 
HETATM   38  O   UNK N   1      35.016  18.593   7.712  0.00  0.00    -0.293 OA
HETATM   39  C   UNK N   1      32.827  18.348   8.496  0.00  0.00     0.097 C 
ENDBRANCH   5  37
TORSDOF 19
ENDMDL
MODEL 9
REMARK VINA RESULT:      -6.4      2.387      9.251
REMARK  19 active torsions:
REMARK  status: ('A' for Active; 'I' for Inactive)
REMARK    1  A    between atoms: C_2  and  C_3 
REMARK    2  A    between atoms: C_3  and  C_4 
REMARK    3  A    between atoms: C_5  and  O_20 
REMARK    4  A    between atoms: C_8  and  C_17 
REMARK    5  A    between atoms: C_9  and  O_10 
REMARK    6  A    between atoms: O_10  and  C_11 
REMARK    7  A    between atoms: C_11  and  C_12 
REMARK    8  A    between atoms: C_12  and  C_13 
REMARK    9  A    between atoms: C_13  and  C_14 
REMARK   10  A    between atoms: C_14  and  O_16 
REMARK   11  A    between atoms: O_20  and  C_21 
REMARK   12  A    between atoms: C_21  and  C_22 
REMARK   13  A    between atoms: C_22  and  C_23 
REMARK   14  A    between atoms: C_23  and  S_24 
REMARK   15  A    between atoms: S_24  and  C_25 
REMARK   16  A    between atoms: C_28  and  C_35 
REMARK   17  A    between atoms: C_29  and  O_34 
REMARK   18  A    between atoms: C_30  and  C_31 
REMARK   19  A    between atoms: C_31  and  C_32 
ROOT
HETATM    1  C   UNK N   1      28.498  17.758   5.411  0.00  0.00     0.010 A 
HETATM    2  C   UNK N   1      27.828  18.951   5.106  0.00  0.00     0.077 A 
HETATM    3  C   UNK N   1      27.441  19.823   6.124  0.00  0.00     0.038 A 
HETATM    4  C   UNK N   1      27.723  19.517   7.452  0.00  0.00     0.021 A 
HETATM    5  C   UNK N   1      28.404  18.338   7.793  0.00  0.00     0.043 A 
HETATM    6  C   UNK N   1      28.802  17.444   6.765  0.00  0.00     0.091 A 
ENDROOT
BRANCH   2   7
HETATM    7  O   UNK N   1      27.565  19.249   3.818  0.00  0.00    -0.350 OA
BRANCH   7   8
HETATM    8  C   UNK N   1      26.918  20.402   3.471  0.00  0.00     0.176 C 
BRANCH   8   9
HETATM    9  C   UNK N   1      25.525  20.070   2.940  0.00  0.00     0.037 C 
BRANCH   9  10
HETATM   10  C   UNK N   1      24.488  20.024   4.052  0.00  0.00     0.081 C 
BRANCH  10  11
HETATM   11  S   UNK N   1      22.951  19.301   3.415  0.00  0.00    -0.129 SA
BRANCH  11  12
HETATM   12  C   UNK N   1      22.559  18.065   4.688  0.00  0.00     0.009 A 
HETATM   13  C   UNK N   1      21.306  18.229   5.277  0.00  0.00     0.020 A 
HETATM   14  C   UNK N   1      20.868  17.389   6.291  0.00  0.00     0.019 A 
HETATM   15  C   UNK N   1      21.669  16.344   6.755  0.00  0.00     0.043 A 
HETATM   16  C   UNK N   1      22.940  16.147   6.172  0.00  0.00     0.087 A 
HETATM   17  C   UNK N   1      23.400  17.005   5.147  0.00  0.00    -0.007 A 
BRANCH  15  18
HETATM   18  C   UNK N   1      21.140  15.487   7.854  0.00  0.00     0.158 C 
HETATM   19  O   UNK N   1      20.997  15.961   8.971  0.00  0.00    -0.293 OA
HETATM   20  C   UNK N   1      20.785  14.050   7.650  0.00  0.00     0.097 C 
ENDBRANCH  15  18
BRANCH  16  21
HETATM   21  O   UNK N   1      23.729  15.140   6.591  0.00  0.00    -0.359 OA
HETATM   22  H   UNK N   1      23.808  14.940   7.503  0.00  0.00     0.217 HD
ENDBRANCH  16  21
BRANCH  17  23
HETATM   23  C   UNK N   1      24.764  16.739   4.577  0.00  0.00     0.042 C 
BRANCH  23  24
HETATM   24  C   UNK N   1      24.690  15.910   3.304  0.00  0.00     0.000 C 
HETATM   25  C   UNK N   1      25.930  16.158   2.471  0.00  0.00     0.005 C 
ENDBRANCH  23  24
ENDBRANCH  17  23
ENDBRANCH  11  12
ENDBRANCH  10  11
ENDBRANCH   9  10
ENDBRANCH   8   9
ENDBRANCH   7   8
ENDBRANCH   2   7
BRANCH   1  26
HETATM   26  C   UNK N   1      28.817  16.811   4.285  0.00  0.00     0.044 C 
BRANCH  26  27
HETATM   27  C   UNK N   1      30.195  17.050   3.698  0.00  0.00     0.000 C 
HETATM   28  C   UNK N   1      30.631  15.809   2.953  0.00  0.00     0.005 C 
ENDBRANCH  26  27
ENDBRANCH   1  26
BRANCH   6  29
HETATM   29  O   UNK N   1      29.473  16.310   7.116  0.00  0.00    -0.349 OA
BRANCH  29  30
HETATM   30  C   UNK N   1      30.830  16.104   6.981  0.00  0.00     0.176 C 
BRANCH  30  31
HETATM   31  C   UNK N   1      31.566  17.442   6.991  0.00  0.00     0.037 C 
BRANCH  31  32
HETATM   32  C   UNK N   1      32.715  17.401   7.985  0.00  0.00     0.112 C 
BRANCH  32  33
HETATM   33  C   UNK N   1      33.965  18.001   7.420  0.00  0.00     0.139 C 
HETATM   34  O   UNK N   1      34.711  18.632   8.148  0.00  0.00    -0.650 OA
BRANCH  33  35
HETATM   35  O   UNK N   1      34.274  17.853   6.115  0.00  0.00    -0.776 OA
HETATM   36  H   UNK N   1      34.114  17.108   5.571  0.00  0.00     0.167 HD
ENDBRANCH  33  35
ENDBRANCH  32  33
ENDBRANCH  31  32
ENDBRANCH  30  31
ENDBRANCH  29  30
ENDBRANCH   6  29
BRANCH   5  37
HETATM   37  C   UNK N   1      28.703  18.075   9.230  0.00  0.00     0.158 C 
HETATM   38  O   UNK N   1      28.047  17.266   9.869  0.00  0.00    -0.293 OA
HETATM   39  C   UNK N   1      29.823  18.785   9.921  0.00  0.00     0.097 C 
ENDBRANCH   5  37
TORSDOF 19
ENDMDL
