MODEL 1
REMARK VINA RESULT:      -6.3      0.000      0.000
REMARK  5 active torsions:
REMARK  status: ('A' for Active; 'I' for Inactive)
REMARK       I    between atoms: C_8  and  N_21 
REMARK    1  A    between atoms: C_13  and  N_12 
REMARK    2  A    between atoms: C_15  and  C_19 
REMARK    3  A    between atoms: C_16  and  C_17 
REMARK    4  A    between atoms: C_17  and  O_18 
REMARK    5  A    between atoms: C_19  and  O_20 
ROOT
HETATM    1  C   UNK N   1      29.416  17.476   4.787  0.00  0.00     0.185 A 
HETATM    2  N   UNK N   1      28.757  18.337   3.964  0.00  0.00    -0.345 N 
ATOM      3  HN  UNK N   1      28.817  18.400   2.947  1.00  0.00     0.167 HD
HETATM    4  C   UNK N   1      28.010  19.085   4.794  0.00  0.00     0.147 A 
HETATM    5  C   UNK N   1      27.158  20.136   4.509  0.00  0.00     0.290 A 
HETATM    6  O   UNK N   1      26.983  20.520   3.366  0.00  0.00    -0.265 OA
HETATM    7  N   UNK N   1      26.515  20.746   5.563  0.00  0.00    -0.154 N 
HETATM    8  C   UNK N   1      26.723  20.323   6.854  0.00  0.00     0.680 A 
HETATM    9  N   UNK N   1      27.579  19.285   7.116  0.00  0.00    -0.174 N 
ATOM     10  HN  UNK N   1      27.744  18.971   8.072  1.00  0.00     0.186 HD
HETATM   11  C   UNK N   1      28.202  18.687   6.069  0.00  0.00     0.157 A 
HETATM   12  N   UNK N   1      29.085  17.677   6.089  0.00  0.00    -0.322 N 
HETATM   13  N   UNK N   1      26.052  20.963   7.914  0.00  0.00    -0.234 N 
HETATM   14  H   UNK N   1      25.901  21.496   5.389  0.00  0.00     0.187 HD
HETATM   15  H   UNK N   1      26.049  20.562   8.812  0.00  0.00     0.174 HD
HETATM   16  H   UNK N   1      25.584  21.815   7.755  0.00  0.00     0.174 HD
ENDROOT
BRANCH  12  17
HETATM   17  C   UNK N   1      29.686  16.941   7.206  0.00  0.00     0.099 C 
HETATM   18  C   UNK N   1      31.079  16.374   6.993  0.00  0.00     0.033 C 
HETATM   19  C   UNK N   1      31.490  17.023   8.312  0.00  0.00     0.019 C 
HETATM   20  C   UNK N   1      30.215  17.847   8.300  0.00  0.00     0.039 C 
BRANCH  19  21
HETATM   21  C   UNK N   1      32.734  17.876   8.178  0.00  0.00     0.169 C 
BRANCH  21  22
HETATM   22  O   UNK N   1      33.591  17.612   9.248  0.00  0.00    -0.400 OA
HETATM   23  H   UNK N   1      34.439  18.070   9.362  0.00  0.00     0.209 HD
ENDBRANCH  21  22
ENDBRANCH  19  21
BRANCH  20  24
HETATM   24  C   UNK N   1      29.429  17.657   9.584  0.00  0.00     0.171 C 
BRANCH  24  25
HETATM   25  O   UNK N   1      28.569  18.741   9.769  0.00  0.00    -0.400 OA
HETATM   26  H   UNK N   1      28.746  19.594   9.344  0.00  0.00     0.209 HD
ENDBRANCH  24  25
ENDBRANCH  20  24
ENDBRANCH  12  17
TORSDOF 5
ENDMDL
MODEL 2
REMARK VINA RESULT:      -5.9      1.868      2.460
REMARK  5 active torsions:
REMARK  status: ('A' for Active; 'I' for Inactive)
REMARK       I    between atoms: C_8  and  N_21 
REMARK    1  A    between atoms: C_13  and  N_12 
REMARK    2  A    between atoms: C_15  and  C_19 
REMARK    3  A    between atoms: C_16  and  C_17 
REMARK    4  A    between atoms: C_17  and  O_18 
REMARK    5  A    between atoms: C_19  and  O_20 
ROOT
HETATM    1  C   UNK N   1      31.041  17.222   4.528  0.00  0.00     0.185 A 
HETATM    2  N   UNK N   1      29.887  17.837   4.151  0.00  0.00    -0.345 N 
ATOM      3  HN  UNK N   1      29.603  18.112   3.210  1.00  0.00     0.167 HD
HETATM    4  C   UNK N   1      29.206  18.001   5.298  0.00  0.00     0.147 A 
HETATM    5  C   UNK N   1      27.976  18.593   5.518  0.00  0.00     0.290 A 
HETATM    6  O   UNK N   1      27.327  19.068   4.603  0.00  0.00    -0.265 OA
HETATM    7  N   UNK N   1      27.507  18.640   6.812  0.00  0.00    -0.154 N 
HETATM    8  C   UNK N   1      28.245  18.117   7.847  0.00  0.00     0.680 A 
HETATM    9  N   UNK N   1      29.466  17.542   7.609  0.00  0.00    -0.174 N 
ATOM     10  HN  UNK N   1      30.023  17.159   8.373  1.00  0.00     0.186 HD
HETATM   11  C   UNK N   1      29.915  17.496   6.330  0.00  0.00     0.157 A 
HETATM   12  N   UNK N   1      31.076  17.003   5.869  0.00  0.00    -0.322 N 
HETATM   13  N   UNK N   1      27.742  18.176   9.161  0.00  0.00    -0.234 N 
HETATM   14  H   UNK N   1      26.634  19.054   6.997  0.00  0.00     0.187 HD
HETATM   15  H   UNK N   1      28.167  17.653   9.878  0.00  0.00     0.174 HD
HETATM   16  H   UNK N   1      26.962  18.743   9.362  0.00  0.00     0.174 HD
ENDROOT
BRANCH  12  17
HETATM   17  C   UNK N   1      32.222  16.416   6.569  0.00  0.00     0.099 C 
HETATM   18  C   UNK N   1      33.598  16.962   6.228  0.00  0.00     0.033 C 
HETATM   19  C   UNK N   1      33.849  17.123   7.724  0.00  0.00     0.019 C 
HETATM   20  C   UNK N   1      32.369  16.915   7.992  0.00  0.00     0.039 C 
BRANCH  19  21
HETATM   21  C   UNK N   1      34.315  18.518   8.089  0.00  0.00     0.169 C 
BRANCH  21  22
HETATM   22  O   UNK N   1      35.306  18.431   9.068  0.00  0.00    -0.400 OA
HETATM   23  H   UNK N   1      36.121  17.919   8.942  0.00  0.00     0.209 HD
ENDBRANCH  21  22
ENDBRANCH  19  21
BRANCH  20  24
HETATM   24  C   UNK N   1      32.146  15.789   8.985  0.00  0.00     0.171 C 
BRANCH  24  25
HETATM   25  O   UNK N   1      31.062  16.099   9.807  0.00  0.00    -0.400 OA
HETATM   26  H   UNK N   1      30.233  15.600   9.745  0.00  0.00     0.209 HD
ENDBRANCH  24  25
ENDBRANCH  20  24
ENDBRANCH  12  17
TORSDOF 5
ENDMDL
MODEL 3
REMARK VINA RESULT:      -5.9      1.960      2.108
REMARK  5 active torsions:
REMARK  status: ('A' for Active; 'I' for Inactive)
REMARK       I    between atoms: C_8  and  N_21 
REMARK    1  A    between atoms: C_13  and  N_12 
REMARK    2  A    between atoms: C_15  and  C_19 
REMARK    3  A    between atoms: C_16  and  C_17 
REMARK    4  A    between atoms: C_17  and  O_18 
REMARK    5  A    between atoms: C_19  and  O_20 
ROOT
HETATM    1  C   UNK N   1      28.853  18.613   4.667  0.00  0.00     0.185 A 
HETATM    2  N   UNK N   1      28.140  19.409   3.824  0.00  0.00    -0.345 N 
ATOM      3  HN  UNK N   1      28.499  20.068   3.132  1.00  0.00     0.167 HD
HETATM    4  C   UNK N   1      26.856  19.131   4.109  0.00  0.00     0.147 A 
HETATM    5  C   UNK N   1      25.698  19.665   3.576  0.00  0.00     0.290 A 
HETATM    6  O   UNK N   1      25.733  20.520   2.709  0.00  0.00    -0.265 OA
HETATM    7  N   UNK N   1      24.495  19.205   4.062  0.00  0.00    -0.154 N 
HETATM    8  C   UNK N   1      24.454  18.250   5.050  0.00  0.00     0.680 A 
HETATM    9  N   UNK N   1      25.614  17.739   5.572  0.00  0.00    -0.174 N 
ATOM     10  HN  UNK N   1      25.591  17.036   6.310  1.00  0.00     0.186 HD
HETATM   11  C   UNK N   1      26.793  18.196   5.080  0.00  0.00     0.157 A 
HETATM   12  N   UNK N   1      28.039  17.856   5.449  0.00  0.00    -0.322 N 
HETATM   13  N   UNK N   1      23.210  17.795   5.529  0.00  0.00    -0.234 N 
HETATM   14  H   UNK N   1      23.654  19.566   3.699  0.00  0.00     0.187 HD
HETATM   15  H   UNK N   1      23.161  16.994   6.097  0.00  0.00     0.174 HD
HETATM   16  H   UNK N   1      22.386  18.281   5.293  0.00  0.00     0.174 HD
ENDROOT
BRANCH  12  17
HETATM   17  C   UNK N   1      28.524  16.952   6.496  0.00  0.00     0.099 C 
HETATM   18  C   UNK N   1      29.927  16.394   6.335  0.00  0.00     0.033 C 
HETATM   19  C   UNK N   1      30.212  16.833   7.768  0.00  0.00     0.019 C 
HETATM   20  C   UNK N   1      28.950  17.676   7.757  0.00  0.00     0.039 C 
BRANCH  19  21
HETATM   21  C   UNK N   1      31.469  17.670   7.881  0.00  0.00     0.169 C 
BRANCH  21  22
HETATM   22  O   UNK N   1      32.125  17.358   9.072  0.00  0.00    -0.400 OA
HETATM   23  H   UNK N   1      31.987  17.859   9.892  0.00  0.00     0.209 HD
ENDBRANCH  21  22
ENDBRANCH  19  21
BRANCH  20  24
HETATM   24  C   UNK N   1      28.042  17.316   8.918  0.00  0.00     0.171 C 
BRANCH  24  25
HETATM   25  O   UNK N   1      27.366  18.457   9.353  0.00  0.00    -0.400 OA
HETATM   26  H   UNK N   1      26.501  18.387   9.786  0.00  0.00     0.209 HD
ENDBRANCH  24  25
ENDBRANCH  20  24
ENDBRANCH  12  17
TORSDOF 5
ENDMDL
MODEL 4
REMARK VINA RESULT:      -5.8      3.249      5.957
REMARK  5 active torsions:
REMARK  status: ('A' for Active; 'I' for Inactive)
REMARK       I    between atoms: C_8  and  N_21 
REMARK    1  A    between atoms: C_13  and  N_12 
REMARK    2  A    between atoms: C_15  and  C_19 
REMARK    3  A    between atoms: C_16  and  C_17 
REMARK    4  A    between atoms: C_17  and  O_18 
REMARK    5  A    between atoms: C_19  and  O_20 
ROOT
HETATM    1  C   UNK N   1      30.788  17.030   6.055  0.00  0.00     0.185 A 
HETATM    2  N   UNK N   1      32.031  16.782   5.558  0.00  0.00    -0.345 N 
ATOM      3  HN  UNK N   1      32.296  16.625   4.585  1.00  0.00     0.167 HD
HETATM    4  C   UNK N   1      32.829  16.789   6.640  0.00  0.00     0.147 A 
HETATM    5  C   UNK N   1      34.191  16.568   6.733  0.00  0.00     0.290 A 
HETATM    6  O   UNK N   1      34.863  16.323   5.747  0.00  0.00    -0.265 OA
HETATM    7  N   UNK N   1      34.767  16.622   7.982  0.00  0.00    -0.154 N 
HETATM    8  C   UNK N   1      34.007  16.884   9.096  0.00  0.00     0.680 A 
HETATM    9  N   UNK N   1      32.656  17.092   8.984  0.00  0.00    -0.174 N 
ATOM     10  HN  UNK N   1      32.085  17.280   9.808  1.00  0.00     0.186 HD
HETATM   11  C   UNK N   1      32.101  17.042   7.747  0.00  0.00     0.157 A 
HETATM   12  N   UNK N   1      30.812  17.195   7.404  0.00  0.00    -0.322 N 
HETATM   13  N   UNK N   1      34.621  16.937  10.363  0.00  0.00    -0.234 N 
HETATM   14  H   UNK N   1      35.735  16.471   8.078  0.00  0.00     0.187 HD
HETATM   15  H   UNK N   1      34.131  17.297  11.136  0.00  0.00     0.174 HD
HETATM   16  H   UNK N   1      35.544  16.612  10.474  0.00  0.00     0.174 HD
ENDROOT
BRANCH  12  17
HETATM   17  C   UNK N   1      29.614  17.410   8.220  0.00  0.00     0.099 C 
HETATM   18  C   UNK N   1      29.418  18.795   8.813  0.00  0.00     0.033 C 
HETATM   19  C   UNK N   1      27.999  18.778   8.255  0.00  0.00     0.019 C 
HETATM   20  C   UNK N   1      28.354  17.578   7.396  0.00  0.00     0.039 C 
BRANCH  19  21
HETATM   21  C   UNK N   1      27.683  20.009   7.431  0.00  0.00     0.169 C 
BRANCH  21  22
HETATM   22  O   UNK N   1      26.455  20.533   7.837  0.00  0.00    -0.400 OA
HETATM   23  H   UNK N   1      26.076  21.338   7.448  0.00  0.00     0.209 HD
ENDBRANCH  21  22
ENDBRANCH  19  21
BRANCH  20  24
HETATM   24  C   UNK N   1      27.393  16.428   7.639  0.00  0.00     0.171 C 
BRANCH  24  25
HETATM   25  O   UNK N   1      26.411  16.424   6.648  0.00  0.00    -0.400 OA
HETATM   26  H   UNK N   1      26.193  15.611   6.167  0.00  0.00     0.209 HD
ENDBRANCH  24  25
ENDBRANCH  20  24
ENDBRANCH  12  17
TORSDOF 5
ENDMDL
MODEL 5
REMARK VINA RESULT:      -5.8      7.192      8.970
REMARK  5 active torsions:
REMARK  status: ('A' for Active; 'I' for Inactive)
REMARK       I    between atoms: C_8  and  N_21 
REMARK    1  A    between atoms: C_13  and  N_12 
REMARK    2  A    between atoms: C_15  and  C_19 
REMARK    3  A    between atoms: C_16  and  C_17 
REMARK    4  A    between atoms: C_17  and  O_18 
REMARK    5  A    between atoms: C_19  and  O_20 
ROOT
HETATM    1  C   UNK N   1      23.322  17.532   5.077  0.00  0.00     0.185 A 
HETATM    2  N   UNK N   1      23.467  18.737   4.460  0.00  0.00    -0.345 N 
ATOM      3  HN  UNK N   1      24.284  19.348   4.465  1.00  0.00     0.167 HD
HETATM    4  C   UNK N   1      22.289  18.939   3.843  0.00  0.00     0.147 A 
HETATM    5  C   UNK N   1      21.863  20.014   3.086  0.00  0.00     0.290 A 
HETATM    6  O   UNK N   1      22.585  20.974   2.883  0.00  0.00    -0.265 OA
HETATM    7  N   UNK N   1      20.587  19.973   2.572  0.00  0.00    -0.154 N 
HETATM    8  C   UNK N   1      19.766  18.897   2.813  0.00  0.00     0.680 A 
HETATM    9  N   UNK N   1      20.205  17.844   3.574  0.00  0.00    -0.174 N 
ATOM     10  HN  UNK N   1      19.599  17.046   3.763  1.00  0.00     0.186 HD
HETATM   11  C   UNK N   1      21.467  17.893   4.070  0.00  0.00     0.157 A 
HETATM   12  N   UNK N   1      22.094  16.996   4.846  0.00  0.00    -0.322 N 
HETATM   13  N   UNK N   1      18.465  18.878   2.274  0.00  0.00    -0.234 N 
HETATM   14  H   UNK N   1      20.257  20.724   2.027  0.00  0.00     0.187 HD
HETATM   15  H   UNK N   1      17.937  18.048   2.284  0.00  0.00     0.174 HD
HETATM   16  H   UNK N   1      18.083  19.699   1.886  0.00  0.00     0.174 HD
ENDROOT
BRANCH  12  17
HETATM   17  C   UNK N   1      21.631  15.737   5.435  0.00  0.00     0.099 C 
HETATM   18  C   UNK N   1      22.216  15.343   6.781  0.00  0.00     0.033 C 
HETATM   19  C   UNK N   1      20.791  15.114   7.276  0.00  0.00     0.019 C 
HETATM   20  C   UNK N   1      20.253  15.841   6.057  0.00  0.00     0.039 C 
BRANCH  19  21
HETATM   21  C   UNK N   1      20.498  15.849   8.568  0.00  0.00     0.169 C 
BRANCH  21  22
HETATM   22  O   UNK N   1      19.496  15.173   9.265  0.00  0.00    -0.400 OA
HETATM   23  H   UNK N   1      18.711  15.622   9.617  0.00  0.00     0.209 HD
ENDBRANCH  21  22
ENDBRANCH  19  21
BRANCH  20  24
HETATM   24  C   UNK N   1      19.254  14.983   5.304  0.00  0.00     0.171 C 
BRANCH  24  25
HETATM   25  O   UNK N   1      18.219  15.785   4.822  0.00  0.00    -0.400 OA
HETATM   26  H   UNK N   1      18.029  15.834   3.873  0.00  0.00     0.209 HD
ENDBRANCH  24  25
ENDBRANCH  20  24
ENDBRANCH  12  17
TORSDOF 5
ENDMDL
MODEL 6
REMARK VINA RESULT:      -5.8      2.548      6.058
REMARK  5 active torsions:
REMARK  status: ('A' for Active; 'I' for Inactive)
REMARK       I    between atoms: C_8  and  N_21 
REMARK    1  A    between atoms: C_13  and  N_12 
REMARK    2  A    between atoms: C_15  and  C_19 
REMARK    3  A    between atoms: C_16  and  C_17 
REMARK    4  A    between atoms: C_17  and  O_18 
REMARK    5  A    between atoms: C_19  and  O_20 
ROOT
HETATM    1  C   UNK N   1      28.065  17.926   6.927  0.00  0.00     0.185 A 
HETATM    2  N   UNK N   1      28.778  16.787   7.146  0.00  0.00    -0.345 N 
ATOM      3  HN  UNK N   1      28.686  16.132   7.923  1.00  0.00     0.167 HD
HETATM    4  C   UNK N   1      29.628  16.720   6.107  0.00  0.00     0.147 A 
HETATM    5  C   UNK N   1      30.606  15.784   5.826  0.00  0.00     0.290 A 
HETATM    6  O   UNK N   1      30.807  14.835   6.563  0.00  0.00    -0.265 OA
HETATM    7  N   UNK N   1      31.356  15.961   4.685  0.00  0.00    -0.154 N 
HETATM    8  C   UNK N   1      31.139  17.039   3.861  0.00  0.00     0.680 A 
HETATM    9  N   UNK N   1      30.171  17.962   4.162  0.00  0.00    -0.174 N 
ATOM     10  HN  UNK N   1      30.009  18.768   3.559  1.00  0.00     0.186 HD
HETATM   11  C   UNK N   1      29.433  17.773   5.286  0.00  0.00     0.157 A 
HETATM   12  N   UNK N   1      28.456  18.547   5.783  0.00  0.00    -0.322 N 
HETATM   13  N   UNK N   1      31.919  17.197   2.699  0.00  0.00    -0.234 N 
HETATM   14  H   UNK N   1      32.058  15.309   4.458  0.00  0.00     0.187 HD
HETATM   15  H   UNK N   1      31.659  17.853   2.013  0.00  0.00     0.174 HD
HETATM   16  H   UNK N   1      32.727  16.648   2.573  0.00  0.00     0.174 HD
ENDROOT
BRANCH  12  17
HETATM   17  C   UNK N   1      27.912  19.829   5.325  0.00  0.00     0.099 C 
HETATM   18  C   UNK N   1      27.386  19.890   3.901  0.00  0.00     0.033 C 
HETATM   19  C   UNK N   1      26.108  20.513   4.453  0.00  0.00     0.019 C 
HETATM   20  C   UNK N   1      26.521  20.110   5.857  0.00  0.00     0.039 C 
BRANCH  19  21
HETATM   21  C   UNK N   1      24.861  19.793   3.984  0.00  0.00     0.169 C 
BRANCH  21  22
HETATM   22  O   UNK N   1      23.988  20.715   3.403  0.00  0.00    -0.400 OA
HETATM   23  H   UNK N   1      23.162  20.993   3.832  0.00  0.00     0.209 HD
ENDBRANCH  21  22
ENDBRANCH  19  21
BRANCH  20  24
HETATM   24  C   UNK N   1      26.531  21.307   6.789  0.00  0.00     0.171 C 
BRANCH  24  25
HETATM   25  O   UNK N   1      25.952  20.953   8.008  0.00  0.00    -0.400 OA
HETATM   26  H   UNK N   1      25.186  21.437   8.354  0.00  0.00     0.209 HD
ENDBRANCH  24  25
ENDBRANCH  20  24
ENDBRANCH  12  17
TORSDOF 5
ENDMDL
MODEL 7
REMARK VINA RESULT:      -5.6      8.549     11.036
REMARK  5 active torsions:
REMARK  status: ('A' for Active; 'I' for Inactive)
REMARK       I    between atoms: C_8  and  N_21 
REMARK    1  A    between atoms: C_13  and  N_12 
REMARK    2  A    between atoms: C_15  and  C_19 
REMARK    3  A    between atoms: C_16  and  C_17 
REMARK    4  A    between atoms: C_17  and  O_18 
REMARK    5  A    between atoms: C_19  and  O_20 
ROOT
HETATM    1  C   UNK N   1      36.851  12.495  13.068  0.00  0.00     0.185 A 
HETATM    2  N   UNK N   1      37.539  13.129  12.079  0.00  0.00    -0.345 N 
ATOM      3  HN  UNK N   1      38.542  13.092  11.892  1.00  0.00     0.167 HD
HETATM    4  C   UNK N   1      36.599  13.816  11.407  0.00  0.00     0.147 A 
HETATM    5  C   UNK N   1      36.731  14.658  10.318  0.00  0.00     0.290 A 
HETATM    6  O   UNK N   1      37.818  14.879   9.814  0.00  0.00    -0.265 OA
HETATM    7  N   UNK N   1      35.592  15.253   9.824  0.00  0.00    -0.154 N 
HETATM    8  C   UNK N   1      34.368  15.015  10.401  0.00  0.00     0.680 A 
HETATM    9  N   UNK N   1      34.259  14.183  11.485  0.00  0.00    -0.174 N 
ATOM     10  HN  UNK N   1      33.355  14.009  11.923  1.00  0.00     0.186 HD
HETATM   11  C   UNK N   1      35.388  13.599  11.960  0.00  0.00     0.157 A 
HETATM   12  N   UNK N   1      35.522  12.773  13.009  0.00  0.00    -0.322 N 
HETATM   13  N   UNK N   1      33.217  15.634   9.875  0.00  0.00    -0.234 N 
HETATM   14  H   UNK N   1      35.656  15.855   9.048  0.00  0.00     0.187 HD
HETATM   15  H   UNK N   1      32.322  15.338  10.157  0.00  0.00     0.174 HD
HETATM   16  H   UNK N   1      33.309  16.365   9.221  0.00  0.00     0.174 HD
ENDROOT
BRANCH  12  17
HETATM   17  C   UNK N   1      34.544  12.282  13.984  0.00  0.00     0.099 C 
HETATM   18  C   UNK N   1      34.130  10.825  13.880  0.00  0.00     0.033 C 
HETATM   19  C   UNK N   1      34.416  10.689  15.372  0.00  0.00     0.019 C 
HETATM   20  C   UNK N   1      35.144  12.021  15.351  0.00  0.00     0.039 C 
BRANCH  19  21
HETATM   21  C   UNK N   1      35.338   9.528  15.684  0.00  0.00     0.169 C 
BRANCH  21  22
HETATM   22  O   UNK N   1      35.031   9.023  16.948  0.00  0.00    -0.400 OA
HETATM   23  H   UNK N   1      34.118   8.876  17.244  0.00  0.00     0.209 HD
ENDBRANCH  21  22
ENDBRANCH  19  21
BRANCH  20  24
HETATM   24  C   UNK N   1      34.571  12.973  16.384  0.00  0.00     0.171 C 
BRANCH  24  25
HETATM   25  O   UNK N   1      35.608  13.684  16.989  0.00  0.00    -0.400 OA
HETATM   26  H   UNK N   1      36.508  13.325  17.014  0.00  0.00     0.209 HD
ENDBRANCH  24  25
ENDBRANCH  20  24
ENDBRANCH  12  17
TORSDOF 5
ENDMDL
MODEL 8
REMARK VINA RESULT:      -5.6      4.884      6.916
REMARK  5 active torsions:
REMARK  status: ('A' for Active; 'I' for Inactive)
REMARK       I    between atoms: C_8  and  N_21 
REMARK    1  A    between atoms: C_13  and  N_12 
REMARK    2  A    between atoms: C_15  and  C_19 
REMARK    3  A    between atoms: C_16  and  C_17 
REMARK    4  A    between atoms: C_17  and  O_18 
REMARK    5  A    between atoms: C_19  and  O_20 
ROOT
HETATM    1  C   UNK N   1      23.407  17.171   5.185  0.00  0.00     0.185 A 
HETATM    2  N   UNK N   1      22.129  16.797   4.903  0.00  0.00    -0.345 N 
ATOM      3  HN  UNK N   1      21.654  15.935   5.176  1.00  0.00     0.167 HD
HETATM    4  C   UNK N   1      21.633  17.819   4.183  0.00  0.00     0.147 A 
HETATM    5  C   UNK N   1      20.385  17.970   3.608  0.00  0.00     0.290 A 
HETATM    6  O   UNK N   1      19.530  17.109   3.711  0.00  0.00    -0.265 OA
HETATM    7  N   UNK N   1      20.138  19.127   2.903  0.00  0.00    -0.154 N 
HETATM    8  C   UNK N   1      21.107  20.093   2.775  0.00  0.00     0.680 A 
HETATM    9  N   UNK N   1      22.341  19.920   3.345  0.00  0.00    -0.174 N 
ATOM     10  HN  UNK N   1      23.068  20.629   3.248  1.00  0.00     0.186 HD
HETATM   11  C   UNK N   1      22.571  18.779   4.042  0.00  0.00     0.157 A 
HETATM   12  N   UNK N   1      23.697  18.392   4.663  0.00  0.00    -0.322 N 
HETATM   13  N   UNK N   1      20.828  21.268   2.050  0.00  0.00    -0.234 N 
HETATM   14  H   UNK N   1      19.257  19.262   2.485  0.00  0.00     0.187 HD
HETATM   15  H   UNK N   1      21.439  22.038   2.101  0.00  0.00     0.174 HD
HETATM   16  H   UNK N   1      20.019  21.319   1.491  0.00  0.00     0.174 HD
ENDROOT
BRANCH  12  17
HETATM   17  C   UNK N   1      25.017  19.023   4.750  0.00  0.00     0.099 C 
HETATM   18  C   UNK N   1      26.139  18.203   5.367  0.00  0.00     0.033 C 
HETATM   19  C   UNK N   1      26.993  18.552   4.152  0.00  0.00     0.019 C 
HETATM   20  C   UNK N   1      25.755  19.049   3.427  0.00  0.00     0.039 C 
BRANCH  19  21
HETATM   21  C   UNK N   1      27.599  17.329   3.496  0.00  0.00     0.169 C 
BRANCH  21  22
HETATM   22  O   UNK N   1      28.974  17.519   3.350  0.00  0.00    -0.400 OA
HETATM   23  H   UNK N   1      29.349  18.165   2.731  0.00  0.00     0.209 HD
ENDBRANCH  21  22
ENDBRANCH  19  21
BRANCH  20  24
HETATM   24  C   UNK N   1      25.940  20.474   2.940  0.00  0.00     0.171 C 
BRANCH  24  25
HETATM   25  O   UNK N   1      24.963  20.772   1.989  0.00  0.00    -0.400 OA
HETATM   26  H   UNK N   1      24.183  21.297   2.226  0.00  0.00     0.209 HD
ENDBRANCH  24  25
ENDBRANCH  20  24
ENDBRANCH  12  17
TORSDOF 5
ENDMDL
MODEL 9
REMARK VINA RESULT:      -5.6      3.871      6.879
REMARK  5 active torsions:
REMARK  status: ('A' for Active; 'I' for Inactive)
REMARK       I    between atoms: C_8  and  N_21 
REMARK    1  A    between atoms: C_13  and  N_12 
REMARK    2  A    between atoms: C_15  and  C_19 
REMARK    3  A    between atoms: C_16  and  C_17 
REMARK    4  A    between atoms: C_17  and  O_18 
REMARK    5  A    between atoms: C_19  and  O_20 
ROOT
HETATM    1  C   UNK N   1      31.642  14.760   6.878  0.00  0.00     0.185 A 
HETATM    2  N   UNK N   1      32.451  13.779   7.364  0.00  0.00    -0.345 N 
ATOM      3  HN  UNK N   1      32.466  12.793   7.099  1.00  0.00     0.167 HD
HETATM    4  C   UNK N   1      33.223  14.401   8.271  0.00  0.00     0.147 A 
HETATM    5  C   UNK N   1      34.209  13.887   9.092  0.00  0.00     0.290 A 
HETATM    6  O   UNK N   1      34.503  12.705   9.068  0.00  0.00    -0.265 OA
HETATM    7  N   UNK N   1      34.847  14.754   9.951  0.00  0.00    -0.154 N 
HETATM    8  C   UNK N   1      34.506  16.085   9.989  0.00  0.00     0.680 A 
HETATM    9  N   UNK N   1      33.518  16.573   9.173  0.00  0.00    -0.174 N 
ATOM     10  HN  UNK N   1      33.255  17.558   9.201  1.00  0.00     0.186 HD
HETATM   11  C   UNK N   1      32.901  15.711   8.326  0.00  0.00     0.157 A 
HETATM   12  N   UNK N   1      31.906  15.959   7.460  0.00  0.00    -0.322 N 
HETATM   13  N   UNK N   1      35.175  16.951  10.875  0.00  0.00    -0.234 N 
HETATM   14  H   UNK N   1      35.555  14.416  10.546  0.00  0.00     0.187 HD
HETATM   15  H   UNK N   1      35.071  17.926  10.788  0.00  0.00     0.174 HD
HETATM   16  H   UNK N   1      35.748  16.579  11.584  0.00  0.00     0.174 HD
ENDROOT
BRANCH  12  17
HETATM   17  C   UNK N   1      31.151  17.184   7.182  0.00  0.00     0.099 C 
HETATM   18  C   UNK N   1      30.252  17.183   5.958  0.00  0.00     0.033 C 
HETATM   19  C   UNK N   1      29.126  17.702   6.846  0.00  0.00     0.019 C 
HETATM   20  C   UNK N   1      29.941  17.354   8.078  0.00  0.00     0.039 C 
BRANCH  19  21
HETATM   21  C   UNK N   1      27.863  16.873   6.730  0.00  0.00     0.169 C 
BRANCH  21  22
HETATM   22  O   UNK N   1      26.828  17.676   6.248  0.00  0.00    -0.400 OA
HETATM   23  H   UNK N   1      26.669  18.576   6.576  0.00  0.00     0.209 HD
ENDBRANCH  21  22
ENDBRANCH  19  21
BRANCH  20  24
HETATM   24  C   UNK N   1      30.105  18.559   8.985  0.00  0.00     0.171 C 
BRANCH  24  25
HETATM   25  O   UNK N   1      29.855  18.186  10.307  0.00  0.00    -0.400 OA
HETATM   26  H   UNK N   1      30.579  17.919  10.893  0.00  0.00     0.209 HD
ENDBRANCH  24  25
ENDBRANCH  20  24
ENDBRANCH  12  17
TORSDOF 5
ENDMDL
