REMARK  7 active torsions:
REMARK  status: ('A' for Active; 'I' for Inactive)
REMARK    1  A    between atoms: C_3  and  O_29 
REMARK    2  A    between atoms: C_6  and  N_7 
REMARK       I    between atoms: N_7  and  C_8 
REMARK    3  A    between atoms: C_8  and  C_10 
REMARK    4  A    between atoms: C_12  and  C_23 
REMARK    5  A    between atoms: C_13  and  N_17 
REMARK    6  A    between atoms: C_20  and  O_22 
REMARK    7  A    between atoms: O_29  and  C_30 
ROOT
HETATM    1  C   UNK N   1       1.047   5.601   0.186  0.00  0.00     0.048 A 
HETATM    2  C   UNK N   1       2.202   4.850   0.053  0.00  0.00     0.036 A 
HETATM    3  C   UNK N   1       2.190   3.450  -0.037  0.00  0.00     0.037 A 
HETATM    4  C   UNK N   1       0.890   2.801  -0.009  0.00  0.00     0.116 A 
HETATM    5  N   UNK N   1      -0.216   3.596   0.116  0.00  0.00    -0.351 N 
ATOM      6  HN  UNK N   1      -1.130   3.144   0.134  1.00  0.00     0.166 HD
HETATM    7  C   UNK N   1      -0.172   4.944   0.217  0.00  0.00     0.106 A 
ENDROOT
BRANCH   1   8
HETATM    8  C   UNK N   1       1.116   7.070   0.265  0.00  0.00     0.257 C 
HETATM    9  N   UNK N   1      -0.027   7.785   0.436  0.00  0.00    -0.323 N 
HETATM   10  H   UNK N   1      -0.849   7.276   0.622  0.00  0.00     0.169 HD
HETATM   11  O   UNK N   1       2.199   7.631   0.157  0.00  0.00    -0.267 OA
BRANCH   9  12
HETATM   12  C   UNK N   1      -0.145   9.199   0.371  0.00  0.00     0.035 A 
HETATM   13  C   UNK N   1       0.911  10.014  -0.071  0.00  0.00     0.032 A 
HETATM   14  C   UNK N   1       0.719  11.384  -0.249  0.00  0.00     0.039 A 
HETATM   15  C   UNK N   1      -0.530  11.958   0.002  0.00  0.00     0.076 A 
HETATM   16  C   UNK N   1      -1.577  11.148   0.475  0.00  0.00     0.039 A 
HETATM   17  C   UNK N   1      -1.384   9.778   0.651  0.00  0.00     0.032 A 
BRANCH  15  18
HETATM   18  O   UNK N   1      -0.709  13.279  -0.253  0.00  0.00    -0.270 OA
BRANCH  18  19
HETATM   19  C   UNK N   1      -1.915  13.951  -0.166  0.00  0.00     0.447 C 
HETATM   20  F   UNK N   1      -2.402  13.894   1.128  0.00  0.00    -0.159 F 
HETATM   21  F   UNK N   1      -1.712  15.273  -0.508  0.00  0.00    -0.159 F 
HETATM   22 Cl   UNK N   1      -3.118  13.265  -1.299  0.00  0.00    -0.014 Cl
ENDBRANCH  18  19
ENDBRANCH  15  18
ENDBRANCH   9  12
ENDBRANCH   1   8
BRANCH   3  23
HETATM   23  C   UNK N   1       3.562   2.849  -0.129  0.00  0.00     0.063 A 
HETATM   24  C   UNK N   1       4.725   3.601  -0.241  0.00  0.00     0.050 A 
HETATM   25  C   UNK N   1       5.747   2.674  -0.257  0.00  0.00     0.109 A 
HETATM   26  N   UNK N   1       5.210   1.445  -0.150  0.00  0.00    -0.311 N 
HETATM   27  N   UNK N   1       3.897   1.554  -0.070  0.00  0.00    -0.300 N 
ATOM     28  HN  UNK N   1       5.734   0.570  -0.134  1.00  0.00     0.186 HD
HETATM   29  H   UNK N   1       3.265   0.803   0.019  0.00  0.00     0.187 HD
ENDBRANCH   3  23
BRANCH   4  30
HETATM   30  N   UNK N   1       0.643   1.387  -0.110  0.00  0.00    -0.364 N 
HETATM   31  C   UNK N   1       1.614   0.353  -0.274  0.00  0.00     0.127 C 
HETATM   32  C   UNK N   1       0.846  -0.946  -0.115  0.00  0.00     0.053 C 
HETATM   33  C   UNK N   1      -0.598  -0.578  -0.399  0.00  0.00     0.137 C 
HETATM   34  C   UNK N   1      -0.708   0.892  -0.063  0.00  0.00     0.156 C 
BRANCH  33  35
HETATM   35  O   UNK N   1      -1.460  -1.325   0.402  0.00  0.00    -0.394 OA
HETATM   36  H   UNK N   1      -2.210  -1.066   0.959  0.00  0.00     0.210 HD
ENDBRANCH  33  35
ENDBRANCH   4  30
TORSDOF 7
