REMARK  1 active torsions:
REMARK  status: ('A' for Active; 'I' for Inactive)
REMARK    1  A    between atoms: B_1  and  O_11 
ROOT
HETATM    1  B   UNK N   1       0.444   0.386   0.000  0.00  0.00     0.532 B 
HETATM    2  C   UNK N   1       1.865  -0.073   0.000  0.00  0.00    -0.024 A 
HETATM    3  C   UNK N   1       3.078   0.614   0.000  0.00  0.00     0.003 A 
HETATM    4  C   UNK N   1       4.260  -0.143  -0.000  0.00  0.00     0.023 A 
HETATM    5  C   UNK N   1       4.194  -1.552  -0.000  0.00  0.00     0.034 A 
HETATM    6  C   UNK N   1       2.948  -2.201  -0.000  0.00  0.00     0.032 A 
HETATM    7  C   UNK N   1       1.795  -1.420   0.000  0.00  0.00    -0.034 A 
HETATM    8  C   UNK N   1       0.373  -1.902   0.000  0.00  0.00     0.184 A 
HETATM    9  O   UNK N   1      -0.489  -0.756   0.000  0.00  0.00    -0.419 OA
HETATM   10 Cl   UNK N   1       5.661  -2.502  -0.000  0.00  0.00    -0.084 Cl
ENDROOT
BRANCH   1  11
HETATM   11  O   UNK N   1       0.019   1.782  -0.000  0.00  0.00    -0.433 OA
HETATM   12  H   UNK N   1       0.681   2.490  -0.000  0.00  0.00     0.185 HD
ENDBRANCH   1  11
TORSDOF 1
