MODEL 1
REMARK VINA RESULT:      -4.9      0.000      0.000
REMARK  17 active torsions:
REMARK  status: ('A' for Active; 'I' for Inactive)
REMARK    1  A    between atoms: O_2  and  C_3 
REMARK    2  A    between atoms: C_3  and  C_4 
REMARK    3  A    between atoms: C_4  and  O_5 
REMARK    4  A    between atoms: O_5  and  C_6 
REMARK    5  A    between atoms: C_6  and  C_7 
REMARK    6  A    between atoms: C_7  and  C_8 
REMARK    7  A    between atoms: C_8  and  C_9 
REMARK    8  A    between atoms: C_9  and  C_10 
REMARK    9  A    between atoms: C_10  and  C_11 
REMARK       I    between atoms: C_11  and  N_13 
REMARK   10  A    between atoms: N_13  and  C_14 
REMARK   11  A    between atoms: C_14  and  C_15 
REMARK   12  A    between atoms: C_15  and  C_16 
REMARK   13  A    between atoms: C_16  and  C_17 
REMARK   14  A    between atoms: C_17  and  C_18 
REMARK   15  A    between atoms: C_18  and  C_19 
REMARK   16  A    between atoms: C_18  and  N_22 
REMARK   17  A    between atoms: C_19  and  O_21 
ROOT
HETATM    1  C   UNK N   1      34.353  17.967   8.344  0.00  0.00     0.217 C 
HETATM    2  O   UNK N   1      34.969  19.020   8.369  0.00  0.00    -0.274 OA
HETATM    3  N   UNK N   1      34.565  17.014   9.288  0.00  0.00    -0.361 N 
HETATM    4  H   UNK N   1      34.042  16.181   9.242  0.00  0.00     0.162 HD
ENDROOT
BRANCH   3   5
HETATM    5  C   UNK N   1      35.526  17.172  10.356  0.00  0.00     0.122 C 
BRANCH   5   6
HETATM    6  C   UNK N   1      35.240  16.182  11.473  0.00  0.00     0.020 C 
BRANCH   6   7
HETATM    7  C   UNK N   1      34.572  14.945  10.906  0.00  0.00     0.004 C 
BRANCH   7   8
HETATM    8  C   UNK N   1      35.042  13.725  11.679  0.00  0.00     0.035 C 
BRANCH   8   9
HETATM    9  C   UNK N   1      36.276  14.051  12.509  0.00  0.00     0.173 C 
BRANCH   9  10
HETATM   10  C   UNK N   1      36.113  13.676  13.959  0.00  0.00     0.163 C 
HETATM   11  O   UNK N   1      35.003  13.414  14.393  0.00  0.00    -0.648 OA
BRANCH  10  12
HETATM   12  O   UNK N   1      37.177  13.623  14.785  0.00  0.00    -0.775 OA
HETATM   13  H   UNK N   1      37.232  14.035  15.625  0.00  0.00     0.167 HD
ENDBRANCH  10  12
ENDBRANCH   9  10
BRANCH   9  14
HETATM   14  N   UNK N   1      37.418  13.347  11.953  0.00  0.00    -0.418 N 
HETATM   15  H   UNK N   1      38.290  13.715  11.571  0.00  0.00     0.150 HD
HETATM   16  H   UNK N   1      37.337  12.330  11.942  0.00  0.00     0.150 HD
ENDBRANCH   9  14
ENDBRANCH   8   9
ENDBRANCH   7   8
ENDBRANCH   6   7
ENDBRANCH   5   6
ENDBRANCH   3   5
BRANCH   1  17
HETATM   17  C   UNK N   1      33.381  17.700   7.238  0.00  0.00     0.103 C 
BRANCH  17  18
HETATM   18  C   UNK N   1      32.822  16.284   7.279  0.00  0.00     0.009 C 
BRANCH  18  19
HETATM   19  C   UNK N   1      31.332  16.268   6.988  0.00  0.00     0.002 C 
BRANCH  19  20
HETATM   20  C   UNK N   1      31.038  17.080   5.740  0.00  0.00     0.026 C 
BRANCH  20  21
HETATM   21  C   UNK N   1      29.592  17.547   5.758  0.00  0.00     0.167 C 
BRANCH  21  22
HETATM   22  O   UNK N   1      28.828  16.682   6.542  0.00  0.00    -0.389 OA
BRANCH  22  23
HETATM   23  C   UNK N   1      27.768  17.456   7.016  0.00  0.00     0.193 C 
BRANCH  23  24
HETATM   24  C   UNK N   1      28.315  18.592   7.859  0.00  0.00     0.193 C 
BRANCH  24  25
HETATM   25  O   UNK N   1      28.256  18.250   9.209  0.00  0.00    -0.394 OA
HETATM   26  C   UNK N   1      29.544  18.488   9.688  0.00  0.00     0.201 C 
ENDBRANCH  24  25
ENDBRANCH  23  24
ENDBRANCH  22  23
ENDBRANCH  21  22
ENDBRANCH  20  21
ENDBRANCH  19  20
ENDBRANCH  18  19
ENDBRANCH  17  18
ENDBRANCH   1  17
TORSDOF 17
ENDMDL
MODEL 2
REMARK VINA RESULT:      -4.8      4.601      7.416
REMARK  17 active torsions:
REMARK  status: ('A' for Active; 'I' for Inactive)
REMARK    1  A    between atoms: O_2  and  C_3 
REMARK    2  A    between atoms: C_3  and  C_4 
REMARK    3  A    between atoms: C_4  and  O_5 
REMARK    4  A    between atoms: O_5  and  C_6 
REMARK    5  A    between atoms: C_6  and  C_7 
REMARK    6  A    between atoms: C_7  and  C_8 
REMARK    7  A    between atoms: C_8  and  C_9 
REMARK    8  A    between atoms: C_9  and  C_10 
REMARK    9  A    between atoms: C_10  and  C_11 
REMARK       I    between atoms: C_11  and  N_13 
REMARK   10  A    between atoms: N_13  and  C_14 
REMARK   11  A    between atoms: C_14  and  C_15 
REMARK   12  A    between atoms: C_15  and  C_16 
REMARK   13  A    between atoms: C_16  and  C_17 
REMARK   14  A    between atoms: C_17  and  C_18 
REMARK   15  A    between atoms: C_18  and  C_19 
REMARK   16  A    between atoms: C_18  and  N_22 
REMARK   17  A    between atoms: C_19  and  O_21 
ROOT
HETATM    1  C   UNK N   1      29.129  16.828   4.146  0.00  0.00     0.217 C 
HETATM    2  O   UNK N   1      28.899  15.638   4.017  0.00  0.00    -0.274 OA
HETATM    3  N   UNK N   1      30.339  17.344   3.810  0.00  0.00    -0.361 N 
HETATM    4  H   UNK N   1      30.485  18.312   3.917  0.00  0.00     0.162 HD
ENDROOT
BRANCH   3   5
HETATM    5  C   UNK N   1      31.421  16.532   3.302  0.00  0.00     0.122 C 
BRANCH   5   6
HETATM    6  C   UNK N   1      32.759  17.084   3.766  0.00  0.00     0.020 C 
BRANCH   6   7
HETATM    7  C   UNK N   1      32.612  17.697   5.144  0.00  0.00     0.004 C 
BRANCH   7   8
HETATM    8  C   UNK N   1      33.852  17.387   5.964  0.00  0.00     0.035 C 
BRANCH   8   9
HETATM    9  C   UNK N   1      33.493  17.169   7.428  0.00  0.00     0.173 C 
BRANCH   9  10
HETATM   10  C   UNK N   1      34.425  17.894   8.364  0.00  0.00     0.163 C 
HETATM   11  O   UNK N   1      34.571  17.488   9.505  0.00  0.00    -0.648 OA
BRANCH  10  12
HETATM   12  O   UNK N   1      35.103  18.987   7.957  0.00  0.00    -0.775 OA
HETATM   13  H   UNK N   1      35.784  18.993   7.314  0.00  0.00     0.167 HD
ENDBRANCH  10  12
ENDBRANCH   9  10
BRANCH   9  14
HETATM   14  N   UNK N   1      32.132  17.624   7.653  0.00  0.00    -0.418 N 
HETATM   15  H   UNK N   1      31.635  18.420   7.253  0.00  0.00     0.150 HD
HETATM   16  H   UNK N   1      31.590  17.062   8.310  0.00  0.00     0.150 HD
ENDBRANCH   9  14
ENDBRANCH   8   9
ENDBRANCH   7   8
ENDBRANCH   6   7
ENDBRANCH   5   6
ENDBRANCH   3   5
BRANCH   1  17
HETATM   17  C   UNK N   1      28.081  17.730   4.720  0.00  0.00     0.103 C 
BRANCH  17  18
HETATM   18  C   UNK N   1      28.517  19.189   4.750  0.00  0.00     0.009 C 
BRANCH  18  19
HETATM   19  C   UNK N   1      27.328  20.120   4.908  0.00  0.00     0.002 C 
BRANCH  19  20
HETATM   20  C   UNK N   1      26.237  19.740   3.924  0.00  0.00     0.026 C 
BRANCH  20  21
HETATM   21  C   UNK N   1      26.205  20.739   2.780  0.00  0.00     0.167 C 
BRANCH  21  22
HETATM   22  O   UNK N   1      24.984  20.648   2.110  0.00  0.00    -0.389 OA
BRANCH  22  23
HETATM   23  C   UNK N   1      24.016  20.600   3.115  0.00  0.00     0.193 C 
BRANCH  23  24
HETATM   24  C   UNK N   1      22.665  20.301   2.495  0.00  0.00     0.193 C 
BRANCH  24  25
HETATM   25  O   UNK N   1      21.764  21.317   2.811  0.00  0.00    -0.394 OA
HETATM   26  C   UNK N   1      20.550  20.660   3.009  0.00  0.00     0.201 C 
ENDBRANCH  24  25
ENDBRANCH  23  24
ENDBRANCH  22  23
ENDBRANCH  21  22
ENDBRANCH  20  21
ENDBRANCH  19  20
ENDBRANCH  18  19
ENDBRANCH  17  18
ENDBRANCH   1  17
TORSDOF 17
ENDMDL
MODEL 3
REMARK VINA RESULT:      -4.8      3.597      6.846
REMARK  17 active torsions:
REMARK  status: ('A' for Active; 'I' for Inactive)
REMARK    1  A    between atoms: O_2  and  C_3 
REMARK    2  A    between atoms: C_3  and  C_4 
REMARK    3  A    between atoms: C_4  and  O_5 
REMARK    4  A    between atoms: O_5  and  C_6 
REMARK    5  A    between atoms: C_6  and  C_7 
REMARK    6  A    between atoms: C_7  and  C_8 
REMARK    7  A    between atoms: C_8  and  C_9 
REMARK    8  A    between atoms: C_9  and  C_10 
REMARK    9  A    between atoms: C_10  and  C_11 
REMARK       I    between atoms: C_11  and  N_13 
REMARK   10  A    between atoms: N_13  and  C_14 
REMARK   11  A    between atoms: C_14  and  C_15 
REMARK   12  A    between atoms: C_15  and  C_16 
REMARK   13  A    between atoms: C_16  and  C_17 
REMARK   14  A    between atoms: C_17  and  C_18 
REMARK   15  A    between atoms: C_18  and  C_19 
REMARK   16  A    between atoms: C_18  and  N_22 
REMARK   17  A    between atoms: C_19  and  O_21 
ROOT
HETATM    1  C   UNK N   1      37.009  11.349  13.174  0.00  0.00     0.217 C 
HETATM    2  O   UNK N   1      37.908  10.951  13.895  0.00  0.00    -0.274 OA
HETATM    3  N   UNK N   1      35.748  10.859  13.298  0.00  0.00    -0.361 N 
HETATM    4  H   UNK N   1      35.045  11.212  12.705  0.00  0.00     0.162 HD
ENDROOT
BRANCH   3   5
HETATM    5  C   UNK N   1      35.396   9.842  14.263  0.00  0.00     0.122 C 
BRANCH   5   6
HETATM    6  C   UNK N   1      34.290  10.343  15.177  0.00  0.00     0.020 C 
BRANCH   6   7
HETATM    7  C   UNK N   1      34.719  10.207  16.625  0.00  0.00     0.004 C 
BRANCH   7   8
HETATM    8  C   UNK N   1      35.790  11.241  16.928  0.00  0.00     0.035 C 
BRANCH   8   9
HETATM    9  C   UNK N   1      35.202  12.645  16.935  0.00  0.00     0.173 C 
BRANCH   9  10
HETATM   10  C   UNK N   1      35.231  13.276  18.302  0.00  0.00     0.163 C 
HETATM   11  O   UNK N   1      35.342  14.486  18.406  0.00  0.00    -0.648 OA
BRANCH  10  12
HETATM   12  O   UNK N   1      35.133  12.521  19.416  0.00  0.00    -0.775 OA
HETATM   13  H   UNK N   1      35.857  12.187  19.908  0.00  0.00     0.167 HD
ENDBRANCH  10  12
ENDBRANCH   9  10
BRANCH   9  14
HETATM   14  N   UNK N   1      35.947  13.474  16.004  0.00  0.00    -0.418 N 
HETATM   15  H   UNK N   1      36.623  13.206  15.288  0.00  0.00     0.150 HD
HETATM   16  H   UNK N   1      35.769  14.476  16.076  0.00  0.00     0.150 HD
ENDBRANCH   9  14
ENDBRANCH   8   9
ENDBRANCH   7   8
ENDBRANCH   6   7
ENDBRANCH   5   6
ENDBRANCH   3   5
BRANCH   1  17
HETATM   17  C   UNK N   1      37.301  12.360  12.109  0.00  0.00     0.103 C 
BRANCH  17  18
HETATM   18  C   UNK N   1      36.451  13.617  12.246  0.00  0.00     0.009 C 
BRANCH  18  19
HETATM   19  C   UNK N   1      35.823  14.007  10.920  0.00  0.00     0.002 C 
BRANCH  19  20
HETATM   20  C   UNK N   1      36.335  15.368  10.484  0.00  0.00     0.026 C 
BRANCH  20  21
HETATM   21  C   UNK N   1      35.411  16.456  11.004  0.00  0.00     0.167 C 
BRANCH  21  22
HETATM   22  O   UNK N   1      35.458  17.560  10.152  0.00  0.00    -0.389 OA
BRANCH  22  23
HETATM   23  C   UNK N   1      34.673  17.209   9.052  0.00  0.00     0.193 C 
BRANCH  23  24
HETATM   24  C   UNK N   1      34.486  18.423   8.163  0.00  0.00     0.193 C 
BRANCH  24  25
HETATM   25  O   UNK N   1      34.451  18.028   6.826  0.00  0.00    -0.394 OA
HETATM   26  C   UNK N   1      33.170  17.504   6.649  0.00  0.00     0.201 C 
ENDBRANCH  24  25
ENDBRANCH  23  24
ENDBRANCH  22  23
ENDBRANCH  21  22
ENDBRANCH  20  21
ENDBRANCH  19  20
ENDBRANCH  18  19
ENDBRANCH  17  18
ENDBRANCH   1  17
TORSDOF 17
ENDMDL
MODEL 4
REMARK VINA RESULT:      -4.8     11.407     14.779
REMARK  17 active torsions:
REMARK  status: ('A' for Active; 'I' for Inactive)
REMARK    1  A    between atoms: O_2  and  C_3 
REMARK    2  A    between atoms: C_3  and  C_4 
REMARK    3  A    between atoms: C_4  and  O_5 
REMARK    4  A    between atoms: O_5  and  C_6 
REMARK    5  A    between atoms: C_6  and  C_7 
REMARK    6  A    between atoms: C_7  and  C_8 
REMARK    7  A    between atoms: C_8  and  C_9 
REMARK    8  A    between atoms: C_9  and  C_10 
REMARK    9  A    between atoms: C_10  and  C_11 
REMARK       I    between atoms: C_11  and  N_13 
REMARK   10  A    between atoms: N_13  and  C_14 
REMARK   11  A    between atoms: C_14  and  C_15 
REMARK   12  A    between atoms: C_15  and  C_16 
REMARK   13  A    between atoms: C_16  and  C_17 
REMARK   14  A    between atoms: C_17  and  C_18 
REMARK   15  A    between atoms: C_18  and  C_19 
REMARK   16  A    between atoms: C_18  and  N_22 
REMARK   17  A    between atoms: C_19  and  O_21 
ROOT
HETATM    1  C   UNK N   1      20.767  17.673   7.316  0.00  0.00     0.217 C 
HETATM    2  O   UNK N   1      20.710  18.842   7.656  0.00  0.00    -0.274 OA
HETATM    3  N   UNK N   1      21.648  17.267   6.366  0.00  0.00    -0.361 N 
HETATM    4  H   UNK N   1      21.674  16.312   6.124  0.00  0.00     0.162 HD
ENDROOT
BRANCH   3   5
HETATM    5  C   UNK N   1      22.550  18.177   5.696  0.00  0.00     0.122 C 
BRANCH   5   6
HETATM    6  C   UNK N   1      21.918  18.699   4.417  0.00  0.00     0.020 C 
BRANCH   6   7
HETATM    7  C   UNK N   1      21.985  17.636   3.339  0.00  0.00     0.004 C 
BRANCH   7   8
HETATM    8  C   UNK N   1      20.696  17.659   2.535  0.00  0.00     0.035 C 
BRANCH   8   9
HETATM    9  C   UNK N   1      20.108  19.062   2.494  0.00  0.00     0.173 C 
BRANCH   9  10
HETATM   10  C   UNK N   1      20.695  19.903   1.390  0.00  0.00     0.163 C 
HETATM   11  O   UNK N   1      21.313  20.918   1.668  0.00  0.00    -0.648 OA
BRANCH  10  12
HETATM   12  O   UNK N   1      20.550  19.547   0.097  0.00  0.00    -0.775 OA
HETATM   13  H   UNK N   1      19.992  18.863  -0.216  0.00  0.00     0.167 HD
ENDBRANCH  10  12
ENDBRANCH   9  10
BRANCH   9  14
HETATM   14  N   UNK N   1      18.670  18.966   2.316  0.00  0.00    -0.418 N 
HETATM   15  H   UNK N   1      17.952  18.638   2.962  0.00  0.00     0.150 HD
HETATM   16  H   UNK N   1      18.324  19.273   1.406  0.00  0.00     0.150 HD
ENDBRANCH   9  14
ENDBRANCH   8   9
ENDBRANCH   7   8
ENDBRANCH   6   7
ENDBRANCH   5   6
ENDBRANCH   3   5
BRANCH   1  17
HETATM   17  C   UNK N   1      19.827  16.676   7.919  0.00  0.00     0.103 C 
BRANCH  17  18
HETATM   18  C   UNK N   1      20.545  15.439   8.444  0.00  0.00     0.009 C 
BRANCH  18  19
HETATM   19  C   UNK N   1      20.489  14.299   7.443  0.00  0.00     0.002 C 
BRANCH  19  20
HETATM   20  C   UNK N   1      21.746  13.454   7.547  0.00  0.00     0.026 C 
BRANCH  20  21
HETATM   21  C   UNK N   1      21.616  12.479   8.705  0.00  0.00     0.167 C 
BRANCH  21  22
HETATM   22  O   UNK N   1      22.793  11.740   8.831  0.00  0.00    -0.389 OA
BRANCH  22  23
HETATM   23  C   UNK N   1      23.156  11.855  10.174  0.00  0.00     0.193 C 
BRANCH  23  24
HETATM   24  C   UNK N   1      21.932  12.209  10.995  0.00  0.00     0.193 C 
BRANCH  24  25
HETATM   25  O   UNK N   1      22.114  11.800  12.316  0.00  0.00    -0.394 OA
HETATM   26  C   UNK N   1      23.485  11.934  12.537  0.00  0.00     0.201 C 
ENDBRANCH  24  25
ENDBRANCH  23  24
ENDBRANCH  22  23
ENDBRANCH  21  22
ENDBRANCH  20  21
ENDBRANCH  19  20
ENDBRANCH  18  19
ENDBRANCH  17  18
ENDBRANCH   1  17
TORSDOF 17
ENDMDL
MODEL 5
REMARK VINA RESULT:      -4.8      3.222      8.786
REMARK  17 active torsions:
REMARK  status: ('A' for Active; 'I' for Inactive)
REMARK    1  A    between atoms: O_2  and  C_3 
REMARK    2  A    between atoms: C_3  and  C_4 
REMARK    3  A    between atoms: C_4  and  O_5 
REMARK    4  A    between atoms: O_5  and  C_6 
REMARK    5  A    between atoms: C_6  and  C_7 
REMARK    6  A    between atoms: C_7  and  C_8 
REMARK    7  A    between atoms: C_8  and  C_9 
REMARK    8  A    between atoms: C_9  and  C_10 
REMARK    9  A    between atoms: C_10  and  C_11 
REMARK       I    between atoms: C_11  and  N_13 
REMARK   10  A    between atoms: N_13  and  C_14 
REMARK   11  A    between atoms: C_14  and  C_15 
REMARK   12  A    between atoms: C_15  and  C_16 
REMARK   13  A    between atoms: C_16  and  C_17 
REMARK   14  A    between atoms: C_17  and  C_18 
REMARK   15  A    between atoms: C_18  and  C_19 
REMARK   16  A    between atoms: C_18  and  N_22 
REMARK   17  A    between atoms: C_19  and  O_21 
ROOT
HETATM    1  C   UNK N   1      35.020  13.782  11.188  0.00  0.00     0.217 C 
HETATM    2  O   UNK N   1      34.199  14.582  11.603  0.00  0.00    -0.274 OA
HETATM    3  N   UNK N   1      34.825  13.132  10.012  0.00  0.00    -0.361 N 
HETATM    4  H   UNK N   1      35.515  12.500   9.703  0.00  0.00     0.162 HD
ENDROOT
BRANCH   3   5
HETATM    5  C   UNK N   1      33.648  13.328   9.195  0.00  0.00     0.122 C 
BRANCH   5   6
HETATM    6  C   UNK N   1      33.924  14.357   8.112  0.00  0.00     0.020 C 
BRANCH   6   7
HETATM    7  C   UNK N   1      32.728  15.277   7.960  0.00  0.00     0.004 C 
BRANCH   7   8
HETATM    8  C   UNK N   1      32.923  16.499   8.840  0.00  0.00     0.035 C 
BRANCH   8   9
HETATM    9  C   UNK N   1      34.382  16.936   8.845  0.00  0.00     0.173 C 
BRANCH   9  10
HETATM   10  C   UNK N   1      34.624  18.146   7.980  0.00  0.00     0.163 C 
HETATM   11  O   UNK N   1      35.071  19.166   8.480  0.00  0.00    -0.648 OA
BRANCH  10  12
HETATM   12  O   UNK N   1      34.357  18.118   6.658  0.00  0.00    -0.775 OA
HETATM   13  H   UNK N   1      34.798  18.626   6.006  0.00  0.00     0.167 HD
ENDBRANCH  10  12
ENDBRANCH   9  10
BRANCH   9  14
HETATM   14  N   UNK N   1      34.783  17.230  10.210  0.00  0.00    -0.418 N 
HETATM   15  H   UNK N   1      35.422  17.941  10.563  0.00  0.00     0.150 HD
HETATM   16  H   UNK N   1      34.361  16.634  10.923  0.00  0.00     0.150 HD
ENDBRANCH   9  14
ENDBRANCH   8   9
ENDBRANCH   7   8
ENDBRANCH   6   7
ENDBRANCH   5   6
ENDBRANCH   3   5
BRANCH   1  17
HETATM   17  C   UNK N   1      36.239  13.477  12.001  0.00  0.00     0.103 C 
BRANCH  17  18
HETATM   18  C   UNK N   1      36.244  12.050  12.535  0.00  0.00     0.009 C 
BRANCH  18  19
HETATM   19  C   UNK N   1      37.660  11.550  12.764  0.00  0.00     0.002 C 
BRANCH  19  20
HETATM   20  C   UNK N   1      37.924  11.404  14.252  0.00  0.00     0.026 C 
BRANCH  20  21
HETATM   21  C   UNK N   1      36.730  10.748  14.925  0.00  0.00     0.167 C 
BRANCH  21  22
HETATM   22  O   UNK N   1      36.467  11.383  16.139  0.00  0.00    -0.389 OA
BRANCH  22  23
HETATM   23  C   UNK N   1      35.078  11.512  16.193  0.00  0.00     0.193 C 
BRANCH  23  24
HETATM   24  C   UNK N   1      34.713  12.984  16.220  0.00  0.00     0.193 C 
BRANCH  24  25
HETATM   25  O   UNK N   1      35.731  13.712  16.834  0.00  0.00    -0.394 OA
HETATM   26  C   UNK N   1      35.234  14.006  18.104  0.00  0.00     0.201 C 
ENDBRANCH  24  25
ENDBRANCH  23  24
ENDBRANCH  22  23
ENDBRANCH  21  22
ENDBRANCH  20  21
ENDBRANCH  19  20
ENDBRANCH  18  19
ENDBRANCH  17  18
ENDBRANCH   1  17
TORSDOF 17
ENDMDL
MODEL 6
REMARK VINA RESULT:      -4.7      3.637      9.069
REMARK  17 active torsions:
REMARK  status: ('A' for Active; 'I' for Inactive)
REMARK    1  A    between atoms: O_2  and  C_3 
REMARK    2  A    between atoms: C_3  and  C_4 
REMARK    3  A    between atoms: C_4  and  O_5 
REMARK    4  A    between atoms: O_5  and  C_6 
REMARK    5  A    between atoms: C_6  and  C_7 
REMARK    6  A    between atoms: C_7  and  C_8 
REMARK    7  A    between atoms: C_8  and  C_9 
REMARK    8  A    between atoms: C_9  and  C_10 
REMARK    9  A    between atoms: C_10  and  C_11 
REMARK       I    between atoms: C_11  and  N_13 
REMARK   10  A    between atoms: N_13  and  C_14 
REMARK   11  A    between atoms: C_14  and  C_15 
REMARK   12  A    between atoms: C_15  and  C_16 
REMARK   13  A    between atoms: C_16  and  C_17 
REMARK   14  A    between atoms: C_17  and  C_18 
REMARK   15  A    between atoms: C_18  and  C_19 
REMARK   16  A    between atoms: C_18  and  N_22 
REMARK   17  A    between atoms: C_19  and  O_21 
ROOT
HETATM    1  C   UNK N   1      35.056  11.897  11.145  0.00  0.00     0.217 C 
HETATM    2  O   UNK N   1      36.234  11.759  10.860  0.00  0.00    -0.274 OA
HETATM    3  N   UNK N   1      34.610  13.043  11.720  0.00  0.00    -0.361 N 
HETATM    4  H   UNK N   1      33.650  13.124  11.926  0.00  0.00     0.162 HD
ENDROOT
BRANCH   3   5
HETATM    5  C   UNK N   1      35.483  14.150  12.041  0.00  0.00     0.122 C 
BRANCH   5   6
HETATM    6  C   UNK N   1      34.971  15.429  11.399  0.00  0.00     0.020 C 
BRANCH   6   7
HETATM    7  C   UNK N   1      35.744  15.711  10.126  0.00  0.00     0.004 C 
BRANCH   7   8
HETATM    8  C   UNK N   1      34.765  15.951   8.990  0.00  0.00     0.035 C 
BRANCH   8   9
HETATM    9  C   UNK N   1      34.109  17.319   9.121  0.00  0.00     0.173 C 
BRANCH   9  10
HETATM   10  C   UNK N   1      34.647  18.315   8.127  0.00  0.00     0.163 C 
HETATM   11  O   UNK N   1      35.311  19.260   8.518  0.00  0.00    -0.648 OA
BRANCH  10  12
HETATM   12  O   UNK N   1      34.406  18.174   6.807  0.00  0.00    -0.775 OA
HETATM   13  H   UNK N   1      33.613  18.420   6.372  0.00  0.00     0.167 HD
ENDBRANCH  10  12
ENDBRANCH   9  10
BRANCH   9  14
HETATM   14  N   UNK N   1      32.676  17.174   8.934  0.00  0.00    -0.418 N 
HETATM   15  H   UNK N   1      32.073  17.546   8.199  0.00  0.00     0.150 HD
HETATM   16  H   UNK N   1      32.199  16.618   9.644  0.00  0.00     0.150 HD
ENDBRANCH   9  14
ENDBRANCH   8   9
ENDBRANCH   7   8
ENDBRANCH   6   7
ENDBRANCH   5   6
ENDBRANCH   3   5
BRANCH   1  17
HETATM   17  C   UNK N   1      34.095  10.777  10.899  0.00  0.00     0.103 C 
BRANCH  17  18
HETATM   18  C   UNK N   1      33.889   9.902  12.129  0.00  0.00     0.009 C 
BRANCH  18  19
HETATM   19  C   UNK N   1      34.697  10.408  13.311  0.00  0.00     0.002 C 
BRANCH  19  20
HETATM   20  C   UNK N   1      33.773  10.729  14.471  0.00  0.00     0.026 C 
BRANCH  20  21
HETATM   21  C   UNK N   1      34.581  10.855  15.752  0.00  0.00     0.167 C 
BRANCH  21  22
HETATM   22  O   UNK N   1      34.693  12.200  16.107  0.00  0.00    -0.389 OA
BRANCH  22  23
HETATM   23  C   UNK N   1      35.219  12.196  17.400  0.00  0.00     0.193 C 
BRANCH  23  24
HETATM   24  C   UNK N   1      35.155  13.600  17.970  0.00  0.00     0.193 C 
BRANCH  24  25
HETATM   25  O   UNK N   1      35.112  13.543  19.363  0.00  0.00    -0.394 OA
HETATM   26  C   UNK N   1      35.397  12.212  19.668  0.00  0.00     0.201 C 
ENDBRANCH  24  25
ENDBRANCH  23  24
ENDBRANCH  22  23
ENDBRANCH  21  22
ENDBRANCH  20  21
ENDBRANCH  19  20
ENDBRANCH  18  19
ENDBRANCH  17  18
ENDBRANCH   1  17
TORSDOF 17
ENDMDL
MODEL 7
REMARK VINA RESULT:      -4.7      4.212      9.457
REMARK  17 active torsions:
REMARK  status: ('A' for Active; 'I' for Inactive)
REMARK    1  A    between atoms: O_2  and  C_3 
REMARK    2  A    between atoms: C_3  and  C_4 
REMARK    3  A    between atoms: C_4  and  O_5 
REMARK    4  A    between atoms: O_5  and  C_6 
REMARK    5  A    between atoms: C_6  and  C_7 
REMARK    6  A    between atoms: C_7  and  C_8 
REMARK    7  A    between atoms: C_8  and  C_9 
REMARK    8  A    between atoms: C_9  and  C_10 
REMARK    9  A    between atoms: C_10  and  C_11 
REMARK       I    between atoms: C_11  and  N_13 
REMARK   10  A    between atoms: N_13  and  C_14 
REMARK   11  A    between atoms: C_14  and  C_15 
REMARK   12  A    between atoms: C_15  and  C_16 
REMARK   13  A    between atoms: C_16  and  C_17 
REMARK   14  A    between atoms: C_17  and  C_18 
REMARK   15  A    between atoms: C_18  and  C_19 
REMARK   16  A    between atoms: C_18  and  N_22 
REMARK   17  A    between atoms: C_19  and  O_21 
ROOT
HETATM    1  C   UNK N   1      28.637  16.407   5.881  0.00  0.00     0.217 C 
HETATM    2  O   UNK N   1      28.714  15.279   5.423  0.00  0.00    -0.274 OA
HETATM    3  N   UNK N   1      27.440  17.040   5.974  0.00  0.00    -0.361 N 
HETATM    4  H   UNK N   1      27.415  17.947   6.359  0.00  0.00     0.162 HD
ENDROOT
BRANCH   3   5
HETATM    5  C   UNK N   1      26.201  16.441   5.531  0.00  0.00     0.122 C 
BRANCH   5   6
HETATM    6  C   UNK N   1      25.326  17.480   4.850  0.00  0.00     0.020 C 
BRANCH   6   7
HETATM    7  C   UNK N   1      26.143  18.255   3.836  0.00  0.00     0.004 C 
BRANCH   7   8
HETATM    8  C   UNK N   1      25.840  19.736   3.977  0.00  0.00     0.035 C 
BRANCH   8   9
HETATM    9  C   UNK N   1      27.062  20.494   4.479  0.00  0.00     0.173 C 
BRANCH   9  10
HETATM   10  C   UNK N   1      27.046  20.690   5.973  0.00  0.00     0.163 C 
HETATM   11  O   UNK N   1      27.650  19.910   6.691  0.00  0.00    -0.648 OA
BRANCH  10  12
HETATM   12  O   UNK N   1      26.374  21.719   6.529  0.00  0.00    -0.775 OA
HETATM   13  H   UNK N   1      25.803  22.304   6.070  0.00  0.00     0.167 HD
ENDBRANCH  10  12
ENDBRANCH   9  10
BRANCH   9  14
HETATM   14  N   UNK N   1      28.259  19.763   4.101  0.00  0.00    -0.418 N 
HETATM   15  H   UNK N   1      28.476  18.771   4.200  0.00  0.00     0.150 HD
HETATM   16  H   UNK N   1      28.993  20.326   3.671  0.00  0.00     0.150 HD
ENDBRANCH   9  14
ENDBRANCH   8   9
ENDBRANCH   7   8
ENDBRANCH   6   7
ENDBRANCH   5   6
ENDBRANCH   3   5
BRANCH   1  17
HETATM   17  C   UNK N   1      29.880  17.122   6.309  0.00  0.00     0.103 C 
BRANCH  17  18
HETATM   18  C   UNK N   1      31.140  16.525   5.695  0.00  0.00     0.009 C 
BRANCH  18  19
HETATM   19  C   UNK N   1      31.792  17.489   4.719  0.00  0.00     0.002 C 
BRANCH  19  20
HETATM   20  C   UNK N   1      33.299  17.472   4.901  0.00  0.00     0.026 C 
BRANCH  20  21
HETATM   21  C   UNK N   1      33.639  17.535   6.381  0.00  0.00     0.167 C 
BRANCH  21  22
HETATM   22  O   UNK N   1      34.759  16.744   6.640  0.00  0.00    -0.389 OA
BRANCH  22  23
HETATM   23  C   UNK N   1      34.572  16.255   7.934  0.00  0.00     0.193 C 
BRANCH  23  24
HETATM   24  C   UNK N   1      34.228  17.407   8.859  0.00  0.00     0.193 C 
BRANCH  24  25
HETATM   25  O   UNK N   1      35.310  17.681   9.695  0.00  0.00    -0.394 OA
HETATM   26  C   UNK N   1      35.316  16.633  10.615  0.00  0.00     0.201 C 
ENDBRANCH  24  25
ENDBRANCH  23  24
ENDBRANCH  22  23
ENDBRANCH  21  22
ENDBRANCH  20  21
ENDBRANCH  19  20
ENDBRANCH  18  19
ENDBRANCH  17  18
ENDBRANCH   1  17
TORSDOF 17
ENDMDL
MODEL 8
REMARK VINA RESULT:      -4.7      2.847      4.348
REMARK  17 active torsions:
REMARK  status: ('A' for Active; 'I' for Inactive)
REMARK    1  A    between atoms: O_2  and  C_3 
REMARK    2  A    between atoms: C_3  and  C_4 
REMARK    3  A    between atoms: C_4  and  O_5 
REMARK    4  A    between atoms: O_5  and  C_6 
REMARK    5  A    between atoms: C_6  and  C_7 
REMARK    6  A    between atoms: C_7  and  C_8 
REMARK    7  A    between atoms: C_8  and  C_9 
REMARK    8  A    between atoms: C_9  and  C_10 
REMARK    9  A    between atoms: C_10  and  C_11 
REMARK       I    between atoms: C_11  and  N_13 
REMARK   10  A    between atoms: N_13  and  C_14 
REMARK   11  A    between atoms: C_14  and  C_15 
REMARK   12  A    between atoms: C_15  and  C_16 
REMARK   13  A    between atoms: C_16  and  C_17 
REMARK   14  A    between atoms: C_17  and  C_18 
REMARK   15  A    between atoms: C_18  and  C_19 
REMARK   16  A    between atoms: C_18  and  N_22 
REMARK   17  A    between atoms: C_19  and  O_21 
ROOT
HETATM    1  C   UNK N   1      31.168  17.048   8.440  0.00  0.00     0.217 C 
HETATM    2  O   UNK N   1      31.206  16.161   9.276  0.00  0.00    -0.274 OA
HETATM    3  N   UNK N   1      31.511  16.802   7.149  0.00  0.00    -0.361 N 
HETATM    4  H   UNK N   1      31.457  17.541   6.499  0.00  0.00     0.162 HD
ENDROOT
BRANCH   3   5
HETATM    5  C   UNK N   1      31.950  15.504   6.690  0.00  0.00     0.122 C 
BRANCH   5   6
HETATM    6  C   UNK N   1      33.457  15.495   6.497  0.00  0.00     0.020 C 
BRANCH   6   7
HETATM    7  C   UNK N   1      34.116  14.739   7.633  0.00  0.00     0.004 C 
BRANCH   7   8
HETATM    8  C   UNK N   1      34.701  15.733   8.621  0.00  0.00     0.035 C 
BRANCH   8   9
HETATM    9  C   UNK N   1      34.813  15.116  10.009  0.00  0.00     0.173 C 
BRANCH   9  10
HETATM   10  C   UNK N   1      35.725  15.900  10.917  0.00  0.00     0.163 C 
HETATM   11  O   UNK N   1      35.256  16.511  11.862  0.00  0.00    -0.648 OA
BRANCH  10  12
HETATM   12  O   UNK N   1      37.056  15.933  10.700  0.00  0.00    -0.775 OA
HETATM   13  H   UNK N   1      37.649  15.228  10.869  0.00  0.00     0.167 HD
ENDBRANCH  10  12
ENDBRANCH   9  10
BRANCH   9  14
HETATM   14  N   UNK N   1      33.488  15.042  10.601  0.00  0.00    -0.418 N 
HETATM   15  H   UNK N   1      33.215  14.881  11.570  0.00  0.00     0.150 HD
HETATM   16  H   UNK N   1      32.714  15.171   9.948  0.00  0.00     0.150 HD
ENDBRANCH   9  14
ENDBRANCH   8   9
ENDBRANCH   7   8
ENDBRANCH   6   7
ENDBRANCH   5   6
ENDBRANCH   3   5
BRANCH   1  17
HETATM   17  C   UNK N   1      30.780  18.435   8.845  0.00  0.00     0.103 C 
BRANCH  17  18
HETATM   18  C   UNK N   1      29.535  18.462   9.723  0.00  0.00     0.009 C 
BRANCH  18  19
HETATM   19  C   UNK N   1      28.288  18.124   8.926  0.00  0.00     0.002 C 
BRANCH  19  20
HETATM   20  C   UNK N   1      28.205  19.006   7.693  0.00  0.00     0.026 C 
BRANCH  20  21
HETATM   21  C   UNK N   1      28.045  18.142   6.453  0.00  0.00     0.167 C 
BRANCH  21  22
HETATM   22  O   UNK N   1      27.935  18.956   5.324  0.00  0.00    -0.389 OA
BRANCH  22  23
HETATM   23  C   UNK N   1      27.513  20.197   5.806  0.00  0.00     0.193 C 
BRANCH  23  24
HETATM   24  C   UNK N   1      26.526  20.804   4.827  0.00  0.00     0.193 C 
BRANCH  24  25
HETATM   25  O   UNK N   1      26.806  20.358   3.537  0.00  0.00    -0.394 OA
HETATM   26  C   UNK N   1      25.556  20.234   2.930  0.00  0.00     0.201 C 
ENDBRANCH  24  25
ENDBRANCH  23  24
ENDBRANCH  22  23
ENDBRANCH  21  22
ENDBRANCH  20  21
ENDBRANCH  19  20
ENDBRANCH  18  19
ENDBRANCH  17  18
ENDBRANCH   1  17
TORSDOF 17
ENDMDL
MODEL 9
REMARK VINA RESULT:      -4.6     10.109     12.010
REMARK  17 active torsions:
REMARK  status: ('A' for Active; 'I' for Inactive)
REMARK    1  A    between atoms: O_2  and  C_3 
REMARK    2  A    between atoms: C_3  and  C_4 
REMARK    3  A    between atoms: C_4  and  O_5 
REMARK    4  A    between atoms: O_5  and  C_6 
REMARK    5  A    between atoms: C_6  and  C_7 
REMARK    6  A    between atoms: C_7  and  C_8 
REMARK    7  A    between atoms: C_8  and  C_9 
REMARK    8  A    between atoms: C_9  and  C_10 
REMARK    9  A    between atoms: C_10  and  C_11 
REMARK       I    between atoms: C_11  and  N_13 
REMARK   10  A    between atoms: N_13  and  C_14 
REMARK   11  A    between atoms: C_14  and  C_15 
REMARK   12  A    between atoms: C_15  and  C_16 
REMARK   13  A    between atoms: C_16  and  C_17 
REMARK   14  A    between atoms: C_17  and  C_18 
REMARK   15  A    between atoms: C_18  and  C_19 
REMARK   16  A    between atoms: C_18  and  N_22 
REMARK   17  A    between atoms: C_19  and  O_21 
ROOT
HETATM    1  C   UNK N   1      20.180  14.817   9.417  0.00  0.00     0.217 C 
HETATM    2  O   UNK N   1      18.972  14.694   9.532  0.00  0.00    -0.274 OA
HETATM    3  N   UNK N   1      21.024  13.876   9.910  0.00  0.00    -0.361 N 
HETATM    4  H   UNK N   1      21.994  14.003   9.790  0.00  0.00     0.162 HD
ENDROOT
BRANCH   3   5
HETATM    5  C   UNK N   1      20.561  12.695  10.604  0.00  0.00     0.122 C 
BRANCH   5   6
HETATM    6  C   UNK N   1      21.619  12.207  11.580  0.00  0.00     0.020 C 
BRANCH   6   7
HETATM    7  C   UNK N   1      22.732  11.509  10.825  0.00  0.00     0.004 C 
BRANCH   7   8
HETATM    8  C   UNK N   1      24.072  12.002  11.343  0.00  0.00     0.035 C 
BRANCH   8   9
HETATM    9  C   UNK N   1      24.999  12.364  10.190  0.00  0.00     0.173 C 
BRANCH   9  10
HETATM   10  C   UNK N   1      24.261  12.525   8.886  0.00  0.00     0.163 C 
HETATM   11  O   UNK N   1      24.269  11.616   8.072  0.00  0.00    -0.648 OA
BRANCH  10  12
HETATM   12  O   UNK N   1      23.589  13.660   8.606  0.00  0.00    -0.775 OA
HETATM   13  H   UNK N   1      23.732  14.489   9.019  0.00  0.00     0.167 HD
ENDBRANCH  10  12
ENDBRANCH   9  10
BRANCH   9  14
HETATM   14  N   UNK N   1      25.690  13.601  10.511  0.00  0.00    -0.418 N 
HETATM   15  H   UNK N   1      26.383  14.119   9.971  0.00  0.00     0.150 HD
HETATM   16  H   UNK N   1      25.445  14.014  11.411  0.00  0.00     0.150 HD
ENDBRANCH   9  14
ENDBRANCH   8   9
ENDBRANCH   7   8
ENDBRANCH   6   7
ENDBRANCH   5   6
ENDBRANCH   3   5
BRANCH   1  17
HETATM   17  C   UNK N   1      20.745  16.039   8.764  0.00  0.00     0.103 C 
BRANCH  17  18
HETATM   18  C   UNK N   1      20.156  16.289   7.381  0.00  0.00     0.009 C 
BRANCH  18  19
HETATM   19  C   UNK N   1      21.116  17.071   6.503  0.00  0.00     0.002 C 
BRANCH  19  20
HETATM   20  C   UNK N   1      21.727  16.155   5.459  0.00  0.00     0.026 C 
BRANCH  20  21
HETATM   21  C   UNK N   1      21.761  16.859   4.112  0.00  0.00     0.167 C 
BRANCH  21  22
HETATM   22  O   UNK N   1      22.643  17.939   4.168  0.00  0.00    -0.389 OA
BRANCH  22  23
HETATM   23  C   UNK N   1      21.952  19.008   3.595  0.00  0.00     0.193 C 
BRANCH  23  24
HETATM   24  C   UNK N   1      22.946  20.053   3.127  0.00  0.00     0.193 C 
BRANCH  24  25
HETATM   25  O   UNK N   1      22.274  21.226   2.786  0.00  0.00    -0.394 OA
HETATM   26  C   UNK N   1      21.031  20.794   2.323  0.00  0.00     0.201 C 
ENDBRANCH  24  25
ENDBRANCH  23  24
ENDBRANCH  22  23
ENDBRANCH  21  22
ENDBRANCH  20  21
ENDBRANCH  19  20
ENDBRANCH  18  19
ENDBRANCH  17  18
ENDBRANCH   1  17
TORSDOF 17
ENDMDL
