MODEL 1
REMARK VINA RESULT:      -5.7      0.000      0.000
REMARK  12 active torsions:
REMARK  status: ('A' for Active; 'I' for Inactive)
REMARK    1  A    between atoms: C_2  and  C_3 
REMARK    2  A    between atoms: C_3  and  O_4 
REMARK    3  A    between atoms: O_4  and  C_5 
REMARK    4  A    between atoms: C_5  and  C_7 
REMARK    5  A    between atoms: C_7  and  C_8 
REMARK    6  A    between atoms: C_11  and  O_17 
REMARK    7  A    between atoms: C_12  and  O_14 
REMARK    8  A    between atoms: O_14  and  C_15 
REMARK    9  A    between atoms: O_17  and  C_18 
REMARK   10  A    between atoms: C_18  and  C_19 
REMARK       I    between atoms: C_19  and  N_21 
REMARK   11  A    between atoms: N_21  and  C_22 
REMARK   12  A    between atoms: N_21  and  C_24 
ROOT
HETATM    1  C   UNK N   1      33.083  17.768   7.641  0.00  0.00    -0.046 A 
HETATM    2  C   UNK N   1      31.962  17.833   8.468  0.00  0.00     0.010 A 
HETATM    3  C   UNK N   1      30.697  17.549   7.953  0.00  0.00     0.040 A 
HETATM    4  C   UNK N   1      30.525  17.214   6.605  0.00  0.00     0.102 A 
HETATM    5  C   UNK N   1      31.663  17.197   5.742  0.00  0.00     0.102 A 
HETATM    6  C   UNK N   1      32.924  17.443   6.291  0.00  0.00     0.047 A 
ENDROOT
BRANCH   4   7
HETATM    7  O   UNK N   1      29.271  16.905   6.205  0.00  0.00    -0.339 OA
BRANCH   7   8
HETATM    8  C   UNK N   1      28.198  17.761   6.325  0.00  0.00     0.278 C 
BRANCH   8   9
HETATM    9  C   UNK N   1      27.930  18.386   4.987  0.00  0.00     0.243 C 
HETATM   10  O   UNK N   1      28.360  17.834   3.987  0.00  0.00    -0.271 OA
HETATM   11  N   UNK N   1      27.240  19.563   4.886  0.00  0.00    -0.351 N 
BRANCH  11  12
HETATM   12  C   UNK N   1      27.052  20.186   3.590  0.00  0.00     0.121 C 
HETATM   13  C   UNK N   1      25.590  20.163   3.181  0.00  0.00     0.026 C 
ENDBRANCH  11  12
BRANCH  11  14
HETATM   14  C   UNK N   1      26.704  20.208   6.069  0.00  0.00     0.121 C 
HETATM   15  C   UNK N   1      27.265  21.610   6.222  0.00  0.00     0.026 C 
ENDBRANCH  11  14
ENDBRANCH   8   9
ENDBRANCH   7   8
ENDBRANCH   4   7
BRANCH   5  16
HETATM   16  O   UNK N   1      31.610  16.999   4.400  0.00  0.00    -0.349 OA
BRANCH  16  17
HETATM   17  C   UNK N   1      31.718  15.778   3.781  0.00  0.00     0.171 C 
HETATM   18  C   UNK N   1      33.048  15.695   3.064  0.00  0.00     0.034 C 
ENDBRANCH  16  17
ENDBRANCH   5  16
BRANCH   1  19
HETATM   19  C   UNK N   1      34.445  18.047   8.212  0.00  0.00     0.149 C 
BRANCH  19  20
HETATM   20  C   UNK N   1      34.859  17.140   9.347  0.00  0.00     0.263 C 
HETATM   21  O   UNK N   1      35.555  17.561  10.261  0.00  0.00    -0.265 OA
BRANCH  20  22
HETATM   22  O   UNK N   1      34.496  15.835   9.312  0.00  0.00    -0.321 OA
BRANCH  22  23
HETATM   23  C   UNK N   1      35.187  14.912   8.561  0.00  0.00     0.178 C 
BRANCH  23  24
HETATM   24  C   UNK N   1      34.232  14.212   7.618  0.00  0.00     0.022 C 
HETATM   25  C   UNK N   1      32.859  14.144   8.251  0.00  0.00     0.007 C 
ENDBRANCH  23  24
ENDBRANCH  22  23
ENDBRANCH  20  22
ENDBRANCH  19  20
ENDBRANCH   1  19
TORSDOF 12
ENDMDL
MODEL 2
REMARK VINA RESULT:      -5.6     11.997     16.337
REMARK  12 active torsions:
REMARK  status: ('A' for Active; 'I' for Inactive)
REMARK    1  A    between atoms: C_2  and  C_3 
REMARK    2  A    between atoms: C_3  and  O_4 
REMARK    3  A    between atoms: O_4  and  C_5 
REMARK    4  A    between atoms: C_5  and  C_7 
REMARK    5  A    between atoms: C_7  and  C_8 
REMARK    6  A    between atoms: C_11  and  O_17 
REMARK    7  A    between atoms: C_12  and  O_14 
REMARK    8  A    between atoms: O_14  and  C_15 
REMARK    9  A    between atoms: O_17  and  C_18 
REMARK   10  A    between atoms: C_18  and  C_19 
REMARK       I    between atoms: C_19  and  N_21 
REMARK   11  A    between atoms: N_21  and  C_22 
REMARK   12  A    between atoms: N_21  and  C_24 
ROOT
HETATM    1  C   UNK N   1      25.957  27.684  -4.112  0.00  0.00    -0.046 A 
HETATM    2  C   UNK N   1      25.295  27.526  -5.329  0.00  0.00     0.010 A 
HETATM    3  C   UNK N   1      25.087  26.249  -5.849  0.00  0.00     0.040 A 
HETATM    4  C   UNK N   1      25.550  25.111  -5.178  0.00  0.00     0.102 A 
HETATM    5  C   UNK N   1      26.274  25.272  -3.957  0.00  0.00     0.102 A 
HETATM    6  C   UNK N   1      26.431  26.557  -3.435  0.00  0.00     0.047 A 
ENDROOT
BRANCH   4   7
HETATM    7  O   UNK N   1      25.260  23.912  -5.730  0.00  0.00    -0.339 OA
BRANCH   7   8
HETATM    8  C   UNK N   1      26.086  23.261  -6.620  0.00  0.00     0.278 C 
BRANCH   8   9
HETATM    9  C   UNK N   1      25.548  23.458  -8.008  0.00  0.00     0.243 C 
HETATM   10  O   UNK N   1      24.522  22.876  -8.325  0.00  0.00    -0.271 OA
HETATM   11  N   UNK N   1      26.203  24.250  -8.910  0.00  0.00    -0.351 N 
BRANCH  11  12
HETATM   12  C   UNK N   1      25.703  24.371 -10.267  0.00  0.00     0.121 C 
HETATM   13  C   UNK N   1      25.048  25.722 -10.488  0.00  0.00     0.026 C 
ENDBRANCH  11  12
BRANCH  11  14
HETATM   14  C   UNK N   1      27.405  24.964  -8.530  0.00  0.00     0.121 C 
HETATM   15  C   UNK N   1      28.618  24.405  -9.252  0.00  0.00     0.026 C 
ENDBRANCH  11  14
ENDBRANCH   8   9
ENDBRANCH   7   8
ENDBRANCH   4   7
BRANCH   5  16
HETATM   16  O   UNK N   1      26.868  24.259  -3.275  0.00  0.00    -0.349 OA
BRANCH  16  17
HETATM   17  C   UNK N   1      28.193  23.911  -3.380  0.00  0.00     0.171 C 
HETATM   18  C   UNK N   1      28.617  23.170  -2.131  0.00  0.00     0.034 C 
ENDBRANCH  16  17
ENDBRANCH   5  16
BRANCH   1  19
HETATM   19  C   UNK N   1      26.150  29.063  -3.544  0.00  0.00     0.149 C 
BRANCH  19  20
HETATM   20  C   UNK N   1      27.579  29.426  -3.220  0.00  0.00     0.263 C 
HETATM   21  O   UNK N   1      28.027  29.254  -2.094  0.00  0.00    -0.265 OA
BRANCH  20  22
HETATM   22  O   UNK N   1      28.347  29.997  -4.179  0.00  0.00    -0.321 OA
BRANCH  22  23
HETATM   23  C   UNK N   1      28.966  29.245  -5.152  0.00  0.00     0.178 C 
BRANCH  23  24
HETATM   24  C   UNK N   1      28.422  29.633  -6.511  0.00  0.00     0.022 C 
HETATM   25  C   UNK N   1      28.254  28.391  -7.358  0.00  0.00     0.007 C 
ENDBRANCH  23  24
ENDBRANCH  22  23
ENDBRANCH  20  22
ENDBRANCH  19  20
ENDBRANCH   1  19
TORSDOF 12
ENDMDL
MODEL 3
REMARK VINA RESULT:      -5.6      1.254      2.666
REMARK  12 active torsions:
REMARK  status: ('A' for Active; 'I' for Inactive)
REMARK    1  A    between atoms: C_2  and  C_3 
REMARK    2  A    between atoms: C_3  and  O_4 
REMARK    3  A    between atoms: O_4  and  C_5 
REMARK    4  A    between atoms: C_5  and  C_7 
REMARK    5  A    between atoms: C_7  and  C_8 
REMARK    6  A    between atoms: C_11  and  O_17 
REMARK    7  A    between atoms: C_12  and  O_14 
REMARK    8  A    between atoms: O_14  and  C_15 
REMARK    9  A    between atoms: O_17  and  C_18 
REMARK   10  A    between atoms: C_18  and  C_19 
REMARK       I    between atoms: C_19  and  N_21 
REMARK   11  A    between atoms: N_21  and  C_22 
REMARK   12  A    between atoms: N_21  and  C_24 
ROOT
HETATM    1  C   UNK N   1      33.162  17.729   7.537  0.00  0.00    -0.046 A 
HETATM    2  C   UNK N   1      33.040  17.471   6.172  0.00  0.00     0.010 A 
HETATM    3  C   UNK N   1      31.791  17.174   5.627  0.00  0.00     0.040 A 
HETATM    4  C   UNK N   1      30.647  17.111   6.433  0.00  0.00     0.102 A 
HETATM    5  C   UNK N   1      30.777  17.324   7.839  0.00  0.00     0.102 A 
HETATM    6  C   UNK N   1      32.030  17.662   8.354  0.00  0.00     0.047 A 
ENDROOT
BRANCH   4   7
HETATM    7  O   UNK N   1      29.472  16.867   5.812  0.00  0.00    -0.339 OA
BRANCH   7   8
HETATM    8  C   UNK N   1      29.100  17.453   4.622  0.00  0.00     0.278 C 
BRANCH   8   9
HETATM    9  C   UNK N   1      27.619  17.696   4.648  0.00  0.00     0.243 C 
HETATM   10  O   UNK N   1      26.868  16.735   4.609  0.00  0.00    -0.271 OA
HETATM   11  N   UNK N   1      27.115  18.967   4.688  0.00  0.00    -0.351 N 
BRANCH  11  12
HETATM   12  C   UNK N   1      25.681  19.182   4.642  0.00  0.00     0.121 C 
HETATM   13  C   UNK N   1      25.243  19.639   3.262  0.00  0.00     0.026 C 
ENDBRANCH  11  12
BRANCH  11  14
HETATM   14  C   UNK N   1      28.003  20.111   4.763  0.00  0.00     0.121 C 
HETATM   15  C   UNK N   1      27.519  21.104   5.804  0.00  0.00     0.026 C 
ENDBRANCH  11  14
ENDBRANCH   8   9
ENDBRANCH   7   8
ENDBRANCH   4   7
BRANCH   5  16
HETATM   16  O   UNK N   1      29.768  17.179   8.736  0.00  0.00    -0.349 OA
BRANCH  16  17
HETATM   17  C   UNK N   1      29.121  18.215   9.366  0.00  0.00     0.171 C 
HETATM   18  C   UNK N   1      28.004  18.722   8.479  0.00  0.00     0.034 C 
ENDBRANCH  16  17
ENDBRANCH   5  16
BRANCH   1  19
HETATM   19  C   UNK N   1      34.507  18.078   8.109  0.00  0.00     0.149 C 
BRANCH  19  20
HETATM   20  C   UNK N   1      35.012  17.134   9.176  0.00  0.00     0.263 C 
HETATM   21  O   UNK N   1      35.388  17.560  10.259  0.00  0.00    -0.265 OA
BRANCH  20  22
HETATM   22  O   UNK N   1      35.094  15.811   8.898  0.00  0.00    -0.321 OA
BRANCH  22  23
HETATM   23  C   UNK N   1      34.605  14.859   9.764  0.00  0.00     0.178 C 
BRANCH  23  24
HETATM   24  C   UNK N   1      33.208  14.459   9.339  0.00  0.00     0.022 C 
HETATM   25  C   UNK N   1      33.224  14.046   7.883  0.00  0.00     0.007 C 
ENDBRANCH  23  24
ENDBRANCH  22  23
ENDBRANCH  20  22
ENDBRANCH  19  20
ENDBRANCH   1  19
TORSDOF 12
ENDMDL
MODEL 4
REMARK VINA RESULT:      -5.5     12.802     15.776
REMARK  12 active torsions:
REMARK  status: ('A' for Active; 'I' for Inactive)
REMARK    1  A    between atoms: C_2  and  C_3 
REMARK    2  A    between atoms: C_3  and  O_4 
REMARK    3  A    between atoms: O_4  and  C_5 
REMARK    4  A    between atoms: C_5  and  C_7 
REMARK    5  A    between atoms: C_7  and  C_8 
REMARK    6  A    between atoms: C_11  and  O_17 
REMARK    7  A    between atoms: C_12  and  O_14 
REMARK    8  A    between atoms: O_14  and  C_15 
REMARK    9  A    between atoms: O_17  and  C_18 
REMARK   10  A    between atoms: C_18  and  C_19 
REMARK       I    between atoms: C_19  and  N_21 
REMARK   11  A    between atoms: N_21  and  C_22 
REMARK   12  A    between atoms: N_21  and  C_24 
ROOT
HETATM    1  C   UNK N   1      25.977  27.568  -4.287  0.00  0.00    -0.046 A 
HETATM    2  C   UNK N   1      25.522  27.461  -5.601  0.00  0.00     0.010 A 
HETATM    3  C   UNK N   1      25.315  26.204  -6.168  0.00  0.00     0.040 A 
HETATM    4  C   UNK N   1      25.574  25.033  -5.444  0.00  0.00     0.102 A 
HETATM    5  C   UNK N   1      26.089  25.138  -4.115  0.00  0.00     0.102 A 
HETATM    6  C   UNK N   1      26.247  26.408  -3.556  0.00  0.00     0.047 A 
ENDROOT
BRANCH   4   7
HETATM    7  O   UNK N   1      25.296  23.860  -6.055  0.00  0.00    -0.339 OA
BRANCH   7   8
HETATM    8  C   UNK N   1      26.250  23.067  -6.655  0.00  0.00     0.278 C 
BRANCH   8   9
HETATM    9  C   UNK N   1      25.672  22.490  -7.915  0.00  0.00     0.243 C 
HETATM   10  O   UNK N   1      24.471  22.596  -8.109  0.00  0.00    -0.271 OA
HETATM   11  N   UNK N   1      26.465  21.836  -8.817  0.00  0.00    -0.351 N 
BRANCH  11  12
HETATM   12  C   UNK N   1      25.875  21.225  -9.993  0.00  0.00     0.121 C 
HETATM   13  C   UNK N   1      26.471  21.803 -11.264  0.00  0.00     0.026 C 
ENDBRANCH  11  12
BRANCH  11  14
HETATM   14  C   UNK N   1      27.895  21.732  -8.604  0.00  0.00     0.121 C 
HETATM   15  C   UNK N   1      28.277  20.328  -8.170  0.00  0.00     0.026 C 
ENDBRANCH  11  14
ENDBRANCH   8   9
ENDBRANCH   7   8
ENDBRANCH   4   7
BRANCH   5  16
HETATM   16  O   UNK N   1      26.483  24.083  -3.357  0.00  0.00    -0.349 OA
BRANCH  16  17
HETATM   17  C   UNK N   1      27.741  23.923  -2.827  0.00  0.00     0.171 C 
HETATM   18  C   UNK N   1      28.726  23.657  -3.945  0.00  0.00     0.034 C 
ENDBRANCH  16  17
ENDBRANCH   5  16
BRANCH   1  19
HETATM   19  C   UNK N   1      26.168  28.927  -3.675  0.00  0.00     0.149 C 
BRANCH  19  20
HETATM   20  C   UNK N   1      27.497  29.137  -2.989  0.00  0.00     0.263 C 
HETATM   21  O   UNK N   1      27.560  29.248  -1.771  0.00  0.00    -0.265 OA
BRANCH  20  22
HETATM   22  O   UNK N   1      28.616  29.257  -3.743  0.00  0.00    -0.321 OA
BRANCH  22  23
HETATM   23  C   UNK N   1      29.804  28.671  -3.371  0.00  0.00     0.178 C 
BRANCH  23  24
HETATM   24  C   UNK N   1      29.806  27.219  -3.798  0.00  0.00     0.022 C 
HETATM   25  C   UNK N   1      29.546  27.132  -5.286  0.00  0.00     0.007 C 
ENDBRANCH  23  24
ENDBRANCH  22  23
ENDBRANCH  20  22
ENDBRANCH  19  20
ENDBRANCH   1  19
TORSDOF 12
ENDMDL
MODEL 5
REMARK VINA RESULT:      -5.5      9.501     11.041
REMARK  12 active torsions:
REMARK  status: ('A' for Active; 'I' for Inactive)
REMARK    1  A    between atoms: C_2  and  C_3 
REMARK    2  A    between atoms: C_3  and  O_4 
REMARK    3  A    between atoms: O_4  and  C_5 
REMARK    4  A    between atoms: C_5  and  C_7 
REMARK    5  A    between atoms: C_7  and  C_8 
REMARK    6  A    between atoms: C_11  and  O_17 
REMARK    7  A    between atoms: C_12  and  O_14 
REMARK    8  A    between atoms: O_14  and  C_15 
REMARK    9  A    between atoms: O_17  and  C_18 
REMARK   10  A    between atoms: C_18  and  C_19 
REMARK       I    between atoms: C_19  and  N_21 
REMARK   11  A    between atoms: N_21  and  C_22 
REMARK   12  A    between atoms: N_21  and  C_24 
ROOT
HETATM    1  C   UNK N   1      21.245  14.455   8.565  0.00  0.00    -0.046 A 
HETATM    2  C   UNK N   1      22.136  14.732   7.528  0.00  0.00     0.010 A 
HETATM    3  C   UNK N   1      22.101  15.972   6.890  0.00  0.00     0.040 A 
HETATM    4  C   UNK N   1      21.169  16.949   7.262  0.00  0.00     0.102 A 
HETATM    5  C   UNK N   1      20.222  16.651   8.288  0.00  0.00     0.102 A 
HETATM    6  C   UNK N   1      20.305  15.418   8.940  0.00  0.00     0.047 A 
ENDROOT
BRANCH   4   7
HETATM    7  O   UNK N   1      21.241  18.139   6.624  0.00  0.00    -0.339 OA
BRANCH   7   8
HETATM    8  C   UNK N   1      22.014  18.361   5.506  0.00  0.00     0.278 C 
BRANCH   8   9
HETATM    9  C   UNK N   1      21.114  18.760   4.372  0.00  0.00     0.243 C 
HETATM   10  O   UNK N   1      20.807  19.936   4.256  0.00  0.00    -0.271 OA
HETATM   11  N   UNK N   1      20.626  17.827   3.499  0.00  0.00    -0.351 N 
BRANCH  11  12
HETATM   12  C   UNK N   1      19.703  18.225   2.453  0.00  0.00     0.121 C 
HETATM   13  C   UNK N   1      20.076  17.588   1.126  0.00  0.00     0.026 C 
ENDBRANCH  11  12
BRANCH  11  14
HETATM   14  C   UNK N   1      21.009  16.434   3.616  0.00  0.00     0.121 C 
HETATM   15  C   UNK N   1      19.824  15.580   4.030  0.00  0.00     0.026 C 
ENDBRANCH  11  14
ENDBRANCH   8   9
ENDBRANCH   7   8
ENDBRANCH   4   7
BRANCH   5  16
HETATM   16  O   UNK N   1      19.202  17.468   8.656  0.00  0.00    -0.349 OA
BRANCH  16  17
HETATM   17  C   UNK N   1      17.919  17.055   8.919  0.00  0.00     0.171 C 
HETATM   18  C   UNK N   1      17.347  17.882  10.051  0.00  0.00     0.034 C 
ENDBRANCH  16  17
ENDBRANCH   5  16
BRANCH   1  19
HETATM   19  C   UNK N   1      21.311  13.127   9.265  0.00  0.00     0.149 C 
BRANCH  19  20
HETATM   20  C   UNK N   1      22.652  12.436   9.200  0.00  0.00     0.263 C 
HETATM   21  O   UNK N   1      22.856  11.543   8.388  0.00  0.00    -0.265 OA
BRANCH  20  22
HETATM   22  O   UNK N   1      23.614  12.780  10.090  0.00  0.00    -0.321 OA
BRANCH  22  23
HETATM   23  C   UNK N   1      23.997  11.932  11.104  0.00  0.00     0.178 C 
BRANCH  23  24
HETATM   24  C   UNK N   1      22.913  11.884  12.159  0.00  0.00     0.022 C 
HETATM   25  C   UNK N   1      23.530  12.095  13.525  0.00  0.00     0.007 C 
ENDBRANCH  23  24
ENDBRANCH  22  23
ENDBRANCH  20  22
ENDBRANCH  19  20
ENDBRANCH   1  19
TORSDOF 12
ENDMDL
MODEL 6
REMARK VINA RESULT:      -5.3     11.071     15.857
REMARK  12 active torsions:
REMARK  status: ('A' for Active; 'I' for Inactive)
REMARK    1  A    between atoms: C_2  and  C_3 
REMARK    2  A    between atoms: C_3  and  O_4 
REMARK    3  A    between atoms: O_4  and  C_5 
REMARK    4  A    between atoms: C_5  and  C_7 
REMARK    5  A    between atoms: C_7  and  C_8 
REMARK    6  A    between atoms: C_11  and  O_17 
REMARK    7  A    between atoms: C_12  and  O_14 
REMARK    8  A    between atoms: O_14  and  C_15 
REMARK    9  A    between atoms: O_17  and  C_18 
REMARK   10  A    between atoms: C_18  and  C_19 
REMARK       I    between atoms: C_19  and  N_21 
REMARK   11  A    between atoms: N_21  and  C_22 
REMARK   12  A    between atoms: N_21  and  C_24 
ROOT
HETATM    1  C   UNK N   1      26.290  23.497  -6.404  0.00  0.00    -0.046 A 
HETATM    2  C   UNK N   1      27.612  23.052  -6.412  0.00  0.00     0.010 A 
HETATM    3  C   UNK N   1      28.464  23.380  -5.357  0.00  0.00     0.040 A 
HETATM    4  C   UNK N   1      28.021  24.168  -4.288  0.00  0.00     0.102 A 
HETATM    5  C   UNK N   1      26.683  24.669  -4.302  0.00  0.00     0.102 A 
HETATM    6  C   UNK N   1      25.837  24.292  -5.348  0.00  0.00     0.047 A 
ENDROOT
BRANCH   4   7
HETATM    7  O   UNK N   1      28.900  24.393  -3.286  0.00  0.00    -0.339 OA
BRANCH   7   8
HETATM    8  C   UNK N   1      30.255  24.545  -3.479  0.00  0.00     0.278 C 
BRANCH   8   9
HETATM    9  C   UNK N   1      30.957  23.337  -2.928  0.00  0.00     0.243 C 
HETATM   10  O   UNK N   1      30.725  23.000  -1.778  0.00  0.00    -0.271 OA
HETATM   11  N   UNK N   1      31.858  22.640  -3.686  0.00  0.00    -0.351 N 
BRANCH  11  12
HETATM   12  C   UNK N   1      32.576  21.519  -3.111  0.00  0.00     0.121 C 
HETATM   13  C   UNK N   1      32.627  20.350  -4.079  0.00  0.00     0.026 C 
ENDBRANCH  11  12
BRANCH  11  14
HETATM   14  C   UNK N   1      32.116  23.020  -5.060  0.00  0.00     0.121 C 
HETATM   15  C   UNK N   1      33.419  23.792  -5.172  0.00  0.00     0.026 C 
ENDBRANCH  11  14
ENDBRANCH   8   9
ENDBRANCH   7   8
ENDBRANCH   4   7
BRANCH   5  16
HETATM   16  O   UNK N   1      26.174  25.531  -3.386  0.00  0.00    -0.349 OA
BRANCH  16  17
HETATM   17  C   UNK N   1      26.564  26.840  -3.237  0.00  0.00     0.171 C 
HETATM   18  C   UNK N   1      25.550  27.744  -3.905  0.00  0.00     0.034 C 
ENDBRANCH  16  17
ENDBRANCH   5  16
BRANCH   1  19
HETATM   19  C   UNK N   1      25.371  23.114  -7.531  0.00  0.00     0.149 C 
BRANCH  19  20
HETATM   20  C   UNK N   1      25.454  24.000  -8.751  0.00  0.00     0.263 C 
HETATM   21  O   UNK N   1      25.481  23.515  -9.875  0.00  0.00    -0.265 OA
BRANCH  20  22
HETATM   22  O   UNK N   1      25.553  25.341  -8.586  0.00  0.00    -0.321 OA
BRANCH  22  23
HETATM   23  C   UNK N   1      26.505  26.082  -9.248  0.00  0.00     0.178 C 
BRANCH  23  24
HETATM   24  C   UNK N   1      27.672  26.348  -8.321  0.00  0.00     0.022 C 
HETATM   25  C   UNK N   1      27.222  27.247  -7.190  0.00  0.00     0.007 C 
ENDBRANCH  23  24
ENDBRANCH  22  23
ENDBRANCH  20  22
ENDBRANCH  19  20
ENDBRANCH   1  19
TORSDOF 12
ENDMDL
MODEL 7
REMARK VINA RESULT:      -5.3     11.862     15.804
REMARK  12 active torsions:
REMARK  status: ('A' for Active; 'I' for Inactive)
REMARK    1  A    between atoms: C_2  and  C_3 
REMARK    2  A    between atoms: C_3  and  O_4 
REMARK    3  A    between atoms: O_4  and  C_5 
REMARK    4  A    between atoms: C_5  and  C_7 
REMARK    5  A    between atoms: C_7  and  C_8 
REMARK    6  A    between atoms: C_11  and  O_17 
REMARK    7  A    between atoms: C_12  and  O_14 
REMARK    8  A    between atoms: O_14  and  C_15 
REMARK    9  A    between atoms: O_17  and  C_18 
REMARK   10  A    between atoms: C_18  and  C_19 
REMARK       I    between atoms: C_19  and  N_21 
REMARK   11  A    between atoms: N_21  and  C_22 
REMARK   12  A    between atoms: N_21  and  C_24 
ROOT
HETATM    1  C   UNK N   1      26.010  26.624  -4.442  0.00  0.00    -0.046 A 
HETATM    2  C   UNK N   1      27.107  26.042  -3.808  0.00  0.00     0.010 A 
HETATM    3  C   UNK N   1      27.666  24.870  -4.317  0.00  0.00     0.040 A 
HETATM    4  C   UNK N   1      27.133  24.249  -5.453  0.00  0.00     0.102 A 
HETATM    5  C   UNK N   1      25.978  24.813  -6.075  0.00  0.00     0.102 A 
HETATM    6  C   UNK N   1      25.463  26.010  -5.572  0.00  0.00     0.047 A 
ENDROOT
BRANCH   4   7
HETATM    7  O   UNK N   1      27.770  23.145  -5.905  0.00  0.00    -0.339 OA
BRANCH   7   8
HETATM    8  C   UNK N   1      29.095  23.128  -6.281  0.00  0.00     0.278 C 
BRANCH   8   9
HETATM    9  C   UNK N   1      29.724  21.864  -5.769  0.00  0.00     0.243 C 
HETATM   10  O   UNK N   1      29.500  20.820  -6.360  0.00  0.00    -0.271 OA
HETATM   11  N   UNK N   1      30.512  21.874  -4.651  0.00  0.00    -0.351 N 
BRANCH  11  12
HETATM   12  C   UNK N   1      31.053  20.631  -4.134  0.00  0.00     0.121 C 
HETATM   13  C   UNK N   1      32.530  20.503  -4.459  0.00  0.00     0.026 C 
ENDBRANCH  11  12
BRANCH  11  14
HETATM   14  C   UNK N   1      30.803  23.116  -3.963  0.00  0.00     0.121 C 
HETATM   15  C   UNK N   1      30.461  23.011  -2.488  0.00  0.00     0.026 C 
ENDBRANCH  11  14
ENDBRANCH   8   9
ENDBRANCH   7   8
ENDBRANCH   4   7
BRANCH   5  16
HETATM   16  O   UNK N   1      25.304  24.245  -7.108  0.00  0.00    -0.349 OA
BRANCH  16  17
HETATM   17  C   UNK N   1      25.594  24.440  -8.437  0.00  0.00     0.171 C 
HETATM   18  C   UNK N   1      25.995  23.121  -9.061  0.00  0.00     0.034 C 
ENDBRANCH  16  17
ENDBRANCH   5  16
BRANCH   1  19
HETATM   19  C   UNK N   1      25.434  27.903  -3.903  0.00  0.00     0.149 C 
BRANCH  19  20
HETATM   20  C   UNK N   1      26.391  29.071  -3.872  0.00  0.00     0.263 C 
HETATM   21  O   UNK N   1      26.663  29.628  -2.816  0.00  0.00    -0.265 OA
BRANCH  20  22
HETATM   22  O   UNK N   1      26.904  29.533  -5.037  0.00  0.00    -0.321 OA
BRANCH  22  23
HETATM   23  C   UNK N   1      28.240  29.402  -5.341  0.00  0.00     0.178 C 
BRANCH  23  24
HETATM   24  C   UNK N   1      28.411  29.324  -6.843  0.00  0.00     0.022 C 
HETATM   25  C   UNK N   1      27.948  27.969  -7.333  0.00  0.00     0.007 C 
ENDBRANCH  23  24
ENDBRANCH  22  23
ENDBRANCH  20  22
ENDBRANCH  19  20
ENDBRANCH   1  19
TORSDOF 12
ENDMDL
MODEL 8
REMARK VINA RESULT:      -5.2      9.424     10.996
REMARK  12 active torsions:
REMARK  status: ('A' for Active; 'I' for Inactive)
REMARK    1  A    between atoms: C_2  and  C_3 
REMARK    2  A    between atoms: C_3  and  O_4 
REMARK    3  A    between atoms: O_4  and  C_5 
REMARK    4  A    between atoms: C_5  and  C_7 
REMARK    5  A    between atoms: C_7  and  C_8 
REMARK    6  A    between atoms: C_11  and  O_17 
REMARK    7  A    between atoms: C_12  and  O_14 
REMARK    8  A    between atoms: O_14  and  C_15 
REMARK    9  A    between atoms: O_17  and  C_18 
REMARK   10  A    between atoms: C_18  and  C_19 
REMARK       I    between atoms: C_19  and  N_21 
REMARK   11  A    between atoms: N_21  and  C_22 
REMARK   12  A    between atoms: N_21  and  C_24 
ROOT
HETATM    1  C   UNK N   1      21.113  14.217   8.788  0.00  0.00    -0.046 A 
HETATM    2  C   UNK N   1      22.020  14.436   7.751  0.00  0.00     0.010 A 
HETATM    3  C   UNK N   1      22.044  15.666   7.093  0.00  0.00     0.040 A 
HETATM    4  C   UNK N   1      21.156  16.690   7.444  0.00  0.00     0.102 A 
HETATM    5  C   UNK N   1      20.191  16.452   8.470  0.00  0.00     0.102 A 
HETATM    6  C   UNK N   1      20.215  15.228   9.142  0.00  0.00     0.047 A 
ENDROOT
BRANCH   4   7
HETATM    7  O   UNK N   1      21.284  17.865   6.787  0.00  0.00    -0.339 OA
BRANCH   7   8
HETATM    8  C   UNK N   1      22.051  18.027   5.655  0.00  0.00     0.278 C 
BRANCH   8   9
HETATM    9  C   UNK N   1      21.174  18.541   4.550  0.00  0.00     0.243 C 
HETATM   10  O   UNK N   1      20.852  19.719   4.559  0.00  0.00    -0.271 OA
HETATM   11  N   UNK N   1      20.722  17.707   3.564  0.00  0.00    -0.351 N 
BRANCH  11  12
HETATM   12  C   UNK N   1      19.820  18.209   2.546  0.00  0.00     0.121 C 
HETATM   13  C   UNK N   1      20.077  17.535   1.210  0.00  0.00     0.026 C 
ENDBRANCH  11  12
BRANCH  11  14
HETATM   14  C   UNK N   1      21.124  16.315   3.534  0.00  0.00     0.121 C 
HETATM   15  C   UNK N   1      20.001  15.417   4.020  0.00  0.00     0.026 C 
ENDBRANCH  11  14
ENDBRANCH   8   9
ENDBRANCH   7   8
ENDBRANCH   4   7
BRANCH   5  16
HETATM   16  O   UNK N   1      19.208  17.321   8.819  0.00  0.00    -0.349 OA
BRANCH  16  17
HETATM   17  C   UNK N   1      17.892  16.982   9.016  0.00  0.00     0.171 C 
HETATM   18  C   UNK N   1      17.287  17.899  10.056  0.00  0.00     0.034 C 
ENDBRANCH  16  17
ENDBRANCH   5  16
BRANCH   1  19
HETATM   19  C   UNK N   1      21.115  12.899   9.510  0.00  0.00     0.149 C 
BRANCH  19  20
HETATM   20  C   UNK N   1      22.479  12.397   9.918  0.00  0.00     0.263 C 
HETATM   21  O   UNK N   1      23.166  13.027  10.711  0.00  0.00    -0.265 OA
BRANCH  20  22
HETATM   22  O   UNK N   1      22.959  11.264   9.352  0.00  0.00    -0.321 OA
BRANCH  22  23
HETATM   23  C   UNK N   1      23.889  11.300   8.338  0.00  0.00     0.178 C 
BRANCH  23  24
HETATM   24  C   UNK N   1      23.211  10.997   7.019  0.00  0.00     0.022 C 
HETATM   25  C   UNK N   1      24.101  11.446   5.880  0.00  0.00     0.007 C 
ENDBRANCH  23  24
ENDBRANCH  22  23
ENDBRANCH  20  22
ENDBRANCH  19  20
ENDBRANCH   1  19
TORSDOF 12
ENDMDL
MODEL 9
REMARK VINA RESULT:      -5.1      2.649      7.952
REMARK  12 active torsions:
REMARK  status: ('A' for Active; 'I' for Inactive)
REMARK    1  A    between atoms: C_2  and  C_3 
REMARK    2  A    between atoms: C_3  and  O_4 
REMARK    3  A    between atoms: O_4  and  C_5 
REMARK    4  A    between atoms: C_5  and  C_7 
REMARK    5  A    between atoms: C_7  and  C_8 
REMARK    6  A    between atoms: C_11  and  O_17 
REMARK    7  A    between atoms: C_12  and  O_14 
REMARK    8  A    between atoms: O_14  and  C_15 
REMARK    9  A    between atoms: O_17  and  C_18 
REMARK   10  A    between atoms: C_18  and  C_19 
REMARK       I    between atoms: C_19  and  N_21 
REMARK   11  A    between atoms: N_21  and  C_22 
REMARK   12  A    between atoms: N_21  and  C_24 
ROOT
HETATM    1  C   UNK N   1      31.352  17.155   5.395  0.00  0.00    -0.046 A 
HETATM    2  C   UNK N   1      32.722  17.404   5.325  0.00  0.00     0.010 A 
HETATM    3  C   UNK N   1      33.450  17.635   6.491  0.00  0.00     0.040 A 
HETATM    4  C   UNK N   1      32.826  17.640   7.744  0.00  0.00     0.102 A 
HETATM    5  C   UNK N   1      31.414  17.436   7.817  0.00  0.00     0.102 A 
HETATM    6  C   UNK N   1      30.714  17.165   6.639  0.00  0.00     0.047 A 
ENDROOT
BRANCH   4   7
HETATM    7  O   UNK N   1      33.618  17.821   8.825  0.00  0.00    -0.339 OA
BRANCH   7   8
HETATM    8  C   UNK N   1      34.883  17.290   8.941  0.00  0.00     0.278 C 
BRANCH   8   9
HETATM    9  C   UNK N   1      34.949  16.477  10.203  0.00  0.00     0.243 C 
HETATM   10  O   UNK N   1      35.257  17.037  11.243  0.00  0.00    -0.271 OA
HETATM   11  N   UNK N   1      34.694  15.134  10.188  0.00  0.00    -0.351 N 
BRANCH  11  12
HETATM   12  C   UNK N   1      34.831  14.355  11.404  0.00  0.00     0.121 C 
HETATM   13  C   UNK N   1      36.139  13.586  11.415  0.00  0.00     0.026 C 
ENDBRANCH  11  12
BRANCH  11  14
HETATM   14  C   UNK N   1      34.301  14.470   8.960  0.00  0.00     0.121 C 
HETATM   15  C   UNK N   1      32.813  14.166   8.963  0.00  0.00     0.026 C 
ENDBRANCH  11  14
ENDBRANCH   8   9
ENDBRANCH   7   8
ENDBRANCH   4   7
BRANCH   5  16
HETATM   16  O   UNK N   1      30.680  17.530   8.955  0.00  0.00    -0.349 OA
BRANCH  16  17
HETATM   17  C   UNK N   1      29.845  18.575   9.269  0.00  0.00     0.171 C 
HETATM   18  C   UNK N   1      28.412  18.089   9.271  0.00  0.00     0.034 C 
ENDBRANCH  16  17
ENDBRANCH   5  16
BRANCH   1  19
HETATM   19  C   UNK N   1      30.581  16.878   4.135  0.00  0.00     0.149 C 
BRANCH  19  20
HETATM   20  C   UNK N   1      29.286  16.126   4.331  0.00  0.00     0.263 C 
HETATM   21  O   UNK N   1      29.266  14.902   4.320  0.00  0.00    -0.265 OA
BRANCH  20  22
HETATM   22  O   UNK N   1      28.133  16.825   4.465  0.00  0.00    -0.321 OA
BRANCH  22  23
HETATM   23  C   UNK N   1      28.012  18.116   4.005  0.00  0.00     0.178 C 
BRANCH  23  24
HETATM   24  C   UNK N   1      27.821  19.054   5.178  0.00  0.00     0.022 C 
HETATM   25  C   UNK N   1      27.153  20.326   4.701  0.00  0.00     0.007 C 
ENDBRANCH  23  24
ENDBRANCH  22  23
ENDBRANCH  20  22
ENDBRANCH  19  20
ENDBRANCH   1  19
TORSDOF 12
ENDMDL
