REMARK  8 active torsions:
REMARK  status: ('A' for Active; 'I' for Inactive)
REMARK    1  A    between atoms: C_2  and  C_3 
REMARK    2  A    between atoms: C_3  and  C_4 
REMARK    3  A    between atoms: C_4  and  C_5 
REMARK    4  A    between atoms: C_5  and  S_6 
REMARK    5  A    between atoms: S_6  and  N_9 
REMARK       I    between atoms: N_9  and  C_10 
REMARK    6  A    between atoms: C_10  and  C_12 
REMARK    7  A    between atoms: N_18  and  C_23 
REMARK    8  A    between atoms: C_23  and  C_24 
ROOT
HETATM    1  C   UNK N   1       3.663   2.145  -0.527  0.00  0.00     0.035 A 
HETATM    2  C   UNK N   1       3.981   0.833  -0.976  0.00  0.00     0.019 A 
HETATM    3  C   UNK N   1       3.038  -0.217  -0.860  0.00  0.00     0.033 A 
HETATM    4  C   UNK N   1       1.802   0.086  -0.288  0.00  0.00     0.060 A 
HETATM    5  C   UNK N   1       1.513   1.334   0.164  0.00  0.00     0.064 A 
HETATM    6  C   UNK N   1       2.400   2.390   0.045  0.00  0.00     0.049 A 
HETATM    7  N   UNK N   1       0.297   1.331   0.722  0.00  0.00    -0.331 N 
HETATM    8  C   UNK N   1      -0.153   0.060   0.572  0.00  0.00     0.080 A 
HETATM    9  N   UNK N   1       0.759  -0.737  -0.051  0.00  0.00    -0.344 N 
ATOM     10  HN  UNK N   1       0.674  -1.727  -0.284  1.00  0.00     0.167 HD
HETATM   11  C   UNK N   1      -1.463  -0.437   1.079  0.00  0.00     0.089 C 
ENDROOT
BRANCH   1  12
HETATM   12  C   UNK N   1       4.553   3.313  -0.757  0.00  0.00     0.265 C 
HETATM   13  N   UNK N   1       5.913   3.282  -0.700  0.00  0.00    -0.250 N 
HETATM   14  H   UNK N   1       6.369   4.067  -1.081  0.00  0.00     0.181 HD
HETATM   15  O   UNK N   1       4.022   4.389  -0.984  0.00  0.00    -0.267 OA
BRANCH  13  16
HETATM   16  S   UNK N   1       6.972   2.036  -0.041  0.00  0.00     0.233 S 
HETATM   17  O   UNK N   1       6.690   2.803   1.262  0.00  0.00    -0.206 OA
HETATM   18  O   UNK N   1       6.174   0.921   0.647  0.00  0.00    -0.206 OA
BRANCH  16  19
HETATM   19  C   UNK N   1       8.613   2.454   0.617  0.00  0.00     0.163 C 
BRANCH  19  20
HETATM   20  C   UNK N   1       9.673   2.439  -0.461  0.00  0.00     0.017 C 
BRANCH  20  21
HETATM   21  C   UNK N   1      10.870   3.219   0.047  0.00  0.00     0.001 C 
BRANCH  21  22
HETATM   22  C   UNK N   1      12.155   2.511  -0.324  0.00  0.00    -0.005 C 
HETATM   23  C   UNK N   1      13.334   3.311   0.191  0.00  0.00     0.005 C 
ENDBRANCH  21  22
ENDBRANCH  20  21
ENDBRANCH  19  20
ENDBRANCH  16  19
ENDBRANCH  13  16
ENDBRANCH   1  12
BRANCH   7  24
HETATM   24  C   UNK N   1      -0.300   2.452   1.445  0.00  0.00     0.171 C 
BRANCH  24  25
HETATM   25  C   UNK N   1      -1.384   3.181   0.717  0.00  0.00    -0.018 A 
HETATM   26  C   UNK N   1      -2.668   2.630   0.636  0.00  0.00     0.012 A 
HETATM   27  C   UNK N   1      -3.711   3.361   0.058  0.00  0.00     0.024 A 
HETATM   28  C   UNK N   1      -3.475   4.647  -0.436  0.00  0.00     0.035 A 
HETATM   29  C   UNK N   1      -2.195   5.199  -0.364  0.00  0.00     0.048 A 
HETATM   30 Cl   UNK N   1      -4.789   5.582  -1.119  0.00  0.00    -0.084 Cl
HETATM   31  C   UNK N   1      -1.148   4.475   0.211  0.00  0.00     0.043 A 
HETATM   32 Cl   UNK N   1       0.438   5.225   0.315  0.00  0.00    -0.084 Cl
ENDBRANCH  24  25
ENDBRANCH   7  24
TORSDOF 8
