MODEL 1
REMARK VINA RESULT:      -4.6      0.000      0.000
REMARK  3 active torsions:
REMARK  status: ('A' for Active; 'I' for Inactive)
REMARK    1  A    between atoms: C_7  and  C_6 
REMARK    2  A    between atoms: C_9  and  C_6 
REMARK    3  A    between atoms: N_10  and  C_7 
ROOT
HETATM    1  C   UNK N   1      36.632  13.243  12.603  0.00  0.00     0.165 C 
HETATM    2  N   UNK N   1      37.179  12.993  13.705  0.00  0.00    -0.390 N 
ATOM      3  HN  UNK N   1      38.019  12.417  13.770  1.00  0.00     0.159 HD
HETATM    4  S   UNK N   1      35.970  13.561  11.401  0.00  0.00    -0.075 SA
ENDROOT
BRANCH   2   5
HETATM    5  C   UNK N   1      36.566  13.558  14.862  0.00  0.00     0.124 C 
BRANCH   5   6
HETATM    6  C   UNK N   1      35.244  12.923  15.247  0.00  0.00     0.058 C 
BRANCH   6   7
HETATM    7  C   UNK N   1      35.278  12.588  16.716  0.00  0.00    -0.057 A 
HETATM    8  C   UNK N   1      35.157  13.596  17.696  0.00  0.00     0.007 A 
HETATM    9  C   UNK N   1      35.189  13.280  19.051  0.00  0.00     0.001 A 
HETATM   10  C   UNK N   1      35.342  11.952  19.447  0.00  0.00     0.000 A 
HETATM   11  C   UNK N   1      35.463  10.944  18.484  0.00  0.00     0.001 A 
HETATM   12  C   UNK N   1      35.431  11.260  17.121  0.00  0.00     0.007 A 
ENDBRANCH   6   7
ENDBRANCH   5   6
ENDBRANCH   2   5
TORSDOF 3
ENDMDL
MODEL 2
REMARK VINA RESULT:      -4.6      1.529      1.846
REMARK  3 active torsions:
REMARK  status: ('A' for Active; 'I' for Inactive)
REMARK    1  A    between atoms: C_7  and  C_6 
REMARK    2  A    between atoms: C_9  and  C_6 
REMARK    3  A    between atoms: N_10  and  C_7 
ROOT
HETATM    1  C   UNK N   1      35.248  12.676  13.299  0.00  0.00     0.165 C 
HETATM    2  N   UNK N   1      34.363  11.791  13.390  0.00  0.00    -0.390 N 
ATOM      3  HN  UNK N   1      33.937  11.369  12.564  1.00  0.00     0.159 HD
HETATM    4  S   UNK N   1      36.244  13.672  13.267  0.00  0.00    -0.075 SA
ENDROOT
BRANCH   2   5
HETATM    5  C   UNK N   1      33.984  11.404  14.710  0.00  0.00     0.124 C 
BRANCH   5   6
HETATM    6  C   UNK N   1      35.091  10.755  15.517  0.00  0.00     0.058 C 
BRANCH   6   7
HETATM    7  C   UNK N   1      35.167  11.428  16.863  0.00  0.00    -0.057 A 
HETATM    8  C   UNK N   1      35.081  12.831  16.983  0.00  0.00     0.007 A 
HETATM    9  C   UNK N   1      35.151  13.446  18.229  0.00  0.00     0.001 A 
HETATM   10  C   UNK N   1      35.309  12.668  19.375  0.00  0.00     0.000 A 
HETATM   11  C   UNK N   1      35.396  11.275  19.269  0.00  0.00     0.001 A 
HETATM   12  C   UNK N   1      35.325  10.656  18.016  0.00  0.00     0.007 A 
ENDBRANCH   6   7
ENDBRANCH   5   6
ENDBRANCH   2   5
TORSDOF 3
ENDMDL
MODEL 3
REMARK VINA RESULT:      -4.3     14.802     15.607
REMARK  3 active torsions:
REMARK  status: ('A' for Active; 'I' for Inactive)
REMARK    1  A    between atoms: C_7  and  C_6 
REMARK    2  A    between atoms: C_9  and  C_6 
REMARK    3  A    between atoms: N_10  and  C_7 
ROOT
HETATM    1  C   UNK N   1      20.076  16.449   8.682  0.00  0.00     0.165 C 
HETATM    2  N   UNK N   1      21.010  15.636   8.475  0.00  0.00    -0.390 N 
ATOM      3  HN  UNK N   1      21.966  15.947   8.306  1.00  0.00     0.159 HD
HETATM    4  S   UNK N   1      18.985  17.307   8.921  0.00  0.00    -0.075 SA
ENDROOT
BRANCH   2   5
HETATM    5  C   UNK N   1      20.662  14.252   8.491  0.00  0.00     0.124 C 
BRANCH   5   6
HETATM    6  C   UNK N   1      21.786  13.318   8.087  0.00  0.00     0.058 C 
BRANCH   6   7
HETATM    7  C   UNK N   1      22.490  12.843   9.331  0.00  0.00    -0.057 A 
HETATM    8  C   UNK N   1      23.895  12.720   9.373  0.00  0.00     0.007 A 
HETATM    9  C   UNK N   1      24.539  12.281  10.525  0.00  0.00     0.001 A 
HETATM   10  C   UNK N   1      23.789  11.957  11.655  0.00  0.00     0.000 A 
HETATM   11  C   UNK N   1      22.394  12.074  11.626  0.00  0.00     0.001 A 
HETATM   12  C   UNK N   1      21.745  12.516  10.467  0.00  0.00     0.007 A 
ENDBRANCH   6   7
ENDBRANCH   5   6
ENDBRANCH   2   5
TORSDOF 3
ENDMDL
MODEL 4
REMARK VINA RESULT:      -4.3     23.541     25.643
REMARK  3 active torsions:
REMARK  status: ('A' for Active; 'I' for Inactive)
REMARK    1  A    between atoms: C_7  and  C_6 
REMARK    2  A    between atoms: C_9  and  C_6 
REMARK    3  A    between atoms: N_10  and  C_7 
ROOT
HETATM    1  C   UNK N   1      29.781  22.652  -4.260  0.00  0.00     0.165 C 
HETATM    2  N   UNK N   1      29.154  23.690  -4.585  0.00  0.00    -0.390 N 
ATOM      3  HN  UNK N   1      29.180  24.058  -5.536  1.00  0.00     0.159 HD
HETATM    4  S   UNK N   1      30.460  21.496  -3.830  0.00  0.00    -0.075 SA
ENDROOT
BRANCH   2   5
HETATM    5  C   UNK N   1      28.401  24.327  -3.554  0.00  0.00     0.124 C 
BRANCH   5   6
HETATM    6  C   UNK N   1      26.902  24.128  -3.657  0.00  0.00     0.058 C 
BRANCH   6   7
HETATM    7  C   UNK N   1      26.273  25.418  -4.118  0.00  0.00    -0.057 A 
HETATM    8  C   UNK N   1      25.577  25.494  -5.342  0.00  0.00     0.007 A 
HETATM    9  C   UNK N   1      24.999  26.688  -5.761  0.00  0.00     0.001 A 
HETATM   10  C   UNK N   1      25.108  27.825  -4.963  0.00  0.00     0.000 A 
HETATM   11  C   UNK N   1      25.796  27.763  -3.745  0.00  0.00     0.001 A 
HETATM   12  C   UNK N   1      26.378  26.562  -3.323  0.00  0.00     0.007 A 
ENDBRANCH   6   7
ENDBRANCH   5   6
ENDBRANCH   2   5
TORSDOF 3
ENDMDL
MODEL 5
REMARK VINA RESULT:      -4.2     11.519     13.810
REMARK  3 active torsions:
REMARK  status: ('A' for Active; 'I' for Inactive)
REMARK    1  A    between atoms: C_7  and  C_6 
REMARK    2  A    between atoms: C_9  and  C_6 
REMARK    3  A    between atoms: N_10  and  C_7 
ROOT
HETATM    1  C   UNK N   1      31.362  17.811   8.687  0.00  0.00     0.165 C 
HETATM    2  N   UNK N   1      30.338  18.047   9.374  0.00  0.00    -0.390 N 
ATOM      3  HN  UNK N   1      30.303  17.848  10.374  1.00  0.00     0.159 HD
HETATM    4  S   UNK N   1      32.476  17.571   7.861  0.00  0.00    -0.075 SA
ENDROOT
BRANCH   2   5
HETATM    5  C   UNK N   1      29.224  18.611   8.682  0.00  0.00     0.124 C 
BRANCH   5   6
HETATM    6  C   UNK N   1      28.844  17.885   7.407  0.00  0.00     0.058 C 
BRANCH   6   7
HETATM    7  C   UNK N   1      28.187  18.866   6.470  0.00  0.00    -0.057 A 
HETATM    8  C   UNK N   1      27.633  20.072   6.947  0.00  0.00     0.007 A 
HETATM    9  C   UNK N   1      27.028  20.974   6.077  0.00  0.00     0.001 A 
HETATM   10  C   UNK N   1      26.968  20.683   4.715  0.00  0.00     0.000 A 
HETATM   11  C   UNK N   1      27.515  19.490   4.228  0.00  0.00     0.001 A 
HETATM   12  C   UNK N   1      28.123  18.583   5.103  0.00  0.00     0.007 A 
ENDBRANCH   6   7
ENDBRANCH   5   6
ENDBRANCH   2   5
TORSDOF 3
ENDMDL
MODEL 6
REMARK VINA RESULT:      -4.2      1.838      2.337
REMARK  3 active torsions:
REMARK  status: ('A' for Active; 'I' for Inactive)
REMARK    1  A    between atoms: C_7  and  C_6 
REMARK    2  A    between atoms: C_9  and  C_6 
REMARK    3  A    between atoms: N_10  and  C_7 
ROOT
HETATM    1  C   UNK N   1      37.747  11.417  14.337  0.00  0.00     0.165 C 
HETATM    2  N   UNK N   1      37.388  12.593  14.082  0.00  0.00    -0.390 N 
ATOM      3  HN  UNK N   1      37.948  13.210  13.494  1.00  0.00     0.159 HD
HETATM    4  S   UNK N   1      38.091  10.091  14.662  0.00  0.00    -0.075 SA
ENDROOT
BRANCH   2   5
HETATM    5  C   UNK N   1      36.155  13.020  14.658  0.00  0.00     0.124 C 
BRANCH   5   6
HETATM    6  C   UNK N   1      35.345  11.913  15.303  0.00  0.00     0.058 C 
BRANCH   6   7
HETATM    7  C   UNK N   1      35.326  12.133  16.793  0.00  0.00    -0.057 A 
HETATM    8  C   UNK N   1      35.471  11.055  17.692  0.00  0.00     0.007 A 
HETATM    9  C   UNK N   1      35.453  11.265  19.067  0.00  0.00     0.001 A 
HETATM   10  C   UNK N   1      35.289  12.557  19.566  0.00  0.00     0.000 A 
HETATM   11  C   UNK N   1      35.145  13.635  18.685  0.00  0.00     0.001 A 
HETATM   12  C   UNK N   1      35.163  13.424  17.301  0.00  0.00     0.007 A 
ENDBRANCH   6   7
ENDBRANCH   5   6
ENDBRANCH   2   5
TORSDOF 3
ENDMDL
MODEL 7
REMARK VINA RESULT:      -4.2     27.747     28.354
REMARK  3 active torsions:
REMARK  status: ('A' for Active; 'I' for Inactive)
REMARK    1  A    between atoms: C_7  and  C_6 
REMARK    2  A    between atoms: C_9  and  C_6 
REMARK    3  A    between atoms: N_10  and  C_7 
ROOT
HETATM    1  C   UNK N   1      25.582  23.792  -8.734  0.00  0.00     0.165 C 
HETATM    2  N   UNK N   1      25.198  23.995  -7.556  0.00  0.00    -0.390 N 
ATOM      3  HN  UNK N   1      24.374  23.532  -7.172  1.00  0.00     0.159 HD
HETATM    4  S   UNK N   1      26.066  23.610 -10.044  0.00  0.00    -0.075 SA
ENDROOT
BRANCH   2   5
HETATM    5  C   UNK N   1      25.976  24.906  -6.781  0.00  0.00     0.124 C 
BRANCH   5   6
HETATM    6  C   UNK N   1      26.129  26.283  -7.396  0.00  0.00     0.058 C 
BRANCH   6   7
HETATM    7  C   UNK N   1      26.269  27.295  -6.288  0.00  0.00    -0.057 A 
HETATM    8  C   UNK N   1      25.424  27.262  -5.159  0.00  0.00     0.007 A 
HETATM    9  C   UNK N   1      25.558  28.199  -4.140  0.00  0.00     0.001 A 
HETATM   10  C   UNK N   1      26.539  29.184  -4.233  0.00  0.00     0.000 A 
HETATM   11  C   UNK N   1      27.384  29.228  -5.349  0.00  0.00     0.001 A 
HETATM   12  C   UNK N   1      27.249  28.286  -6.375  0.00  0.00     0.007 A 
ENDBRANCH   6   7
ENDBRANCH   5   6
ENDBRANCH   2   5
TORSDOF 3
ENDMDL
MODEL 8
REMARK VINA RESULT:      -4.0      7.676     10.711
REMARK  3 active torsions:
REMARK  status: ('A' for Active; 'I' for Inactive)
REMARK    1  A    between atoms: C_7  and  C_6 
REMARK    2  A    between atoms: C_9  and  C_6 
REMARK    3  A    between atoms: N_10  and  C_7 
ROOT
HETATM    1  C   UNK N   1      35.814  15.127   9.357  0.00  0.00     0.165 C 
HETATM    2  N   UNK N   1      34.951  15.740   8.683  0.00  0.00    -0.390 N 
ATOM      3  HN  UNK N   1      34.569  15.354   7.820  1.00  0.00     0.159 HD
HETATM    4  S   UNK N   1      36.782  14.492  10.160  0.00  0.00    -0.075 SA
ENDROOT
BRANCH   2   5
HETATM    5  C   UNK N   1      34.530  17.006   9.189  0.00  0.00     0.124 C 
BRANCH   5   6
HETATM    6  C   UNK N   1      34.409  18.093   8.140  0.00  0.00     0.058 C 
BRANCH   6   7
HETATM    7  C   UNK N   1      33.325  17.707   7.167  0.00  0.00    -0.057 A 
HETATM    8  C   UNK N   1      33.599  17.555   5.792  0.00  0.00     0.007 A 
HETATM    9  C   UNK N   1      32.593  17.198   4.899  0.00  0.00     0.001 A 
HETATM   10  C   UNK N   1      31.297  16.988   5.367  0.00  0.00     0.000 A 
HETATM   11  C   UNK N   1      31.012  17.136   6.730  0.00  0.00     0.001 A 
HETATM   12  C   UNK N   1      32.023  17.495   7.628  0.00  0.00     0.007 A 
ENDBRANCH   6   7
ENDBRANCH   5   6
ENDBRANCH   2   5
TORSDOF 3
ENDMDL
MODEL 9
REMARK VINA RESULT:      -4.0     11.265     12.871
REMARK  3 active torsions:
REMARK  status: ('A' for Active; 'I' for Inactive)
REMARK    1  A    between atoms: C_7  and  C_6 
REMARK    2  A    between atoms: C_9  and  C_6 
REMARK    3  A    between atoms: N_10  and  C_7 
ROOT
HETATM    1  C   UNK N   1      27.795  18.647   4.323  0.00  0.00     0.165 C 
HETATM    2  N   UNK N   1      29.042  18.564   4.440  0.00  0.00    -0.390 N 
ATOM      3  HN  UNK N   1      29.636  19.393   4.460  1.00  0.00     0.159 HD
HETATM    4  S   UNK N   1      26.392  18.669   4.196  0.00  0.00    -0.075 SA
ENDROOT
BRANCH   2   5
HETATM    5  C   UNK N   1      29.585  17.249   4.544  0.00  0.00     0.124 C 
BRANCH   5   6
HETATM    6  C   UNK N   1      29.778  16.760   5.966  0.00  0.00     0.058 C 
BRANCH   6   7
HETATM    7  C   UNK N   1      31.165  17.136   6.422  0.00  0.00    -0.057 A 
HETATM    8  C   UNK N   1      32.253  17.137   5.525  0.00  0.00     0.007 A 
HETATM    9  C   UNK N   1      33.530  17.485   5.952  0.00  0.00     0.001 A 
HETATM   10  C   UNK N   1      33.740  17.837   7.285  0.00  0.00     0.000 A 
HETATM   11  C   UNK N   1      32.668  17.840   8.185  0.00  0.00     0.001 A 
HETATM   12  C   UNK N   1      31.383  17.490   7.756  0.00  0.00     0.007 A 
ENDBRANCH   6   7
ENDBRANCH   5   6
ENDBRANCH   2   5
TORSDOF 3
ENDMDL
