MODEL 1
REMARK VINA RESULT:      -9.9      0.000      0.000
REMARK  18 active torsions:
REMARK  status: ('A' for Active; 'I' for Inactive)
REMARK    1  A    between atoms: C_3  and  N_50 
REMARK    2  A    between atoms: C_6  and  C_7 
REMARK       I    between atoms: C_7  and  N_9 
REMARK    3  A    between atoms: N_9  and  C_10 
REMARK    4  A    between atoms: C_41  and  N_9 
REMARK    5  A    between atoms: C_10  and  C_11 
REMARK    6  A    between atoms: C_11  and  N_12 
REMARK    7  A    between atoms: N_12  and  C_13 
REMARK    8  A    between atoms: C_13  and  N_15 
REMARK    9  A    between atoms: N_15  and  C_16 
REMARK   10  A    between atoms: C_29  and  O_40 
REMARK   11  A    between atoms: C_37  and  O_39 
REMARK   12  A    between atoms: C_41  and  C_42 
REMARK   13  A    between atoms: C_41  and  C_47 
REMARK   14  A    between atoms: C_42  and  C_43 
REMARK   15  A    between atoms: C_43  and  C_44 
REMARK       I    between atoms: C_44  and  N_46 
REMARK   16  A    between atoms: C_47  and  O_49 
REMARK   17  A    between atoms: N_50  and  C_51 
REMARK   18  A    between atoms: C_51  and  C_52 
REMARK       I    between atoms: C_63  and  N_66 
ROOT
HETATM    1  C   UNK N   1      23.990  17.180   3.680  0.00  0.00     0.254 C 
HETATM    2  O   UNK N   1      24.503  16.348   2.943  0.00  0.00    -0.267 OA
HETATM    3  N   UNK N   1      22.600  17.288   3.753  0.00  0.00    -0.332 N 
ENDROOT
BRANCH   3   4
HETATM    4  C   UNK N   1      21.749  16.511   2.846  0.00  0.00     0.147 C 
BRANCH   4   5
HETATM    5  C   UNK N   1      20.803  15.502   3.518  0.00  0.00     0.142 C 
BRANCH   5   6
HETATM    6  N   UNK N   1      19.922  14.886   2.561  0.00  0.00    -0.365 N 
HETATM    7  H   UNK N   1      19.256  15.435   2.088  0.00  0.00     0.161 HD
BRANCH   6   8
HETATM    8  C   UNK N   1      20.002  13.501   2.297  0.00  0.00     0.172 C 
HETATM    9  S   UNK N   1      20.692  13.027   1.130  0.00  0.00    -0.041 SA
BRANCH   8  10
HETATM   10  N   UNK N   1      19.508  12.565   3.237  0.00  0.00    -0.333 N 
HETATM   11  H   UNK N   1      18.667  12.106   3.015  0.00  0.00     0.168 HD
BRANCH  10  12
HETATM   12  C   UNK N   1      20.125  12.233   4.471  0.00  0.00     0.035 A 
HETATM   13  C   UNK N   1      21.125  11.228   4.597  0.00  0.00     0.030 A 
HETATM   14  C   UNK N   1      21.957  11.193   5.738  0.00  0.00     0.014 A 
HETATM   15  C   UNK N   1      21.778  12.191   6.711  0.00  0.00     0.003 A 
HETATM   16  C   UNK N   1      20.740  13.066   6.603  0.00  0.00     0.051 A 
HETATM   17  C   UNK N   1      22.840  12.821   7.631  0.00  0.00     0.159 C 
HETATM   18  C   UNK N   1      19.902  13.115   5.519  0.00  0.00     0.048 A 
HETATM   19  C   UNK N   1      20.950  14.092   7.535  0.00  0.00     0.295 C 
HETATM   20  O   UNK N   1      20.206  15.036   7.739  0.00  0.00    -0.259 OA
HETATM   21  O   UNK N   1      22.181  13.987   8.045  0.00  0.00    -0.291 OA
HETATM   22  C   UNK N   1      24.026  13.253   6.772  0.00  0.00     0.020 A 
HETATM   23  C   UNK N   1      23.306  12.297   8.963  0.00  0.00     0.020 A 
HETATM   24  C   UNK N   1      23.982  13.215   5.362  0.00  0.00     0.016 A 
HETATM   25  C   UNK N   1      25.168  13.754   7.403  0.00  0.00     0.088 A 
HETATM   26  C   UNK N   1      25.047  13.671   4.598  0.00  0.00     0.037 A 
HETATM   27  C   UNK N   1      26.170  14.197   5.231  0.00  0.00     0.068 A 
HETATM   28  C   UNK N   1      26.234  14.238   6.632  0.00  0.00     0.074 A 
HETATM   29  O   UNK N   1      25.260  13.720   8.755  0.00  0.00    -0.309 OA
HETATM   30  C   UNK N   1      24.443  12.946   9.525  0.00  0.00     0.088 A 
HETATM   31  C   UNK N   1      24.721  12.818  10.883  0.00  0.00     0.074 A 
HETATM   32  C   UNK N   1      23.887  12.062  11.702  0.00  0.00     0.068 A 
HETATM   33  C   UNK N   1      22.776  11.404  11.158  0.00  0.00     0.037 A 
HETATM   34  C   UNK N   1      22.468  11.543   9.797  0.00  0.00     0.016 A 
BRANCH  27  35
HETATM   35  O   UNK N   1      27.191  14.657   4.493  0.00  0.00    -0.361 OA
HETATM   36  H   UNK N   1      27.144  15.501   4.089  0.00  0.00     0.217 HD
ENDBRANCH  27  35
BRANCH  32  37
HETATM   37  O   UNK N   1      24.141  11.986  13.019  0.00  0.00    -0.361 OA
HETATM   38  H   UNK N   1      23.614  12.458  13.633  0.00  0.00     0.217 HD
ENDBRANCH  32  37
ENDBRANCH  10  12
ENDBRANCH   8  10
ENDBRANCH   6   8
ENDBRANCH   5   6
ENDBRANCH   4   5
ENDBRANCH   3   4
BRANCH   3  39
HETATM   39  C   UNK N   1      21.961  18.379   4.515  0.00  0.00     0.185 C 
BRANCH  39  40
HETATM   40  C   UNK N   1      20.749  19.039   3.860  0.00  0.00     0.045 C 
BRANCH  40  41
HETATM   41  C   UNK N   1      21.292  20.128   2.917  0.00  0.00     0.105 C 
BRANCH  41  42
HETATM   42  C   UNK N   1      20.966  19.941   1.474  0.00  0.00     0.215 C 
HETATM   43  O   UNK N   1      21.327  20.764   0.650  0.00  0.00    -0.274 OA
HETATM   44  N   UNK N   1      20.183  18.910   1.096  0.00  0.00    -0.370 N 
HETATM   45  H   UNK N   1      20.227  17.974   1.397  0.00  0.00     0.159 HD
HETATM   46  H   UNK N   1      19.483  19.119   0.437  0.00  0.00     0.159 HD
ENDBRANCH  41  42
ENDBRANCH  40  41
ENDBRANCH  39  40
BRANCH  39  47
HETATM   47  C   UNK N   1      21.633  18.084   5.939  0.00  0.00     0.163 C 
HETATM   48  O   UNK N   1      22.061  17.064   6.451  0.00  0.00    -0.648 OA
BRANCH  47  49
HETATM   49  O   UNK N   1      20.985  18.995   6.690  0.00  0.00    -0.775 OA
HETATM   50  H   UNK N   1      20.154  19.250   7.041  0.00  0.00     0.167 HD
ENDBRANCH  47  49
ENDBRANCH  39  47
ENDBRANCH   3  39
BRANCH   1  51
HETATM   51  C   UNK N   1      24.882  18.223   4.230  0.00  0.00     0.032 C 
HETATM   52  C   UNK N   1      25.536  19.121   3.377  0.00  0.00     0.019 C 
HETATM   53  C   UNK N   1      26.890  19.357   3.545  0.00  0.00     0.030 C 
HETATM   54  C   UNK N   1      27.561  18.694   4.569  0.00  0.00     0.028 C 
HETATM   55  C   UNK N   1      26.862  18.023   5.561  0.00  0.00     0.030 C 
HETATM   56  C   UNK N   1      25.510  17.805   5.405  0.00  0.00     0.019 C 
BRANCH  54  57
HETATM   57  N   UNK N   1      28.928  18.455   4.486  0.00  0.00    -0.384 N 
HETATM   58  H   UNK N   1      29.517  19.244   4.455  0.00  0.00     0.160 HD
BRANCH  57  59
HETATM   59  C   UNK N   1      29.567  17.165   4.442  0.00  0.00     0.178 C 
BRANCH  59  60
HETATM   60  C   UNK N   1      30.316  17.083   5.713  0.00  0.00     0.043 A 
HETATM   61  C   UNK N   1      29.704  16.838   6.944  0.00  0.00     0.116 A 
HETATM   62  N   UNK N   1      30.475  16.809   8.070  0.00  0.00    -0.348 N 
HETATM   63  C   UNK N   1      31.823  17.018   8.000  0.00  0.00     0.153 A 
ATOM     64  HN  UNK N   1      30.040  16.630   8.975  1.00  0.00     0.167 HD
HETATM   65  C   UNK N   1      32.414  17.264   6.760  0.00  0.00     0.147 A 
HETATM   66  N   UNK N   1      32.598  16.987   9.111  0.00  0.00    -0.174 N 
HETATM   67  N   UNK N   1      31.654  17.291   5.665  0.00  0.00    -0.350 N 
HETATM   68  C   UNK N   1      33.783  17.478   6.678  0.00  0.00     0.290 A 
ATOM     69  HN  UNK N   1      32.094  17.472   4.763  1.00  0.00     0.166 HD
HETATM   70  O   UNK N   1      34.314  17.699   5.601  0.00  0.00    -0.265 OA
HETATM   71  N   UNK N   1      34.530  17.438   7.818  0.00  0.00    -0.154 N 
HETATM   72  C   UNK N   1      33.944  17.194   9.024  0.00  0.00     0.680 A 
HETATM   73  H   UNK N   1      35.502  17.588   7.770  0.00  0.00     0.187 HD
HETATM   74  N   UNK N   1      34.735  17.153  10.184  0.00  0.00    -0.234 N 
HETATM   75  H   UNK N   1      34.316  16.999  11.061  0.00  0.00     0.174 HD
HETATM   76  H   UNK N   1      35.710  17.278  10.120  0.00  0.00     0.174 HD
ATOM     77  HN  UNK N   1      32.171  16.807  10.019  1.00  0.00     0.186 HD
ENDBRANCH  59  60
ENDBRANCH  57  59
ENDBRANCH  54  57
ENDBRANCH   1  51
TORSDOF 18
ENDMDL
MODEL 2
REMARK VINA RESULT:      -9.6      3.972      8.294
REMARK  18 active torsions:
REMARK  status: ('A' for Active; 'I' for Inactive)
REMARK    1  A    between atoms: C_3  and  N_50 
REMARK    2  A    between atoms: C_6  and  C_7 
REMARK       I    between atoms: C_7  and  N_9 
REMARK    3  A    between atoms: N_9  and  C_10 
REMARK    4  A    between atoms: C_41  and  N_9 
REMARK    5  A    between atoms: C_10  and  C_11 
REMARK    6  A    between atoms: C_11  and  N_12 
REMARK    7  A    between atoms: N_12  and  C_13 
REMARK    8  A    between atoms: C_13  and  N_15 
REMARK    9  A    between atoms: N_15  and  C_16 
REMARK   10  A    between atoms: C_29  and  O_40 
REMARK   11  A    between atoms: C_37  and  O_39 
REMARK   12  A    between atoms: C_41  and  C_42 
REMARK   13  A    between atoms: C_41  and  C_47 
REMARK   14  A    between atoms: C_42  and  C_43 
REMARK   15  A    between atoms: C_43  and  C_44 
REMARK       I    between atoms: C_44  and  N_46 
REMARK   16  A    between atoms: C_47  and  O_49 
REMARK   17  A    between atoms: N_50  and  C_51 
REMARK   18  A    between atoms: C_51  and  C_52 
REMARK       I    between atoms: C_63  and  N_66 
ROOT
HETATM    1  C   UNK N   1      30.788  17.622   8.248  0.00  0.00     0.254 C 
HETATM    2  O   UNK N   1      30.561  18.067   9.365  0.00  0.00    -0.267 OA
HETATM    3  N   UNK N   1      29.749  17.481   7.326  0.00  0.00    -0.332 N 
ENDROOT
BRANCH   3   4
HETATM    4  C   UNK N   1      28.362  17.727   7.733  0.00  0.00     0.147 C 
BRANCH   4   5
HETATM    5  C   UNK N   1      27.859  19.170   7.556  0.00  0.00     0.142 C 
BRANCH   5   6
HETATM    6  N   UNK N   1      26.799  19.245   6.587  0.00  0.00    -0.365 N 
HETATM    7  H   UNK N   1      26.100  18.552   6.572  0.00  0.00     0.161 HD
BRANCH   6   8
HETATM    8  C   UNK N   1      26.752  20.305   5.654  0.00  0.00     0.172 C 
HETATM    9  S   UNK N   1      27.124  21.634   6.051  0.00  0.00    -0.041 SA
BRANCH   8  10
HETATM   10  N   UNK N   1      26.452  20.047   4.295  0.00  0.00    -0.333 N 
HETATM   11  H   UNK N   1      26.920  20.589   3.620  0.00  0.00     0.168 HD
BRANCH  10  12
HETATM   12  C   UNK N   1      25.535  19.071   3.824  0.00  0.00     0.035 A 
HETATM   13  C   UNK N   1      25.938  17.797   3.332  0.00  0.00     0.030 A 
HETATM   14  C   UNK N   1      24.999  16.746   3.232  0.00  0.00     0.014 A 
HETATM   15  C   UNK N   1      23.684  16.998   3.658  0.00  0.00     0.003 A 
HETATM   16  C   UNK N   1      23.317  18.260   4.018  0.00  0.00     0.051 A 
HETATM   17  C   UNK N   1      22.685  16.011   4.290  0.00  0.00     0.159 C 
HETATM   18  C   UNK N   1      24.197  19.307   4.108  0.00  0.00     0.048 A 
HETATM   19  C   UNK N   1      22.063  18.176   4.639  0.00  0.00     0.295 C 
HETATM   20  O   UNK N   1      21.412  19.115   5.066  0.00  0.00    -0.259 OA
HETATM   21  O   UNK N   1      21.759  16.895   4.864  0.00  0.00    -0.291 OA
HETATM   22  C   UNK N   1      23.386  15.285   5.436  0.00  0.00     0.020 A 
HETATM   23  C   UNK N   1      21.747  15.086   3.562  0.00  0.00     0.020 A 
HETATM   24  C   UNK N   1      24.669  15.660   5.886  0.00  0.00     0.016 A 
HETATM   25  C   UNK N   1      22.709  14.254   6.093  0.00  0.00     0.088 A 
HETATM   26  C   UNK N   1      25.263  15.027   6.969  0.00  0.00     0.037 A 
HETATM   27  C   UNK N   1      24.574  14.022   7.639  0.00  0.00     0.068 A 
HETATM   28  C   UNK N   1      23.298  13.631   7.203  0.00  0.00     0.074 A 
HETATM   29  O   UNK N   1      21.513  13.825   5.623  0.00  0.00    -0.309 OA
HETATM   30  C   UNK N   1      21.071  14.125   4.368  0.00  0.00     0.088 A 
HETATM   31  C   UNK N   1      19.924  13.494   3.890  0.00  0.00     0.074 A 
HETATM   32  C   UNK N   1      19.429  13.803   2.626  0.00  0.00     0.068 A 
HETATM   33  C   UNK N   1      20.096  14.733   1.818  0.00  0.00     0.037 A 
HETATM   34  C   UNK N   1      21.237  15.395   2.294  0.00  0.00     0.016 A 
BRANCH  27  35
HETATM   35  O   UNK N   1      25.138  13.425   8.700  0.00  0.00    -0.361 OA
HETATM   36  H   UNK N   1      24.615  13.157   9.430  0.00  0.00     0.217 HD
ENDBRANCH  27  35
BRANCH  32  37
HETATM   37  O   UNK N   1      18.296  13.223   2.198  0.00  0.00    -0.361 OA
HETATM   38  H   UNK N   1      18.300  12.334   1.901  0.00  0.00     0.217 HD
ENDBRANCH  32  37
ENDBRANCH  10  12
ENDBRANCH   8  10
ENDBRANCH   6   8
ENDBRANCH   5   6
ENDBRANCH   4   5
ENDBRANCH   3   4
BRANCH   3  39
HETATM   39  C   UNK N   1      29.968  16.809   6.030  0.00  0.00     0.185 C 
BRANCH  39  40
HETATM   40  C   UNK N   1      29.016  15.662   5.698  0.00  0.00     0.045 C 
BRANCH  40  41
HETATM   41  C   UNK N   1      29.891  14.452   5.324  0.00  0.00     0.105 C 
BRANCH  41  42
HETATM   42  C   UNK N   1      30.316  14.390   3.896  0.00  0.00     0.215 C 
HETATM   43  O   UNK N   1      31.447  14.714   3.575  0.00  0.00    -0.274 OA
HETATM   44  N   UNK N   1      29.414  14.072   2.946  0.00  0.00    -0.370 N 
HETATM   45  H   UNK N   1      28.738  13.357   2.968  0.00  0.00     0.159 HD
HETATM   46  H   UNK N   1      29.433  14.623   2.130  0.00  0.00     0.159 HD
ENDBRANCH  41  42
ENDBRANCH  40  41
ENDBRANCH  39  40
BRANCH  39  47
HETATM   47  C   UNK N   1      30.081  17.697   4.838  0.00  0.00     0.163 C 
HETATM   48  O   UNK N   1      29.138  18.403   4.527  0.00  0.00    -0.648 OA
BRANCH  47  49
HETATM   49  O   UNK N   1      31.256  17.819   4.191  0.00  0.00    -0.775 OA
HETATM   50  H   UNK N   1      31.953  18.404   3.968  0.00  0.00     0.167 HD
ENDBRANCH  47  49
ENDBRANCH  39  47
ENDBRANCH   3  39
BRANCH   1  51
HETATM   51  C   UNK N   1      32.105  16.983   8.039  0.00  0.00     0.032 C 
HETATM   52  C   UNK N   1      32.339  15.676   8.487  0.00  0.00     0.019 C 
HETATM   53  C   UNK N   1      33.491  15.397   9.203  0.00  0.00     0.030 C 
HETATM   54  C   UNK N   1      34.390  16.431   9.451  0.00  0.00     0.028 C 
HETATM   55  C   UNK N   1      34.282  17.643   8.785  0.00  0.00     0.030 C 
HETATM   56  C   UNK N   1      33.145  17.914   8.055  0.00  0.00     0.019 C 
BRANCH  54  57
HETATM   57  N   UNK N   1      35.243  16.386  10.547  0.00  0.00    -0.384 N 
HETATM   58  H   UNK N   1      35.053  17.009  11.285  0.00  0.00     0.160 HD
BRANCH  57  59
HETATM   59  C   UNK N   1      36.379  15.515  10.709  0.00  0.00     0.178 C 
BRANCH  59  60
HETATM   60  C   UNK N   1      35.979  14.587  11.785  0.00  0.00     0.043 A 
HETATM   61  C   UNK N   1      35.095  13.523  11.586  0.00  0.00     0.116 A 
HETATM   62  N   UNK N   1      34.762  12.735  12.650  0.00  0.00    -0.348 N 
HETATM   63  C   UNK N   1      35.279  12.979  13.891  0.00  0.00     0.153 A 
ATOM     64  HN  UNK N   1      34.118  11.955  12.517  1.00  0.00     0.167 HD
HETATM   65  C   UNK N   1      36.158  14.048  14.068  0.00  0.00     0.147 A 
HETATM   66  N   UNK N   1      34.958  12.200  14.951  0.00  0.00    -0.174 N 
HETATM   67  N   UNK N   1      36.479  14.813  13.025  0.00  0.00    -0.350 N 
HETATM   68  C   UNK N   1      36.688  14.304  15.325  0.00  0.00     0.290 A 
ATOM     69  HN  UNK N   1      37.121  15.593  13.163  1.00  0.00     0.166 HD
HETATM   70  O   UNK N   1      37.456  15.238  15.497  0.00  0.00    -0.265 OA
HETATM   71  N   UNK N   1      36.342  13.498  16.368  0.00  0.00    -0.154 N 
HETATM   72  C   UNK N   1      35.485  12.453  16.184  0.00  0.00     0.680 A 
HETATM   73  H   UNK N   1      36.714  13.671  17.263  0.00  0.00     0.187 HD
HETATM   74  N   UNK N   1      35.147  11.633  17.273  0.00  0.00    -0.234 N 
HETATM   75  H   UNK N   1      34.512  10.892  17.152  0.00  0.00     0.174 HD
HETATM   76  H   UNK N   1      35.546  11.800  18.158  0.00  0.00     0.174 HD
ATOM     77  HN  UNK N   1      34.316  11.417  14.827  1.00  0.00     0.186 HD
ENDBRANCH  59  60
ENDBRANCH  57  59
ENDBRANCH  54  57
ENDBRANCH   1  51
TORSDOF 18
ENDMDL
MODEL 3
REMARK VINA RESULT:      -9.6      2.548      6.987
REMARK  18 active torsions:
REMARK  status: ('A' for Active; 'I' for Inactive)
REMARK    1  A    between atoms: C_3  and  N_50 
REMARK    2  A    between atoms: C_6  and  C_7 
REMARK       I    between atoms: C_7  and  N_9 
REMARK    3  A    between atoms: N_9  and  C_10 
REMARK    4  A    between atoms: C_41  and  N_9 
REMARK    5  A    between atoms: C_10  and  C_11 
REMARK    6  A    between atoms: C_11  and  N_12 
REMARK    7  A    between atoms: N_12  and  C_13 
REMARK    8  A    between atoms: C_13  and  N_15 
REMARK    9  A    between atoms: N_15  and  C_16 
REMARK   10  A    between atoms: C_29  and  O_40 
REMARK   11  A    between atoms: C_37  and  O_39 
REMARK   12  A    between atoms: C_41  and  C_42 
REMARK   13  A    between atoms: C_41  and  C_47 
REMARK   14  A    between atoms: C_42  and  C_43 
REMARK   15  A    between atoms: C_43  and  C_44 
REMARK       I    between atoms: C_44  and  N_46 
REMARK   16  A    between atoms: C_47  and  O_49 
REMARK   17  A    between atoms: N_50  and  C_51 
REMARK   18  A    between atoms: C_51  and  C_52 
REMARK       I    between atoms: C_63  and  N_66 
ROOT
HETATM    1  C   UNK N   1      23.675  11.837   4.701  0.00  0.00     0.254 C 
HETATM    2  O   UNK N   1      23.145  12.182   3.653  0.00  0.00    -0.267 OA
HETATM    3  N   UNK N   1      23.217  10.706   5.378  0.00  0.00    -0.332 N 
ENDROOT
BRANCH   3   4
HETATM    4  C   UNK N   1      22.010  10.009   4.921  0.00  0.00     0.147 C 
BRANCH   4   5
HETATM    5  C   UNK N   1      22.146   9.231   3.601  0.00  0.00     0.142 C 
BRANCH   5   6
HETATM    6  N   UNK N   1      21.195   9.682   2.621  0.00  0.00    -0.365 N 
HETATM    7  H   UNK N   1      20.250   9.792   2.872  0.00  0.00     0.161 HD
BRANCH   6   8
HETATM    8  C   UNK N   1      21.605   9.968   1.300  0.00  0.00     0.172 C 
HETATM    9  S   UNK N   1      22.733   9.286   0.729  0.00  0.00    -0.041 SA
BRANCH   8  10
HETATM   10  N   UNK N   1      20.840  10.840   0.488  0.00  0.00    -0.333 N 
HETATM   11  H   UNK N   1      20.426  10.456  -0.318  0.00  0.00     0.168 HD
BRANCH  10  12
HETATM   12  C   UNK N   1      20.618  12.219   0.740  0.00  0.00     0.035 A 
HETATM   13  C   UNK N   1      19.391  12.730   1.248  0.00  0.00     0.030 A 
HETATM   14  C   UNK N   1      19.343  14.019   1.824  0.00  0.00     0.014 A 
HETATM   15  C   UNK N   1      20.542  14.748   1.901  0.00  0.00     0.003 A 
HETATM   16  C   UNK N   1      21.669  14.267   1.306  0.00  0.00     0.051 A 
HETATM   17  C   UNK N   1      20.967  15.766   2.975  0.00  0.00     0.159 C 
HETATM   18  C   UNK N   1      21.745  13.029   0.721  0.00  0.00     0.048 A 
HETATM   19  C   UNK N   1      22.750  15.039   1.754  0.00  0.00     0.295 C 
HETATM   20  O   UNK N   1      23.912  14.911   1.408  0.00  0.00    -0.259 OA
HETATM   21  O   UNK N   1      22.352  15.823   2.760  0.00  0.00    -0.291 OA
HETATM   22  C   UNK N   1      20.748  15.137   4.348  0.00  0.00     0.020 A 
HETATM   23  C   UNK N   1      20.647  17.237   3.002  0.00  0.00     0.020 A 
HETATM   24  C   UNK N   1      20.394  13.780   4.502  0.00  0.00     0.016 A 
HETATM   25  C   UNK N   1      20.959  15.918   5.488  0.00  0.00     0.088 A 
HETATM   26  C   UNK N   1      20.261  13.211   5.761  0.00  0.00     0.037 A 
HETATM   27  C   UNK N   1      20.502  13.984   6.892  0.00  0.00     0.068 A 
HETATM   28  C   UNK N   1      20.849  15.337   6.760  0.00  0.00     0.074 A 
HETATM   29  O   UNK N   1      21.218  17.242   5.360  0.00  0.00    -0.309 OA
HETATM   30  C   UNK N   1      20.978  17.925   4.204  0.00  0.00     0.088 A 
HETATM   31  C   UNK N   1      21.088  19.313   4.208  0.00  0.00     0.074 A 
HETATM   32  C   UNK N   1      20.882  20.037   3.037  0.00  0.00     0.068 A 
HETATM   33  C   UNK N   1      20.538  19.373   1.852  0.00  0.00     0.037 A 
HETATM   34  C   UNK N   1      20.448  17.974   1.825  0.00  0.00     0.016 A 
BRANCH  27  35
HETATM   35  O   UNK N   1      20.394  13.429   8.109  0.00  0.00    -0.361 OA
HETATM   36  H   UNK N   1      19.551  13.261   8.482  0.00  0.00     0.217 HD
ENDBRANCH  27  35
BRANCH  32  37
HETATM   37  O   UNK N   1      21.038  21.371   3.045  0.00  0.00    -0.361 OA
HETATM   38  H   UNK N   1      21.604  21.787   2.425  0.00  0.00     0.217 HD
ENDBRANCH  32  37
ENDBRANCH  10  12
ENDBRANCH   8  10
ENDBRANCH   6   8
ENDBRANCH   5   6
ENDBRANCH   4   5
ENDBRANCH   3   4
BRANCH   3  39
HETATM   39  C   UNK N   1      23.737  10.356   6.715  0.00  0.00     0.185 C 
BRANCH  39  40
HETATM   40  C   UNK N   1      22.867  10.760   7.903  0.00  0.00     0.045 C 
BRANCH  40  41
HETATM   41  C   UNK N   1      23.800  11.425   8.931  0.00  0.00     0.105 C 
BRANCH  41  42
HETATM   42  C   UNK N   1      23.116  12.050  10.099  0.00  0.00     0.215 C 
HETATM   43  O   UNK N   1      22.690  13.191  10.025  0.00  0.00    -0.274 OA
HETATM   44  N   UNK N   1      23.062  11.389  11.273  0.00  0.00    -0.370 N 
HETATM   45  H   UNK N   1      22.851  10.439  11.423  0.00  0.00     0.159 HD
HETATM   46  H   UNK N   1      23.258  11.920  12.078  0.00  0.00     0.159 HD
ENDBRANCH  41  42
ENDBRANCH  40  41
ENDBRANCH  39  40
BRANCH  39  47
HETATM   47  C   UNK N   1      24.176   8.944   6.901  0.00  0.00     0.163 C 
HETATM   48  O   UNK N   1      23.451   8.166   7.496  0.00  0.00    -0.648 OA
BRANCH  47  49
HETATM   49  O   UNK N   1      25.299   8.497   6.305  0.00  0.00    -0.775 OA
HETATM   50  H   UNK N   1      26.231   8.580   6.263  0.00  0.00     0.167 HD
ENDBRANCH  47  49
ENDBRANCH  39  47
ENDBRANCH   3  39
BRANCH   1  51
HETATM   51  C   UNK N   1      24.585  12.812   5.341  0.00  0.00     0.032 C 
HETATM   52  C   UNK N   1      24.071  13.861   6.114  0.00  0.00     0.019 C 
HETATM   53  C   UNK N   1      24.535  15.149   5.909  0.00  0.00     0.030 C 
HETATM   54  C   UNK N   1      25.510  15.361   4.938  0.00  0.00     0.028 C 
HETATM   55  C   UNK N   1      26.195  14.295   4.372  0.00  0.00     0.030 C 
HETATM   56  C   UNK N   1      25.746  13.011   4.593  0.00  0.00     0.019 C 
BRANCH  54  57
HETATM   57  N   UNK N   1      25.639  16.597   4.316  0.00  0.00    -0.384 N 
HETATM   58  H   UNK N   1      25.551  16.613   3.335  0.00  0.00     0.160 HD
BRANCH  57  59
HETATM   59  C   UNK N   1      25.891  17.857   4.966  0.00  0.00     0.178 C 
BRANCH  59  60
HETATM   60  C   UNK N   1      27.265  17.729   5.493  0.00  0.00     0.043 A 
HETATM   61  C   UNK N   1      28.390  17.618   4.672  0.00  0.00     0.116 A 
HETATM   62  N   UNK N   1      29.617  17.474   5.250  0.00  0.00    -0.348 N 
HETATM   63  C   UNK N   1      29.750  17.437   6.609  0.00  0.00     0.153 A 
ATOM     64  HN  UNK N   1      30.446  17.393   4.661  1.00  0.00     0.167 HD
HETATM   65  C   UNK N   1      28.613  17.546   7.412  0.00  0.00     0.147 A 
HETATM   66  N   UNK N   1      30.965  17.299   7.194  0.00  0.00    -0.174 N 
HETATM   67  N   UNK N   1      27.418  17.686   6.839  0.00  0.00    -0.350 N 
HETATM   68  C   UNK N   1      28.738  17.508   8.793  0.00  0.00     0.290 A 
ATOM     69  HN  UNK N   1      26.593  17.765   7.432  1.00  0.00     0.166 HD
HETATM   70  O   UNK N   1      27.752  17.599   9.509  0.00  0.00    -0.265 OA
HETATM   71  N   UNK N   1      29.977  17.370   9.345  0.00  0.00    -0.154 N 
HETATM   72  C   UNK N   1      31.082  17.267   8.553  0.00  0.00     0.680 A 
HETATM   73  H   UNK N   1      30.075  17.343  10.324  0.00  0.00     0.187 HD
HETATM   74  N   UNK N   1      32.349  17.129   9.144  0.00  0.00    -0.234 N 
HETATM   75  H   UNK N   1      33.148  17.032   8.578  0.00  0.00     0.174 HD
HETATM   76  H   UNK N   1      32.437  17.130  10.124  0.00  0.00     0.174 HD
ATOM     77  HN  UNK N   1      31.799  17.219   6.612  1.00  0.00     0.186 HD
ENDBRANCH  59  60
ENDBRANCH  57  59
ENDBRANCH  54  57
ENDBRANCH   1  51
TORSDOF 18
ENDMDL
MODEL 4
REMARK VINA RESULT:      -9.6      2.718      4.833
REMARK  18 active torsions:
REMARK  status: ('A' for Active; 'I' for Inactive)
REMARK    1  A    between atoms: C_3  and  N_50 
REMARK    2  A    between atoms: C_6  and  C_7 
REMARK       I    between atoms: C_7  and  N_9 
REMARK    3  A    between atoms: N_9  and  C_10 
REMARK    4  A    between atoms: C_41  and  N_9 
REMARK    5  A    between atoms: C_10  and  C_11 
REMARK    6  A    between atoms: C_11  and  N_12 
REMARK    7  A    between atoms: N_12  and  C_13 
REMARK    8  A    between atoms: C_13  and  N_15 
REMARK    9  A    between atoms: N_15  and  C_16 
REMARK   10  A    between atoms: C_29  and  O_40 
REMARK   11  A    between atoms: C_37  and  O_39 
REMARK   12  A    between atoms: C_41  and  C_42 
REMARK   13  A    between atoms: C_41  and  C_47 
REMARK   14  A    between atoms: C_42  and  C_43 
REMARK   15  A    between atoms: C_43  and  C_44 
REMARK       I    between atoms: C_44  and  N_46 
REMARK   16  A    between atoms: C_47  and  O_49 
REMARK   17  A    between atoms: N_50  and  C_51 
REMARK   18  A    between atoms: C_51  and  C_52 
REMARK       I    between atoms: C_63  and  N_66 
ROOT
HETATM    1  C   UNK N   1      23.035  17.196   4.857  0.00  0.00     0.254 C 
HETATM    2  O   UNK N   1      23.405  16.399   5.709  0.00  0.00    -0.267 OA
HETATM    3  N   UNK N   1      21.718  17.166   4.395  0.00  0.00    -0.332 N 
ENDROOT
BRANCH   3   4
HETATM    4  C   UNK N   1      20.812  16.093   4.816  0.00  0.00     0.147 C 
BRANCH   4   5
HETATM    5  C   UNK N   1      20.683  15.882   6.333  0.00  0.00     0.142 C 
BRANCH   5   6
HETATM    6  N   UNK N   1      21.257  14.629   6.744  0.00  0.00    -0.365 N 
HETATM    7  H   UNK N   1      21.475  13.948   6.069  0.00  0.00     0.161 HD
BRANCH   6   8
HETATM    8  C   UNK N   1      21.510  14.367   8.109  0.00  0.00     0.172 C 
HETATM    9  S   UNK N   1      20.713  14.994   9.126  0.00  0.00    -0.041 SA
BRANCH   8  10
HETATM   10  N   UNK N   1      22.472  13.399   8.483  0.00  0.00    -0.333 N 
HETATM   11  H   UNK N   1      22.328  12.927   9.335  0.00  0.00     0.168 HD
BRANCH  10  12
HETATM   12  C   UNK N   1      23.625  13.049   7.733  0.00  0.00     0.035 A 
HETATM   13  C   UNK N   1      23.672  11.930   6.853  0.00  0.00     0.030 A 
HETATM   14  C   UNK N   1      24.682  11.843   5.869  0.00  0.00     0.014 A 
HETATM   15  C   UNK N   1      25.603  12.901   5.779  0.00  0.00     0.003 A 
HETATM   16  C   UNK N   1      25.588  13.896   6.710  0.00  0.00     0.051 A 
HETATM   17  C   UNK N   1      26.318  13.432   4.524  0.00  0.00     0.159 C 
HETATM   18  C   UNK N   1      24.634  14.001   7.689  0.00  0.00     0.048 A 
HETATM   19  C   UNK N   1      26.410  14.929   6.240  0.00  0.00     0.295 C 
HETATM   20  O   UNK N   1      26.656  15.970   6.827  0.00  0.00    -0.259 OA
HETATM   21  O   UNK N   1      26.745  14.692   4.969  0.00  0.00    -0.291 OA
HETATM   22  C   UNK N   1      25.272  13.668   3.437  0.00  0.00     0.020 A 
HETATM   23  C   UNK N   1      27.602  12.917   3.929  0.00  0.00     0.020 A 
HETATM   24  C   UNK N   1      23.889  13.569   3.696  0.00  0.00     0.016 A 
HETATM   25  C   UNK N   1      25.700  14.047   2.162  0.00  0.00     0.088 A 
HETATM   26  C   UNK N   1      22.952  13.848   2.710  0.00  0.00     0.037 A 
HETATM   27  C   UNK N   1      23.382  14.254   1.451  0.00  0.00     0.068 A 
HETATM   28  C   UNK N   1      24.753  14.353   1.173  0.00  0.00     0.074 A 
HETATM   29  O   UNK N   1      27.023  14.066   1.872  0.00  0.00    -0.309 OA
HETATM   30  C   UNK N   1      27.951  13.440   2.652  0.00  0.00     0.088 A 
HETATM   31  C   UNK N   1      29.262  13.342   2.190  0.00  0.00     0.074 A 
HETATM   32  C   UNK N   1      30.239  12.739   2.976  0.00  0.00     0.068 A 
HETATM   33  C   UNK N   1      29.904  12.204   4.227  0.00  0.00     0.037 A 
HETATM   34  C   UNK N   1      28.595  12.317   4.717  0.00  0.00     0.016 A 
BRANCH  27  35
HETATM   35  O   UNK N   1      22.477  14.544   0.504  0.00  0.00    -0.361 OA
HETATM   36  H   UNK N   1      22.125  13.868  -0.041  0.00  0.00     0.217 HD
ENDBRANCH  27  35
BRANCH  32  37
HETATM   37  O   UNK N   1      31.508  12.694   2.539  0.00  0.00    -0.361 OA
HETATM   38  H   UNK N   1      32.001  11.899   2.590  0.00  0.00     0.217 HD
ENDBRANCH  32  37
ENDBRANCH  10  12
ENDBRANCH   8  10
ENDBRANCH   6   8
ENDBRANCH   5   6
ENDBRANCH   4   5
ENDBRANCH   3   4
BRANCH   3  39
HETATM   39  C   UNK N   1      21.289  18.013   3.264  0.00  0.00     0.185 C 
BRANCH  39  40
HETATM   40  C   UNK N   1      19.970  17.627   2.596  0.00  0.00     0.045 C 
BRANCH  40  41
HETATM   41  C   UNK N   1      20.309  17.210   1.154  0.00  0.00     0.105 C 
BRANCH  41  42
HETATM   42  C   UNK N   1      19.452  16.130   0.586  0.00  0.00     0.215 C 
HETATM   43  O   UNK N   1      19.746  14.958   0.754  0.00  0.00    -0.274 OA
HETATM   44  N   UNK N   1      18.406  16.453  -0.201  0.00  0.00    -0.370 N 
HETATM   45  H   UNK N   1      17.738  17.162  -0.059  0.00  0.00     0.159 HD
HETATM   46  H   UNK N   1      18.296  15.913  -1.017  0.00  0.00     0.159 HD
ENDBRANCH  41  42
ENDBRANCH  40  41
ENDBRANCH  39  40
BRANCH  39  47
HETATM   47  C   UNK N   1      21.290  19.483   3.506  0.00  0.00     0.163 C 
HETATM   48  O   UNK N   1      20.760  19.925   4.510  0.00  0.00    -0.648 OA
BRANCH  47  49
HETATM   49  O   UNK N   1      21.984  20.304   2.693  0.00  0.00    -0.775 OA
HETATM   50  H   UNK N   1      22.638  20.974   2.655  0.00  0.00     0.167 HD
ENDBRANCH  47  49
ENDBRANCH  39  47
ENDBRANCH   3  39
BRANCH   1  51
HETATM   51  C   UNK N   1      24.089  17.958   4.153  0.00  0.00     0.032 C 
HETATM   52  C   UNK N   1      24.985  17.305   3.297  0.00  0.00     0.019 C 
HETATM   53  C   UNK N   1      26.342  17.559   3.408  0.00  0.00     0.030 C 
HETATM   54  C   UNK N   1      26.774  18.468   4.370  0.00  0.00     0.028 C 
HETATM   55  C   UNK N   1      25.873  19.297   5.022  0.00  0.00     0.030 C 
HETATM   56  C   UNK N   1      24.522  19.057   4.896  0.00  0.00     0.019 C 
BRANCH  54  57
HETATM   57  N   UNK N   1      28.058  18.390   4.897  0.00  0.00    -0.384 N 
HETATM   58  H   UNK N   1      28.323  19.097   5.529  0.00  0.00     0.160 HD
BRANCH  57  59
HETATM   59  C   UNK N   1      29.040  17.377   4.607  0.00  0.00     0.178 C 
BRANCH  59  60
HETATM   60  C   UNK N   1      29.694  17.118   5.905  0.00  0.00     0.043 A 
HETATM   61  C   UNK N   1      29.480  17.908   7.038  0.00  0.00     0.116 A 
HETATM   62  N   UNK N   1      30.152  17.609   8.187  0.00  0.00    -0.348 N 
HETATM   63  C   UNK N   1      31.023  16.557   8.235  0.00  0.00     0.153 A 
ATOM     64  HN  UNK N   1      30.003  18.178   9.021  1.00  0.00     0.167 HD
HETATM   65  C   UNK N   1      31.224  15.783   7.092  0.00  0.00     0.147 A 
HETATM   66  N   UNK N   1      31.691  16.249   9.372  0.00  0.00    -0.174 N 
HETATM   67  N   UNK N   1      30.564  16.082   5.973  0.00  0.00    -0.350 N 
HETATM   68  C   UNK N   1      32.107  14.713   7.130  0.00  0.00     0.290 A 
ATOM     69  HN  UNK N   1      30.717  15.511   5.142  1.00  0.00     0.166 HD
HETATM   70  O   UNK N   1      32.296  14.028   6.137  0.00  0.00    -0.265 OA
HETATM   71  N   UNK N   1      32.761  14.433   8.293  0.00  0.00    -0.154 N 
HETATM   72  C   UNK N   1      32.555  15.193   9.406  0.00  0.00     0.680 A 
HETATM   73  H   UNK N   1      33.388  13.675   8.330  0.00  0.00     0.187 HD
HETATM   74  N   UNK N   1      33.237  14.883  10.594  0.00  0.00    -0.234 N 
HETATM   75  H   UNK N   1      33.110  15.441  11.394  0.00  0.00     0.174 HD
HETATM   76  H   UNK N   1      33.841  14.107  10.626  0.00  0.00     0.174 HD
ATOM     77  HN  UNK N   1      31.547  16.812  10.211  1.00  0.00     0.186 HD
ENDBRANCH  59  60
ENDBRANCH  57  59
ENDBRANCH  54  57
ENDBRANCH   1  51
TORSDOF 18
ENDMDL
MODEL 5
REMARK VINA RESULT:      -9.5      2.890      5.155
REMARK  18 active torsions:
REMARK  status: ('A' for Active; 'I' for Inactive)
REMARK    1  A    between atoms: C_3  and  N_50 
REMARK    2  A    between atoms: C_6  and  C_7 
REMARK       I    between atoms: C_7  and  N_9 
REMARK    3  A    between atoms: N_9  and  C_10 
REMARK    4  A    between atoms: C_41  and  N_9 
REMARK    5  A    between atoms: C_10  and  C_11 
REMARK    6  A    between atoms: C_11  and  N_12 
REMARK    7  A    between atoms: N_12  and  C_13 
REMARK    8  A    between atoms: C_13  and  N_15 
REMARK    9  A    between atoms: N_15  and  C_16 
REMARK   10  A    between atoms: C_29  and  O_40 
REMARK   11  A    between atoms: C_37  and  O_39 
REMARK   12  A    between atoms: C_41  and  C_42 
REMARK   13  A    between atoms: C_41  and  C_47 
REMARK   14  A    between atoms: C_42  and  C_43 
REMARK   15  A    between atoms: C_43  and  C_44 
REMARK       I    between atoms: C_44  and  N_46 
REMARK   16  A    between atoms: C_47  and  O_49 
REMARK   17  A    between atoms: N_50  and  C_51 
REMARK   18  A    between atoms: C_51  and  C_52 
REMARK       I    between atoms: C_63  and  N_66 
ROOT
HETATM    1  C   UNK N   1      28.993  16.926   5.033  0.00  0.00     0.254 C 
HETATM    2  O   UNK N   1      29.024  15.714   4.864  0.00  0.00    -0.267 OA
HETATM    3  N   UNK N   1      27.874  17.660   4.638  0.00  0.00    -0.332 N 
ENDROOT
BRANCH   3   4
HETATM    4  C   UNK N   1      26.791  17.012   3.890  0.00  0.00     0.147 C 
BRANCH   4   5
HETATM    5  C   UNK N   1      27.227  16.166   2.682  0.00  0.00     0.142 C 
BRANCH   5   6
HETATM    6  N   UNK N   1      26.312  15.083   2.438  0.00  0.00    -0.365 N 
HETATM    7  H   UNK N   1      25.438  15.267   2.025  0.00  0.00     0.161 HD
BRANCH   6   8
HETATM    8  C   UNK N   1      26.656  13.758   2.786  0.00  0.00     0.172 C 
HETATM    9  S   UNK N   1      26.565  12.707   1.811  0.00  0.00    -0.041 SA
BRANCH   8  10
HETATM   10  N   UNK N   1      27.204  13.474   4.060  0.00  0.00    -0.333 N 
HETATM   11  H   UNK N   1      28.179  13.357   4.114  0.00  0.00     0.168 HD
BRANCH  10  12
HETATM   12  C   UNK N   1      26.465  13.346   5.265  0.00  0.00     0.035 A 
HETATM   13  C   UNK N   1      26.567  14.271   6.342  0.00  0.00     0.030 A 
HETATM   14  C   UNK N   1      25.565  14.315   7.337  0.00  0.00     0.014 A 
HETATM   15  C   UNK N   1      24.469  13.445   7.203  0.00  0.00     0.003 A 
HETATM   16  C   UNK N   1      24.466  12.503   6.218  0.00  0.00     0.051 A 
HETATM   17  C   UNK N   1      23.013  13.676   7.647  0.00  0.00     0.159 C 
HETATM   18  C   UNK N   1      25.432  12.420   5.249  0.00  0.00     0.048 A 
HETATM   19  C   UNK N   1      23.173  11.966   6.148  0.00  0.00     0.295 C 
HETATM   20  O   UNK N   1      22.808  11.077   5.397  0.00  0.00    -0.259 OA
HETATM   21  O   UNK N   1      22.344  12.697   6.898  0.00  0.00    -0.291 OA
HETATM   22  C   UNK N   1      22.560  15.035   7.121  0.00  0.00     0.020 A 
HETATM   23  C   UNK N   1      22.430  13.407   9.009  0.00  0.00     0.020 A 
HETATM   24  C   UNK N   1      23.347  15.793   6.228  0.00  0.00     0.016 A 
HETATM   25  C   UNK N   1      21.302  15.517   7.494  0.00  0.00     0.088 A 
HETATM   26  C   UNK N   1      22.890  16.998   5.712  0.00  0.00     0.037 A 
HETATM   27  C   UNK N   1      21.625  17.458   6.062  0.00  0.00     0.068 A 
HETATM   28  C   UNK N   1      20.829  16.722   6.953  0.00  0.00     0.074 A 
HETATM   29  O   UNK N   1      20.568  14.844   8.414  0.00  0.00    -0.309 OA
HETATM   30  C   UNK N   1      21.111  13.895   9.229  0.00  0.00     0.088 A 
HETATM   31  C   UNK N   1      20.342  13.387  10.273  0.00  0.00     0.074 A 
HETATM   32  C   UNK N   1      20.855  12.394  11.103  0.00  0.00     0.068 A 
HETATM   33  C   UNK N   1      22.158  11.918  10.907  0.00  0.00     0.037 A 
HETATM   34  C   UNK N   1      22.936  12.402   9.845  0.00  0.00     0.016 A 
BRANCH  27  35
HETATM   35  O   UNK N   1      21.173  18.612   5.548  0.00  0.00    -0.361 OA
HETATM   36  H   UNK N   1      21.515  18.938   4.739  0.00  0.00     0.217 HD
ENDBRANCH  27  35
BRANCH  32  37
HETATM   37  O   UNK N   1      20.086  11.879  12.076  0.00  0.00    -0.361 OA
HETATM   38  H   UNK N   1      19.189  11.665  11.910  0.00  0.00     0.217 HD
ENDBRANCH  32  37
ENDBRANCH  10  12
ENDBRANCH   8  10
ENDBRANCH   6   8
ENDBRANCH   5   6
ENDBRANCH   4   5
ENDBRANCH   3   4
BRANCH   3  39
HETATM   39  C   UNK N   1      27.873  19.135   4.692  0.00  0.00     0.185 C 
BRANCH  39  40
HETATM   40  C   UNK N   1      27.024  19.847   3.640  0.00  0.00     0.045 C 
BRANCH  40  41
HETATM   41  C   UNK N   1      25.594  19.925   4.203  0.00  0.00     0.105 C 
BRANCH  41  42
HETATM   42  C   UNK N   1      24.529  20.210   3.198  0.00  0.00     0.215 C 
HETATM   43  O   UNK N   1      24.769  20.912   2.230  0.00  0.00    -0.274 OA
HETATM   44  N   UNK N   1      23.273  19.774   3.416  0.00  0.00    -0.370 N 
HETATM   45  H   UNK N   1      22.987  18.890   3.741  0.00  0.00     0.159 HD
HETATM   46  H   UNK N   1      22.552  20.418   3.228  0.00  0.00     0.159 HD
ENDBRANCH  41  42
ENDBRANCH  40  41
ENDBRANCH  39  40
BRANCH  39  47
HETATM   47  C   UNK N   1      27.597  19.746   6.023  0.00  0.00     0.163 C 
HETATM   48  O   UNK N   1      27.755  20.945   6.175  0.00  0.00    -0.648 OA
BRANCH  47  49
HETATM   49  O   UNK N   1      27.053  19.007   7.010  0.00  0.00    -0.775 OA
HETATM   50  H   UNK N   1      26.355  18.425   7.238  0.00  0.00     0.167 HD
ENDBRANCH  47  49
ENDBRANCH  39  47
ENDBRANCH   3  39
BRANCH   1  51
HETATM   51  C   UNK N   1      30.272  17.583   5.380  0.00  0.00     0.032 C 
HETATM   52  C   UNK N   1      31.345  17.569   4.481  0.00  0.00     0.019 C 
HETATM   53  C   UNK N   1      32.609  17.226   4.932  0.00  0.00     0.030 C 
HETATM   54  C   UNK N   1      32.774  16.910   6.277  0.00  0.00     0.028 C 
HETATM   55  C   UNK N   1      31.774  17.183   7.200  0.00  0.00     0.030 C 
HETATM   56  C   UNK N   1      30.522  17.544   6.753  0.00  0.00     0.019 C 
BRANCH  54  57
HETATM   57  N   UNK N   1      33.810  16.082   6.693  0.00  0.00    -0.384 N 
HETATM   58  H   UNK N   1      34.702  16.491   6.771  0.00  0.00     0.160 HD
BRANCH  57  59
HETATM   59  C   UNK N   1      33.705  14.683   7.020  0.00  0.00     0.178 C 
BRANCH  59  60
HETATM   60  C   UNK N   1      34.035  14.618   8.458  0.00  0.00     0.043 A 
HETATM   61  C   UNK N   1      33.118  14.927   9.466  0.00  0.00     0.116 A 
HETATM   62  N   UNK N   1      33.523  14.865  10.767  0.00  0.00    -0.348 N 
HETATM   63  C   UNK N   1      34.804  14.509  11.086  0.00  0.00     0.153 A 
ATOM     64  HN  UNK N   1      32.863  15.087  11.512  1.00  0.00     0.167 HD
HETATM   65  C   UNK N   1      35.704  14.207  10.063  0.00  0.00     0.147 A 
HETATM   66  N   UNK N   1      35.214  14.441  12.374  0.00  0.00    -0.174 N 
HETATM   67  N   UNK N   1      35.300  14.270   8.794  0.00  0.00    -0.350 N 
HETATM   68  C   UNK N   1      37.007  13.846  10.376  0.00  0.00     0.290 A 
ATOM     69  HN  UNK N   1      35.965  14.048   8.053  1.00  0.00     0.166 HD
HETATM   70  O   UNK N   1      37.808  13.582   9.492  0.00  0.00    -0.265 OA
HETATM   71  N   UNK N   1      37.384  13.787  11.685  0.00  0.00    -0.154 N 
HETATM   72  C   UNK N   1      36.496  14.080  12.677  0.00  0.00     0.680 A 
HETATM   73  H   UNK N   1      38.305  13.530  11.916  0.00  0.00     0.187 HD
HETATM   74  N   UNK N   1      36.905  14.008  14.019  0.00  0.00    -0.234 N 
HETATM   75  H   UNK N   1      36.276  14.241  14.738  0.00  0.00     0.174 HD
HETATM   76  H   UNK N   1      37.822  13.725  14.239  0.00  0.00     0.174 HD
ATOM     77  HN  UNK N   1      34.560  14.660  13.126  1.00  0.00     0.186 HD
ENDBRANCH  59  60
ENDBRANCH  57  59
ENDBRANCH  54  57
ENDBRANCH   1  51
TORSDOF 18
ENDMDL
MODEL 6
REMARK VINA RESULT:      -9.3      7.163     13.532
REMARK  18 active torsions:
REMARK  status: ('A' for Active; 'I' for Inactive)
REMARK    1  A    between atoms: C_3  and  N_50 
REMARK    2  A    between atoms: C_6  and  C_7 
REMARK       I    between atoms: C_7  and  N_9 
REMARK    3  A    between atoms: N_9  and  C_10 
REMARK    4  A    between atoms: C_41  and  N_9 
REMARK    5  A    between atoms: C_10  and  C_11 
REMARK    6  A    between atoms: C_11  and  N_12 
REMARK    7  A    between atoms: N_12  and  C_13 
REMARK    8  A    between atoms: C_13  and  N_15 
REMARK    9  A    between atoms: N_15  and  C_16 
REMARK   10  A    between atoms: C_29  and  O_40 
REMARK   11  A    between atoms: C_37  and  O_39 
REMARK   12  A    between atoms: C_41  and  C_42 
REMARK   13  A    between atoms: C_41  and  C_47 
REMARK   14  A    between atoms: C_42  and  C_43 
REMARK   15  A    between atoms: C_43  and  C_44 
REMARK       I    between atoms: C_44  and  N_46 
REMARK   16  A    between atoms: C_47  and  O_49 
REMARK   17  A    between atoms: N_50  and  C_51 
REMARK   18  A    between atoms: C_51  and  C_52 
REMARK       I    between atoms: C_63  and  N_66 
ROOT
HETATM    1  C   UNK N   1      30.961  17.509   8.121  0.00  0.00     0.254 C 
HETATM    2  O   UNK N   1      30.666  18.391   8.917  0.00  0.00    -0.267 OA
HETATM    3  N   UNK N   1      32.298  17.152   7.935  0.00  0.00    -0.332 N 
ENDROOT
BRANCH   3   4
HETATM    4  C   UNK N   1      33.365  17.926   8.578  0.00  0.00     0.147 C 
BRANCH   4   5
HETATM    5  C   UNK N   1      34.567  17.113   9.086  0.00  0.00     0.142 C 
BRANCH   5   6
HETATM    6  N   UNK N   1      34.267  16.442  10.323  0.00  0.00    -0.365 N 
HETATM    7  H   UNK N   1      33.432  16.648  10.799  0.00  0.00     0.161 HD
BRANCH   6   8
HETATM    8  C   UNK N   1      35.162  15.489  10.859  0.00  0.00     0.172 C 
HETATM    9  S   UNK N   1      36.313  15.074  10.107  0.00  0.00    -0.041 SA
BRANCH   8  10
HETATM   10  N   UNK N   1      34.998  15.023  12.185  0.00  0.00    -0.333 N 
HETATM   11  H   UNK N   1      34.421  15.554  12.780  0.00  0.00     0.168 HD
BRANCH  10  12
HETATM   12  C   UNK N   1      35.593  13.855  12.728  0.00  0.00     0.035 A 
HETATM   13  C   UNK N   1      36.793  13.876  13.493  0.00  0.00     0.030 A 
HETATM   14  C   UNK N   1      37.134  12.774  14.309  0.00  0.00     0.014 A 
HETATM   15  C   UNK N   1      36.240  11.690  14.354  0.00  0.00     0.003 A 
HETATM   16  C   UNK N   1      35.161  11.665  13.524  0.00  0.00     0.051 A 
HETATM   17  C   UNK N   1      35.958  10.741  15.534  0.00  0.00     0.159 C 
HETATM   18  C   UNK N   1      34.812  12.708  12.706  0.00  0.00     0.048 A 
HETATM   19  C   UNK N   1      34.317  10.632  13.955  0.00  0.00     0.295 C 
HETATM   20  O   UNK N   1      33.268  10.299  13.430  0.00  0.00    -0.259 OA
HETATM   21  O   UNK N   1      34.736  10.178  15.140  0.00  0.00    -0.291 OA
HETATM   22  C   UNK N   1      35.687  11.585  16.776  0.00  0.00     0.020 A 
HETATM   23  C   UNK N   1      36.719   9.492  15.889  0.00  0.00     0.020 A 
HETATM   24  C   UNK N   1      35.551  12.988  16.713  0.00  0.00     0.016 A 
HETATM   25  C   UNK N   1      35.514  10.940  18.004  0.00  0.00     0.088 A 
HETATM   26  C   UNK N   1      35.243  13.731  17.844  0.00  0.00     0.037 A 
HETATM   27  C   UNK N   1      35.042  13.082  19.058  0.00  0.00     0.068 A 
HETATM   28  C   UNK N   1      35.178  11.688  19.142  0.00  0.00     0.074 A 
HETATM   29  O   UNK N   1      35.723   9.604  18.099  0.00  0.00    -0.309 OA
HETATM   30  C   UNK N   1      36.393   8.899  17.143  0.00  0.00     0.088 A 
HETATM   31  C   UNK N   1      36.733   7.573  17.400  0.00  0.00     0.074 A 
HETATM   32  C   UNK N   1      37.387   6.817  16.432  0.00  0.00     0.068 A 
HETATM   33  C   UNK N   1      37.730   7.394  15.202  0.00  0.00     0.037 A 
HETATM   34  C   UNK N   1      37.372   8.720  14.918  0.00  0.00     0.016 A 
BRANCH  27  35
HETATM   35  O   UNK N   1      34.723  13.797  20.148  0.00  0.00    -0.361 OA
HETATM   36  H   UNK N   1      34.885  13.456  21.005  0.00  0.00     0.217 HD
ENDBRANCH  27  35
BRANCH  32  37
HETATM   37  O   UNK N   1      37.667   5.526  16.675  0.00  0.00    -0.361 OA
HETATM   38  H   UNK N   1      38.029   4.983  16.003  0.00  0.00     0.217 HD
ENDBRANCH  32  37
ENDBRANCH  10  12
ENDBRANCH   8  10
ENDBRANCH   6   8
ENDBRANCH   5   6
ENDBRANCH   4   5
ENDBRANCH   3   4
BRANCH   3  39
HETATM   39  C   UNK N   1      32.692  16.201   6.877  0.00  0.00     0.185 C 
BRANCH  39  40
HETATM   40  C   UNK N   1      33.782  16.675   5.918  0.00  0.00     0.045 C 
BRANCH  40  41
HETATM   41  C   UNK N   1      33.120  16.838   4.539  0.00  0.00     0.105 C 
BRANCH  41  42
HETATM   42  C   UNK N   1      33.518  15.827   3.518  0.00  0.00     0.215 C 
HETATM   43  O   UNK N   1      33.290  16.022   2.336  0.00  0.00    -0.274 OA
HETATM   44  N   UNK N   1      34.040  14.648   3.915  0.00  0.00    -0.370 N 
HETATM   45  H   UNK N   1      34.723  14.491   4.606  0.00  0.00     0.159 HD
HETATM   46  H   UNK N   1      33.696  13.847   3.458  0.00  0.00     0.159 HD
ENDBRANCH  41  42
ENDBRANCH  40  41
ENDBRANCH  39  40
BRANCH  39  47
HETATM   47  C   UNK N   1      33.016  14.817   7.324  0.00  0.00     0.163 C 
HETATM   48  O   UNK N   1      32.180  14.176   7.936  0.00  0.00    -0.648 OA
BRANCH  47  49
HETATM   49  O   UNK N   1      34.167  14.231   6.941  0.00  0.00    -0.775 OA
HETATM   50  H   UNK N   1      34.686  13.964   6.209  0.00  0.00     0.167 HD
ENDBRANCH  47  49
ENDBRANCH  39  47
ENDBRANCH   3  39
BRANCH   1  51
HETATM   51  C   UNK N   1      29.902  17.072   7.186  0.00  0.00     0.032 C 
HETATM   52  C   UNK N   1      29.880  17.545   5.868  0.00  0.00     0.019 C 
HETATM   53  C   UNK N   1      28.694  18.021   5.334  0.00  0.00     0.030 C 
HETATM   54  C   UNK N   1      27.552  18.009   6.130  0.00  0.00     0.028 C 
HETATM   55  C   UNK N   1      27.524  17.302   7.324  0.00  0.00     0.030 C 
HETATM   56  C   UNK N   1      28.700  16.810   7.845  0.00  0.00     0.019 C 
BRANCH  54  57
HETATM   57  N   UNK N   1      26.513  18.904   5.899  0.00  0.00    -0.384 N 
HETATM   58  H   UNK N   1      25.939  19.126   6.668  0.00  0.00     0.160 HD
BRANCH  57  59
HETATM   59  C   UNK N   1      26.195  19.537   4.645  0.00  0.00     0.178 C 
BRANCH  59  60
HETATM   60  C   UNK N   1      24.851  19.026   4.308  0.00  0.00     0.043 A 
HETATM   61  C   UNK N   1      24.464  17.700   4.519  0.00  0.00     0.116 A 
HETATM   62  N   UNK N   1      23.208  17.314   4.149  0.00  0.00    -0.348 N 
HETATM   63  C   UNK N   1      22.342  18.203   3.579  0.00  0.00     0.153 A 
ATOM     64  HN  UNK N   1      22.913  16.349   4.298  1.00  0.00     0.167 HD
HETATM   65  C   UNK N   1      22.750  19.522   3.374  0.00  0.00     0.147 A 
HETATM   66  N   UNK N   1      21.092  17.830   3.212  0.00  0.00    -0.174 N 
HETATM   67  N   UNK N   1      23.977  19.892   3.739  0.00  0.00    -0.350 N 
HETATM   68  C   UNK N   1      21.877  20.432   2.795  0.00  0.00     0.290 A 
ATOM     69  HN  UNK N   1      24.268  20.857   3.586  1.00  0.00     0.166 HD
HETATM   70  O   UNK N   1      22.221  21.589   2.607  0.00  0.00    -0.265 OA
HETATM   71  N   UNK N   1      20.627  20.020   2.440  0.00  0.00    -0.154 N 
HETATM   72  C   UNK N   1      20.236  18.731   2.646  0.00  0.00     0.680 A 
HETATM   73  H   UNK N   1      20.001  20.659   2.029  0.00  0.00     0.187 HD
HETATM   74  N   UNK N   1      18.942  18.330   2.276  0.00  0.00    -0.234 N 
HETATM   75  H   UNK N   1      18.661  17.396   2.402  0.00  0.00     0.174 HD
HETATM   76  H   UNK N   1      18.316  18.985   1.891  0.00  0.00     0.174 HD
ATOM     77  HN  UNK N   1      20.788  16.868   3.359  1.00  0.00     0.186 HD
ENDBRANCH  59  60
ENDBRANCH  57  59
ENDBRANCH  54  57
ENDBRANCH   1  51
TORSDOF 18
ENDMDL
MODEL 7
REMARK VINA RESULT:      -9.2      4.282     11.714
REMARK  18 active torsions:
REMARK  status: ('A' for Active; 'I' for Inactive)
REMARK    1  A    between atoms: C_3  and  N_50 
REMARK    2  A    between atoms: C_6  and  C_7 
REMARK       I    between atoms: C_7  and  N_9 
REMARK    3  A    between atoms: N_9  and  C_10 
REMARK    4  A    between atoms: C_41  and  N_9 
REMARK    5  A    between atoms: C_10  and  C_11 
REMARK    6  A    between atoms: C_11  and  N_12 
REMARK    7  A    between atoms: N_12  and  C_13 
REMARK    8  A    between atoms: C_13  and  N_15 
REMARK    9  A    between atoms: N_15  and  C_16 
REMARK   10  A    between atoms: C_29  and  O_40 
REMARK   11  A    between atoms: C_37  and  O_39 
REMARK   12  A    between atoms: C_41  and  C_42 
REMARK   13  A    between atoms: C_41  and  C_47 
REMARK   14  A    between atoms: C_42  and  C_43 
REMARK   15  A    between atoms: C_43  and  C_44 
REMARK       I    between atoms: C_44  and  N_46 
REMARK   16  A    between atoms: C_47  and  O_49 
REMARK   17  A    between atoms: N_50  and  C_51 
REMARK   18  A    between atoms: C_51  and  C_52 
REMARK       I    between atoms: C_63  and  N_66 
ROOT
HETATM    1  C   UNK N   1      27.189  15.050   5.168  0.00  0.00     0.254 C 
HETATM    2  O   UNK N   1      27.179  13.845   4.956  0.00  0.00    -0.267 OA
HETATM    3  N   UNK N   1      28.390  15.702   5.452  0.00  0.00    -0.332 N 
ENDROOT
BRANCH   3   4
HETATM    4  C   UNK N   1      29.622  14.929   5.642  0.00  0.00     0.147 C 
BRANCH   4   5
HETATM    5  C   UNK N   1      30.526  14.796   4.405  0.00  0.00     0.142 C 
BRANCH   5   6
HETATM    6  N   UNK N   1      31.378  15.944   4.247  0.00  0.00    -0.365 N 
HETATM    7  H   UNK N   1      31.092  16.688   3.671  0.00  0.00     0.161 HD
BRANCH   6   8
HETATM    8  C   UNK N   1      32.624  16.011   4.910  0.00  0.00     0.172 C 
HETATM    9  S   UNK N   1      33.831  15.651   4.220  0.00  0.00    -0.041 SA
BRANCH   8  10
HETATM   10  N   UNK N   1      32.708  16.545   6.218  0.00  0.00    -0.333 N 
HETATM   11  H   UNK N   1      32.501  17.501   6.328  0.00  0.00     0.168 HD
BRANCH  10  12
HETATM   12  C   UNK N   1      33.062  15.817   7.384  0.00  0.00     0.035 A 
HETATM   13  C   UNK N   1      33.044  14.395   7.450  0.00  0.00     0.030 A 
HETATM   14  C   UNK N   1      33.746  13.724   8.476  0.00  0.00     0.014 A 
HETATM   15  C   UNK N   1      34.472  14.503   9.392  0.00  0.00     0.003 A 
HETATM   16  C   UNK N   1      34.372  15.861   9.358  0.00  0.00     0.051 A 
HETATM   17  C   UNK N   1      35.776  14.138  10.124  0.00  0.00     0.159 C 
HETATM   18  C   UNK N   1      33.684  16.544   8.389  0.00  0.00     0.048 A 
HETATM   19  C   UNK N   1      35.379  16.382  10.183  0.00  0.00     0.295 C 
HETATM   20  O   UNK N   1      35.574  17.563  10.414  0.00  0.00    -0.259 OA
HETATM   21  O   UNK N   1      36.216  15.404  10.538  0.00  0.00    -0.291 OA
HETATM   22  C   UNK N   1      36.779  13.625   9.094  0.00  0.00     0.020 A 
HETATM   23  C   UNK N   1      35.903  13.381  11.420  0.00  0.00     0.020 A 
HETATM   24  C   UNK N   1      36.528  13.692   7.708  0.00  0.00     0.016 A 
HETATM   25  C   UNK N   1      38.006  13.126   9.540  0.00  0.00     0.088 A 
HETATM   26  C   UNK N   1      37.478  13.278   6.785  0.00  0.00     0.037 A 
HETATM   27  C   UNK N   1      38.710  12.810   7.232  0.00  0.00     0.068 A 
HETATM   28  C   UNK N   1      38.976  12.730   8.607  0.00  0.00     0.074 A 
HETATM   29  O   UNK N   1      38.232  12.976  10.868  0.00  0.00    -0.309 OA
HETATM   30  C   UNK N   1      37.224  12.992  11.786  0.00  0.00     0.088 A 
HETATM   31  C   UNK N   1      37.510  12.643  13.104  0.00  0.00     0.074 A 
HETATM   32  C   UNK N   1      36.510  12.680  14.073  0.00  0.00     0.068 A 
HETATM   33  C   UNK N   1      35.204  13.044  13.720  0.00  0.00     0.037 A 
HETATM   34  C   UNK N   1      34.905  13.422  12.403  0.00  0.00     0.016 A 
BRANCH  27  35
HETATM   35  O   UNK N   1      39.637  12.429   6.340  0.00  0.00    -0.361 OA
HETATM   36  H   UNK N   1      39.776  12.924   5.557  0.00  0.00     0.217 HD
ENDBRANCH  27  35
BRANCH  32  37
HETATM   37  O   UNK N   1      36.811  12.388  15.348  0.00  0.00    -0.361 OA
HETATM   38  H   UNK N   1      36.921  13.071  15.980  0.00  0.00     0.217 HD
ENDBRANCH  32  37
ENDBRANCH  10  12
ENDBRANCH   8  10
ENDBRANCH   6   8
ENDBRANCH   5   6
ENDBRANCH   4   5
ENDBRANCH   3   4
BRANCH   3  39
HETATM   39  C   UNK N   1      28.409  17.120   5.858  0.00  0.00     0.185 C 
BRANCH  39  40
HETATM   40  C   UNK N   1      29.370  17.485   6.988  0.00  0.00     0.045 C 
BRANCH  40  41
HETATM   41  C   UNK N   1      28.564  18.305   8.011  0.00  0.00     0.105 C 
BRANCH  41  42
HETATM   42  C   UNK N   1      28.677  17.846   9.425  0.00  0.00     0.215 C 
HETATM   43  O   UNK N   1      27.812  17.140   9.915  0.00  0.00    -0.274 OA
HETATM   44  N   UNK N   1      29.688  18.299  10.194  0.00  0.00    -0.370 N 
HETATM   45  H   UNK N   1      30.638  18.388   9.953  0.00  0.00     0.159 HD
HETATM   46  H   UNK N   1      29.447  18.573  11.108  0.00  0.00     0.159 HD
ENDBRANCH  41  42
ENDBRANCH  40  41
ENDBRANCH  39  40
BRANCH  39  47
HETATM   47  C   UNK N   1      28.561  18.118   4.761  0.00  0.00     0.163 C 
HETATM   48  O   UNK N   1      27.619  18.834   4.470  0.00  0.00    -0.648 OA
BRANCH  47  49
HETATM   49  O   UNK N   1      29.762  18.318   4.186  0.00  0.00    -0.775 OA
HETATM   50  H   UNK N   1      30.214  18.720   3.470  0.00  0.00     0.167 HD
ENDBRANCH  47  49
ENDBRANCH  39  47
ENDBRANCH   3  39
BRANCH   1  51
HETATM   51  C   UNK N   1      25.879  15.698   5.399  0.00  0.00     0.032 C 
HETATM   52  C   UNK N   1      25.085  15.323   6.490  0.00  0.00     0.019 C 
HETATM   53  C   UNK N   1      23.739  15.060   6.295  0.00  0.00     0.030 C 
HETATM   54  C   UNK N   1      23.214  15.184   5.012  0.00  0.00     0.028 C 
HETATM   55  C   UNK N   1      23.937  15.804   4.003  0.00  0.00     0.030 C 
HETATM   56  C   UNK N   1      25.271  16.085   4.203  0.00  0.00     0.019 C 
BRANCH  54  57
HETATM   57  N   UNK N   1      22.086  14.466   4.631  0.00  0.00    -0.384 N 
HETATM   58  H   UNK N   1      22.236  13.571   4.250  0.00  0.00     0.160 HD
BRANCH  57  59
HETATM   59  C   UNK N   1      20.719  14.905   4.741  0.00  0.00     0.178 C 
BRANCH  59  60
HETATM   60  C   UNK N   1      20.580  15.936   3.693  0.00  0.00     0.043 A 
HETATM   61  C   UNK N   1      20.348  15.631   2.349  0.00  0.00     0.116 A 
HETATM   62  N   UNK N   1      20.262  16.651   1.447  0.00  0.00    -0.348 N 
HETATM   63  C   UNK N   1      20.402  17.950   1.844  0.00  0.00     0.153 A 
ATOM     64  HN  UNK N   1      20.092  16.441   0.463  1.00  0.00     0.167 HD
HETATM   65  C   UNK N   1      20.637  18.233   3.191  0.00  0.00     0.147 A 
HETATM   66  N   UNK N   1      20.315  18.970   0.957  0.00  0.00    -0.174 N 
HETATM   67  N   UNK N   1      20.719  17.231   4.066  0.00  0.00    -0.350 N 
HETATM   68  C   UNK N   1      20.781  19.549   3.605  0.00  0.00     0.290 A 
ATOM     69  HN  UNK N   1      20.891  17.446   5.048  1.00  0.00     0.166 HD
HETATM   70  O   UNK N   1      20.990  19.813   4.779  0.00  0.00    -0.265 OA
HETATM   71  N   UNK N   1      20.686  20.549   2.683  0.00  0.00    -0.154 N 
HETATM   72  C   UNK N   1      20.454  20.264   1.370  0.00  0.00     0.680 A 
HETATM   73  H   UNK N   1      20.786  21.487   2.967  0.00  0.00     0.187 HD
HETATM   74  N   UNK N   1      20.354  21.311   0.439  0.00  0.00    -0.234 N 
HETATM   75  H   UNK N   1      20.209  21.111  -0.513  0.00  0.00     0.174 HD
HETATM   76  H   UNK N   1      20.430  22.245   0.740  0.00  0.00     0.174 HD
ATOM     77  HN  UNK N   1      20.144  18.770  -0.028  1.00  0.00     0.186 HD
ENDBRANCH  59  60
ENDBRANCH  57  59
ENDBRANCH  54  57
ENDBRANCH   1  51
TORSDOF 18
ENDMDL
MODEL 8
REMARK VINA RESULT:      -9.2      5.518     12.030
REMARK  18 active torsions:
REMARK  status: ('A' for Active; 'I' for Inactive)
REMARK    1  A    between atoms: C_3  and  N_50 
REMARK    2  A    between atoms: C_6  and  C_7 
REMARK       I    between atoms: C_7  and  N_9 
REMARK    3  A    between atoms: N_9  and  C_10 
REMARK    4  A    between atoms: C_41  and  N_9 
REMARK    5  A    between atoms: C_10  and  C_11 
REMARK    6  A    between atoms: C_11  and  N_12 
REMARK    7  A    between atoms: N_12  and  C_13 
REMARK    8  A    between atoms: C_13  and  N_15 
REMARK    9  A    between atoms: N_15  and  C_16 
REMARK   10  A    between atoms: C_29  and  O_40 
REMARK   11  A    between atoms: C_37  and  O_39 
REMARK   12  A    between atoms: C_41  and  C_42 
REMARK   13  A    between atoms: C_41  and  C_47 
REMARK   14  A    between atoms: C_42  and  C_43 
REMARK   15  A    between atoms: C_43  and  C_44 
REMARK       I    between atoms: C_44  and  N_46 
REMARK   16  A    between atoms: C_47  and  O_49 
REMARK   17  A    between atoms: N_50  and  C_51 
REMARK   18  A    between atoms: C_51  and  C_52 
REMARK       I    between atoms: C_63  and  N_66 
ROOT
HETATM    1  C   UNK N   1      30.336  15.499   5.626  0.00  0.00     0.254 C 
HETATM    2  O   UNK N   1      29.458  14.702   5.322  0.00  0.00    -0.267 OA
HETATM    3  N   UNK N   1      31.644  15.057   5.825  0.00  0.00    -0.332 N 
ENDROOT
BRANCH   3   4
HETATM    4  C   UNK N   1      31.949  13.623   5.815  0.00  0.00     0.147 C 
BRANCH   4   5
HETATM    5  C   UNK N   1      32.156  12.992   4.428  0.00  0.00     0.142 C 
BRANCH   5   6
HETATM    6  N   UNK N   1      33.485  13.233   3.931  0.00  0.00    -0.365 N 
HETATM    7  H   UNK N   1      33.616  13.827   3.158  0.00  0.00     0.161 HD
BRANCH   6   8
HETATM    8  C   UNK N   1      34.602  12.622   4.541  0.00  0.00     0.172 C 
HETATM    9  S   UNK N   1      35.736  13.413   4.930  0.00  0.00    -0.041 SA
BRANCH   8  10
HETATM   10  N   UNK N   1      34.567  11.249   4.882  0.00  0.00    -0.333 N 
HETATM   11  H   UNK N   1      34.285  10.618   4.182  0.00  0.00     0.168 HD
BRANCH  10  12
HETATM   12  C   UNK N   1      34.908  10.705   6.148  0.00  0.00     0.035 A 
HETATM   13  C   UNK N   1      36.246  10.628   6.628  0.00  0.00     0.030 A 
HETATM   14  C   UNK N   1      36.496  10.434   8.005  0.00  0.00     0.014 A 
HETATM   15  C   UNK N   1      35.389  10.353   8.867  0.00  0.00     0.003 A 
HETATM   16  C   UNK N   1      34.128  10.321   8.353  0.00  0.00     0.051 A 
HETATM   17  C   UNK N   1      35.294  10.805  10.336  0.00  0.00     0.159 C 
HETATM   18  C   UNK N   1      33.851  10.486   7.020  0.00  0.00     0.048 A 
HETATM   19  C   UNK N   1      33.231  10.504   9.414  0.00  0.00     0.295 C 
HETATM   20  O   UNK N   1      32.014  10.505   9.331  0.00  0.00    -0.259 OA
HETATM   21  O   UNK N   1      33.904  10.862  10.511  0.00  0.00    -0.291 OA
HETATM   22  C   UNK N   1      35.821  12.234  10.435  0.00  0.00     0.020 A 
HETATM   23  C   UNK N   1      35.678  10.006  11.554  0.00  0.00     0.020 A 
HETATM   24  C   UNK N   1      36.140  12.995   9.290  0.00  0.00     0.016 A 
HETATM   25  C   UNK N   1      35.939  12.822  11.697  0.00  0.00     0.088 A 
HETATM   26  C   UNK N   1      36.559  14.313   9.398  0.00  0.00     0.037 A 
HETATM   27  C   UNK N   1      36.645  14.905  10.655  0.00  0.00     0.068 A 
HETATM   28  C   UNK N   1      36.338  14.163  11.805  0.00  0.00     0.074 A 
HETATM   29  O   UNK N   1      35.718  12.082  12.810  0.00  0.00    -0.309 OA
HETATM   30  C   UNK N   1      35.691  10.718  12.787  0.00  0.00     0.088 A 
HETATM   31  C   UNK N   1      35.649  10.026  13.995  0.00  0.00     0.074 A 
HETATM   32  C   UNK N   1      35.587   8.636  14.005  0.00  0.00     0.068 A 
HETATM   33  C   UNK N   1      35.592   7.923  12.798  0.00  0.00     0.037 A 
HETATM   34  C   UNK N   1      35.609   8.606  11.573  0.00  0.00     0.016 A 
BRANCH  27  35
HETATM   35  O   UNK N   1      37.030  16.186  10.759  0.00  0.00    -0.361 OA
HETATM   36  H   UNK N   1      37.385  16.512  11.562  0.00  0.00     0.217 HD
ENDBRANCH  27  35
BRANCH  32  37
HETATM   37  O   UNK N   1      35.499   7.983  15.176  0.00  0.00    -0.361 OA
HETATM   38  H   UNK N   1      36.258   7.593  15.561  0.00  0.00     0.217 HD
ENDBRANCH  32  37
ENDBRANCH  10  12
ENDBRANCH   8  10
ENDBRANCH   6   8
ENDBRANCH   5   6
ENDBRANCH   4   5
ENDBRANCH   3   4
BRANCH   3  39
HETATM   39  C   UNK N   1      32.686  15.969   6.337  0.00  0.00     0.185 C 
BRANCH  39  40
HETATM   40  C   UNK N   1      33.611  15.399   7.411  0.00  0.00     0.045 C 
BRANCH  40  41
HETATM   41  C   UNK N   1      33.054  15.861   8.769  0.00  0.00     0.105 C 
BRANCH  41  42
HETATM   42  C   UNK N   1      32.852  14.779   9.775  0.00  0.00     0.215 C 
HETATM   43  O   UNK N   1      33.200  14.942  10.932  0.00  0.00    -0.274 OA
HETATM   44  N   UNK N   1      32.376  13.582   9.380  0.00  0.00    -0.370 N 
HETATM   45  H   UNK N   1      31.631  13.400   8.762  0.00  0.00     0.159 HD
HETATM   46  H   UNK N   1      32.828  12.792   9.754  0.00  0.00     0.159 HD
ENDBRANCH  41  42
ENDBRANCH  40  41
ENDBRANCH  39  40
BRANCH  39  47
HETATM   47  C   UNK N   1      33.514  16.665   5.312  0.00  0.00     0.163 C 
HETATM   48  O   UNK N   1      33.482  16.280   4.157  0.00  0.00    -0.648 OA
BRANCH  47  49
HETATM   49  O   UNK N   1      34.187  17.788   5.631  0.00  0.00    -0.775 OA
HETATM   50  H   UNK N   1      34.769  18.450   5.314  0.00  0.00     0.167 HD
ENDBRANCH  47  49
ENDBRANCH  39  47
ENDBRANCH   3  39
BRANCH   1  51
HETATM   51  C   UNK N   1      29.895  16.846   6.051  0.00  0.00     0.032 C 
HETATM   52  C   UNK N   1      29.117  17.006   7.204  0.00  0.00     0.019 C 
HETATM   53  C   UNK N   1      27.983  17.800   7.156  0.00  0.00     0.030 C 
HETATM   54  C   UNK N   1      27.655  18.422   5.955  0.00  0.00     0.028 C 
HETATM   55  C   UNK N   1      28.563  18.473   4.908  0.00  0.00     0.030 C 
HETATM   56  C   UNK N   1      29.702  17.699   4.964  0.00  0.00     0.019 C 
BRANCH  54  57
HETATM   57  N   UNK N   1      26.340  18.770   5.669  0.00  0.00    -0.384 N 
HETATM   58  H   UNK N   1      25.645  18.418   6.272  0.00  0.00     0.160 HD
BRANCH  57  59
HETATM   59  C   UNK N   1      25.894  19.595   4.575  0.00  0.00     0.178 C 
BRANCH  59  60
HETATM   60  C   UNK N   1      24.541  19.092   4.265  0.00  0.00     0.043 A 
HETATM   61  C   UNK N   1      24.136  17.780   4.527  0.00  0.00     0.116 A 
HETATM   62  N   UNK N   1      22.873  17.398   4.179  0.00  0.00    -0.348 N 
HETATM   63  C   UNK N   1      22.015  18.278   3.582  0.00  0.00     0.153 A 
ATOM     64  HN  UNK N   1      22.565  16.444   4.365  1.00  0.00     0.167 HD
HETATM   65  C   UNK N   1      22.440  19.583   3.327  0.00  0.00     0.147 A 
HETATM   66  N   UNK N   1      20.758  17.910   3.237  0.00  0.00    -0.174 N 
HETATM   67  N   UNK N   1      23.675  19.948   3.670  0.00  0.00    -0.350 N 
HETATM   68  C   UNK N   1      21.577  20.484   2.721  0.00  0.00     0.290 A 
ATOM     69  HN  UNK N   1      23.979  20.903   3.480  1.00  0.00     0.166 HD
HETATM   70  O   UNK N   1      21.935  21.628   2.488  0.00  0.00    -0.265 OA
HETATM   71  N   UNK N   1      20.319  20.077   2.388  0.00  0.00    -0.154 N 
HETATM   72  C   UNK N   1      19.911  18.802   2.644  0.00  0.00     0.680 A 
HETATM   73  H   UNK N   1      19.699  20.710   1.959  0.00  0.00     0.187 HD
HETATM   74  N   UNK N   1      18.608  18.407   2.297  0.00  0.00    -0.234 N 
HETATM   75  H   UNK N   1      18.315  17.482   2.458  0.00  0.00     0.174 HD
HETATM   76  H   UNK N   1      17.989  19.056   1.892  0.00  0.00     0.174 HD
ATOM     77  HN  UNK N   1      20.441  16.958   3.421  1.00  0.00     0.186 HD
ENDBRANCH  59  60
ENDBRANCH  57  59
ENDBRANCH  54  57
ENDBRANCH   1  51
TORSDOF 18
ENDMDL
MODEL 9
REMARK VINA RESULT:      -9.2      3.821     11.187
REMARK  18 active torsions:
REMARK  status: ('A' for Active; 'I' for Inactive)
REMARK    1  A    between atoms: C_3  and  N_50 
REMARK    2  A    between atoms: C_6  and  C_7 
REMARK       I    between atoms: C_7  and  N_9 
REMARK    3  A    between atoms: N_9  and  C_10 
REMARK    4  A    between atoms: C_41  and  N_9 
REMARK    5  A    between atoms: C_10  and  C_11 
REMARK    6  A    between atoms: C_11  and  N_12 
REMARK    7  A    between atoms: N_12  and  C_13 
REMARK    8  A    between atoms: C_13  and  N_15 
REMARK    9  A    between atoms: N_15  and  C_16 
REMARK   10  A    between atoms: C_29  and  O_40 
REMARK   11  A    between atoms: C_37  and  O_39 
REMARK   12  A    between atoms: C_41  and  C_42 
REMARK   13  A    between atoms: C_41  and  C_47 
REMARK   14  A    between atoms: C_42  and  C_43 
REMARK   15  A    between atoms: C_43  and  C_44 
REMARK       I    between atoms: C_44  and  N_46 
REMARK   16  A    between atoms: C_47  and  O_49 
REMARK   17  A    between atoms: N_50  and  C_51 
REMARK   18  A    between atoms: C_51  and  C_52 
REMARK       I    between atoms: C_63  and  N_66 
ROOT
HETATM    1  C   UNK N   1      26.127  17.621   3.609  0.00  0.00     0.254 C 
HETATM    2  O   UNK N   1      25.803  16.989   2.611  0.00  0.00    -0.267 OA
HETATM    3  N   UNK N   1      27.162  17.161   4.424  0.00  0.00    -0.332 N 
ENDROOT
BRANCH   3   4
HETATM    4  C   UNK N   1      27.770  15.849   4.177  0.00  0.00     0.147 C 
BRANCH   4   5
HETATM    5  C   UNK N   1      28.933  15.831   3.170  0.00  0.00     0.142 C 
BRANCH   5   6
HETATM    6  N   UNK N   1      29.724  17.030   3.255  0.00  0.00    -0.365 N 
HETATM    7  H   UNK N   1      29.369  17.875   2.898  0.00  0.00     0.161 HD
BRANCH   6   8
HETATM    8  C   UNK N   1      31.007  17.004   3.844  0.00  0.00     0.172 C 
HETATM    9  S   UNK N   1      32.142  16.553   3.087  0.00  0.00    -0.041 SA
BRANCH   8  10
HETATM   10  N   UNK N   1      31.207  17.530   5.143  0.00  0.00    -0.333 N 
HETATM   11  H   UNK N   1      30.935  18.463   5.297  0.00  0.00     0.168 HD
BRANCH  10  12
HETATM   12  C   UNK N   1      31.764  16.825   6.241  0.00  0.00     0.035 A 
HETATM   13  C   UNK N   1      31.709  15.408   6.365  0.00  0.00     0.030 A 
HETATM   14  C   UNK N   1      32.580  14.739   7.255  0.00  0.00     0.014 A 
HETATM   15  C   UNK N   1      33.504  15.515   7.975  0.00  0.00     0.003 A 
HETATM   16  C   UNK N   1      33.448  16.874   7.908  0.00  0.00     0.051 A 
HETATM   17  C   UNK N   1      34.916  15.117   8.443  0.00  0.00     0.159 C 
HETATM   18  C   UNK N   1      32.603  17.555   7.071  0.00  0.00     0.048 A 
HETATM   19  C   UNK N   1      34.619  17.377   8.492  0.00  0.00     0.295 C 
HETATM   20  O   UNK N   1      34.898  18.556   8.633  0.00  0.00    -0.259 OA
HETATM   21  O   UNK N   1      35.475  16.375   8.710  0.00  0.00    -0.291 OA
HETATM   22  C   UNK N   1      35.670  14.530   7.254  0.00  0.00     0.020 A 
HETATM   23  C   UNK N   1      35.276  14.397   9.716  0.00  0.00     0.020 A 
HETATM   24  C   UNK N   1      35.146  14.564   5.944  0.00  0.00     0.016 A 
HETATM   25  C   UNK N   1      36.943  13.992   7.463  0.00  0.00     0.088 A 
HETATM   26  C   UNK N   1      35.874  14.081   4.866  0.00  0.00     0.037 A 
HETATM   27  C   UNK N   1      37.153  13.575   5.074  0.00  0.00     0.068 A 
HETATM   28  C   UNK N   1      37.690  13.527   6.370  0.00  0.00     0.074 A 
HETATM   29  O   UNK N   1      37.428  13.876   8.723  0.00  0.00    -0.309 OA
HETATM   30  C   UNK N   1      36.628  13.963   9.824  0.00  0.00     0.088 A 
HETATM   31  C   UNK N   1      37.163  13.644  11.070  0.00  0.00     0.074 A 
HETATM   32  C   UNK N   1      36.382  13.754  12.217  0.00  0.00     0.068 A 
HETATM   33  C   UNK N   1      35.045  14.163  12.121  0.00  0.00     0.037 A 
HETATM   34  C   UNK N   1      34.499  14.511  10.877  0.00  0.00     0.016 A 
BRANCH  27  35
HETATM   35  O   UNK N   1      37.867  13.126   4.030  0.00  0.00    -0.361 OA
HETATM   36  H   UNK N   1      37.874  12.215   3.815  0.00  0.00     0.217 HD
ENDBRANCH  27  35
BRANCH  32  37
HETATM   37  O   UNK N   1      36.924  13.489  13.417  0.00  0.00    -0.361 OA
HETATM   38  H   UNK N   1      37.612  12.859  13.499  0.00  0.00     0.217 HD
ENDBRANCH  32  37
ENDBRANCH  10  12
ENDBRANCH   8  10
ENDBRANCH   6   8
ENDBRANCH   5   6
ENDBRANCH   4   5
ENDBRANCH   3   4
BRANCH   3  39
HETATM   39  C   UNK N   1      27.469  17.819   5.709  0.00  0.00     0.185 C 
BRANCH  39  40
HETATM   40  C   UNK N   1      28.310  17.012   6.696  0.00  0.00     0.045 C 
BRANCH  40  41
HETATM   41  C   UNK N   1      27.426  16.763   7.932  0.00  0.00     0.105 C 
BRANCH  41  42
HETATM   42  C   UNK N   1      27.939  17.341   9.207  0.00  0.00     0.215 C 
HETATM   43  O   UNK N   1      27.954  16.669  10.225  0.00  0.00    -0.274 OA
HETATM   44  N   UNK N   1      28.289  18.642   9.256  0.00  0.00    -0.370 N 
HETATM   45  H   UNK N   1      28.815  19.152   8.599  0.00  0.00     0.159 HD
HETATM   46  H   UNK N   1      27.982  19.143  10.046  0.00  0.00     0.159 HD
ENDBRANCH  41  42
ENDBRANCH  40  41
ENDBRANCH  39  40
BRANCH  39  47
HETATM   47  C   UNK N   1      28.025  19.200   5.624  0.00  0.00     0.163 C 
HETATM   48  O   UNK N   1      27.857  19.969   6.554  0.00  0.00    -0.648 OA
BRANCH  47  49
HETATM   49  O   UNK N   1      28.816  19.552   4.592  0.00  0.00    -0.775 OA
HETATM   50  H   UNK N   1      29.238  20.266   4.158  0.00  0.00     0.167 HD
ENDBRANCH  47  49
ENDBRANCH  39  47
ENDBRANCH   3  39
BRANCH   1  51
HETATM   51  C   UNK N   1      25.201  18.686   4.053  0.00  0.00     0.032 C 
HETATM   52  C   UNK N   1      24.029  18.364   4.748  0.00  0.00     0.019 C 
HETATM   53  C   UNK N   1      22.828  18.934   4.361  0.00  0.00     0.030 C 
HETATM   54  C   UNK N   1      22.826  19.821   3.288  0.00  0.00     0.028 C 
HETATM   55  C   UNK N   1      24.013  20.332   2.784  0.00  0.00     0.030 C 
HETATM   56  C   UNK N   1      25.210  19.779   3.184  0.00  0.00     0.019 C 
BRANCH  54  57
HETATM   57  N   UNK N   1      21.680  20.013   2.524  0.00  0.00    -0.384 N 
HETATM   58  H   UNK N   1      21.810  20.324   1.599  0.00  0.00     0.160 HD
BRANCH  57  59
HETATM   59  C   UNK N   1      20.323  19.800   2.955  0.00  0.00     0.178 C 
BRANCH  59  60
HETATM   60  C   UNK N   1      20.096  18.355   2.752  0.00  0.00     0.043 A 
HETATM   61  C   UNK N   1      20.156  17.742   1.497  0.00  0.00     0.116 A 
HETATM   62  N   UNK N   1      19.903  16.404   1.404  0.00  0.00    -0.348 N 
HETATM   63  C   UNK N   1      19.595  15.671   2.515  0.00  0.00     0.153 A 
ATOM     64  HN  UNK N   1      19.944  15.945   0.494  1.00  0.00     0.167 HD
HETATM   65  C   UNK N   1      19.538  16.303   3.758  0.00  0.00     0.147 A 
HETATM   66  N   UNK N   1      19.347  14.342   2.434  0.00  0.00    -0.174 N 
HETATM   67  N   UNK N   1      19.786  17.610   3.840  0.00  0.00    -0.350 N 
HETATM   68  C   UNK N   1      19.225  15.568   4.892  0.00  0.00     0.290 A 
ATOM     69  HN  UNK N   1      19.742  18.065   4.752  1.00  0.00     0.166 HD
HETATM   70  O   UNK N   1      19.168  16.107   5.987  0.00  0.00    -0.265 OA
HETATM   71  N   UNK N   1      18.983  14.232   4.771  0.00  0.00    -0.154 N 
HETATM   72  C   UNK N   1      19.044  13.622   3.553  0.00  0.00     0.680 A 
HETATM   73  H   UNK N   1      18.761  13.701   5.570  0.00  0.00     0.187 HD
HETATM   74  N   UNK N   1      18.795  12.243   3.454  0.00  0.00    -0.234 N 
HETATM   75  H   UNK N   1      18.816  11.802   2.575  0.00  0.00     0.174 HD
HETATM   76  H   UNK N   1      18.600  11.719   4.264  0.00  0.00     0.174 HD
ATOM     77  HN  UNK N   1      19.388  13.875   1.528  1.00  0.00     0.186 HD
ENDBRANCH  59  60
ENDBRANCH  57  59
ENDBRANCH  54  57
ENDBRANCH   1  51
TORSDOF 18
ENDMDL
