REMARK  7 active torsions:
REMARK  status: ('A' for Active; 'I' for Inactive)
REMARK    1  A    between atoms: N_4  and  C_24 
REMARK    2  A    between atoms: N_7  and  S_8 
REMARK    3  A    between atoms: S_8  and  C_11 
REMARK    4  A    between atoms: C_15  and  C_17 
REMARK    5  A    between atoms: C_17  and  C_19 
REMARK    6  A    between atoms: C_17  and  O_23 
REMARK    7  A    between atoms: C_29  and  C_30 
ROOT
HETATM    1  C   UNK N   1       0.538   0.258   0.658  0.00  0.00     0.029 C 
HETATM    2  C   UNK N   1       1.216  -1.024   0.209  0.00  0.00     0.088 C 
HETATM    3  C   UNK N   1       2.503  -1.239   1.030  0.00  0.00     0.143 C 
HETATM    4  N   UNK N   1       2.580  -2.644   1.378  0.00  0.00    -0.377 N 
HETATM    5  C   UNK N   1       1.518  -3.169   2.217  0.00  0.00     0.138 C 
HETATM    6  C   UNK N   1       0.162  -2.641   1.718  0.00  0.00     0.128 C 
HETATM    7  N   UNK N   1       0.337  -2.204   0.334  0.00  0.00    -0.199 NA
ENDROOT
BRANCH   7   8
HETATM    8  S   UNK N   1      -1.156  -2.190  -0.610  0.00  0.00     0.244 S 
HETATM    9  O   UNK N   1      -1.633  -3.651  -0.595  0.00  0.00    -0.206 OA
HETATM   10  O   UNK N   1      -0.692  -2.072  -2.070  0.00  0.00    -0.206 OA
BRANCH   8  11
HETATM   11  C   UNK N   1      -2.489  -1.062  -0.252  0.00  0.00     0.075 A 
HETATM   12  C   UNK N   1      -3.658  -1.526   0.357  0.00  0.00     0.025 A 
HETATM   13  C   UNK N   1      -4.739  -0.662   0.538  0.00  0.00     0.002 A 
HETATM   14  C   UNK N   1      -4.660   0.661   0.090  0.00  0.00     0.010 A 
HETATM   15  C   UNK N   1      -3.485   1.138  -0.514  0.00  0.00    -0.014 A 
HETATM   16  C   UNK N   1      -2.402   0.263  -0.678  0.00  0.00     0.035 A 
BRANCH  15  17
HETATM   17  C   UNK N   1      -3.390   2.568  -1.013  0.00  0.00     0.179 C 
HETATM   18  C   UNK N   1      -2.932   2.567  -2.467  0.00  0.00     0.061 C 
BRANCH  17  19
HETATM   19  C   UNK N   1      -2.419   3.391  -0.148  0.00  0.00     0.422 C 
HETATM   20  F   UNK N   1      -2.885   3.439   1.155  0.00  0.00    -0.167 F 
HETATM   21  F   UNK N   1      -2.339   4.686  -0.632  0.00  0.00    -0.167 F 
HETATM   22  F   UNK N   1      -1.150   2.840  -0.149  0.00  0.00    -0.167 F 
ENDBRANCH  17  19
BRANCH  17  23
HETATM   23  O   UNK N   1      -4.647   3.180  -0.961  0.00  0.00    -0.376 OA
HETATM   24  H   UNK N   1      -4.715   4.147  -0.926  0.00  0.00     0.211 HD
ENDBRANCH  17  23
ENDBRANCH  15  17
ENDBRANCH   8  11
ENDBRANCH   7   8
BRANCH   4  25
HETATM   25  C   UNK N   1       3.611  -3.445   0.792  0.00  0.00     0.045 A 
HETATM   26  C   UNK N   1       4.882  -2.847   0.680  0.00  0.00     0.033 A 
HETATM   27  C   UNK N   1       5.967  -3.523   0.132  0.00  0.00     0.044 A 
HETATM   28  C   UNK N   1       5.810  -4.820  -0.332  0.00  0.00     0.117 A 
HETATM   29  C   UNK N   1       4.564  -5.432  -0.268  0.00  0.00     0.060 A 
HETATM   30  F   UNK N   1       6.860  -5.479  -0.874  0.00  0.00    -0.206 F 
HETATM   31  C   UNK N   1       3.441  -4.784   0.274  0.00  0.00     0.077 A 
BRANCH  31  32
HETATM   32  C   UNK N   1       2.151  -5.584   0.142  0.00  0.00     0.419 C 
HETATM   33  F   UNK N   1       0.997  -4.964   0.531  0.00  0.00    -0.166 F 
HETATM   34  F   UNK N   1       1.977  -5.901  -1.194  0.00  0.00    -0.166 F 
HETATM   35  F   UNK N   1       2.269  -6.761   0.857  0.00  0.00    -0.166 F 
ENDBRANCH  31  32
ENDBRANCH   4  25
TORSDOF 7
