MODEL 1
REMARK VINA RESULT:      -8.2      0.000      0.000
REMARK  7 active torsions:
REMARK  status: ('A' for Active; 'I' for Inactive)
REMARK    1  A    between atoms: C_6  and  C_8 
REMARK    2  A    between atoms: C_14  and  C_28 
REMARK    3  A    between atoms: N_16  and  C_17 
REMARK    4  A    between atoms: C_17  and  C_18 
REMARK    5  A    between atoms: C_21  and  C_24 
REMARK    6  A    between atoms: C_28  and  C_30 
REMARK    7  A    between atoms: C_30  and  O_32 
ROOT
HETATM    1  C   UNK N   1      24.295  18.107   4.202  0.00  0.00    -0.025 A 
HETATM    2  C   UNK N   1      24.013  16.730   4.421  0.00  0.00     0.014 A 
HETATM    3  C   UNK N   1      22.737  16.199   4.130  0.00  0.00     0.031 A 
HETATM    4  C   UNK N   1      21.769  17.073   3.625  0.00  0.00     0.045 A 
HETATM    5  C   UNK N   1      22.044  18.398   3.422  0.00  0.00     0.007 A 
HETATM    6  C   UNK N   1      23.285  18.946   3.694  0.00  0.00     0.027 A 
HETATM    7  C   UNK N   1      20.900  18.981   2.926  0.00  0.00     0.049 A 
HETATM    8  C   UNK N   1      19.957  17.972   2.849  0.00  0.00     0.108 A 
HETATM    9  N   UNK N   1      20.498  16.800   3.272  0.00  0.00    -0.351 N 
ENDROOT
BRANCH   9  10
HETATM   10  C   UNK N   1      19.834  15.485   3.343  0.00  0.00     0.167 C 
BRANCH  10  11
HETATM   11  C   UNK N   1      20.537  14.334   2.639  0.00  0.00    -0.040 A 
HETATM   12  C   UNK N   1      20.853  14.462   1.281  0.00  0.00     0.009 A 
HETATM   13  C   UNK N   1      21.558  13.447   0.619  0.00  0.00     0.008 A 
HETATM   14  C   UNK N   1      21.953  12.282   1.308  0.00  0.00    -0.051 A 
HETATM   15  C   UNK N   1      21.600  12.145   2.654  0.00  0.00     0.008 A 
HETATM   16  C   UNK N   1      20.901  13.155   3.304  0.00  0.00     0.009 A 
BRANCH  14  17
HETATM   17  C   UNK N   1      22.771  11.193   0.643  0.00  0.00    -0.024 C 
HETATM   18  C   UNK N   1      23.596  11.780  -0.488  0.00  0.00     0.019 C 
HETATM   19  C   UNK N   1      21.841  10.139   0.067  0.00  0.00     0.019 C 
HETATM   20  C   UNK N   1      23.718  10.496   1.608  0.00  0.00     0.019 C 
ENDBRANCH  14  17
ENDBRANCH  10  11
ENDBRANCH   9  10
BRANCH   7  21
HETATM   21  C   UNK N   1      20.701  20.399   2.538  0.00  0.00     0.257 C 
HETATM   22  O   UNK N   1      20.529  21.239   3.407  0.00  0.00    -0.280 OA
BRANCH  21  23
HETATM   23  C   UNK N   1      20.716  20.827   1.117  0.00  0.00     0.219 C 
HETATM   24  O   UNK N   1      20.915  20.022   0.221  0.00  0.00    -0.644 OA
BRANCH  23  25
HETATM   25  O   UNK N   1      20.507  22.122   0.808  0.00  0.00    -0.770 OA
HETATM   26  H   UNK N   1      21.188  22.751   0.942  0.00  0.00     0.168 HD
ENDBRANCH  23  25
ENDBRANCH  21  23
ENDBRANCH   7  21
BRANCH   1  27
HETATM   27  C   UNK N   1      25.631  18.680   4.485  0.00  0.00    -0.025 A 
HETATM   28  C   UNK N   1      26.801  18.059   4.022  0.00  0.00     0.012 A 
HETATM   29  C   UNK N   1      28.053  18.623   4.297  0.00  0.00     0.001 A 
HETATM   30  C   UNK N   1      28.144  19.807   5.035  0.00  0.00     0.007 A 
HETATM   31  C   UNK N   1      26.984  20.430   5.498  0.00  0.00    -0.061 A 
HETATM   32  C   UNK N   1      27.072  21.691   6.281  0.00  0.00     0.048 C 
HETATM   33  C   UNK N   1      25.737  19.870   5.226  0.00  0.00     0.019 A 
ENDBRANCH   1  27
TORSDOF 7
ENDMDL
MODEL 2
REMARK VINA RESULT:      -8.2      2.948      4.168
REMARK  7 active torsions:
REMARK  status: ('A' for Active; 'I' for Inactive)
REMARK    1  A    between atoms: C_6  and  C_8 
REMARK    2  A    between atoms: C_14  and  C_28 
REMARK    3  A    between atoms: N_16  and  C_17 
REMARK    4  A    between atoms: C_17  and  C_18 
REMARK    5  A    between atoms: C_21  and  C_24 
REMARK    6  A    between atoms: C_28  and  C_30 
REMARK    7  A    between atoms: C_30  and  O_32 
ROOT
HETATM    1  C   UNK N   1      24.394  17.934   4.625  0.00  0.00    -0.025 A 
HETATM    2  C   UNK N   1      24.207  16.595   5.065  0.00  0.00     0.014 A 
HETATM    3  C   UNK N   1      22.937  15.982   4.992  0.00  0.00     0.031 A 
HETATM    4  C   UNK N   1      21.879  16.737   4.476  0.00  0.00     0.045 A 
HETATM    5  C   UNK N   1      22.064  18.027   4.059  0.00  0.00     0.007 A 
HETATM    6  C   UNK N   1      23.296  18.653   4.115  0.00  0.00     0.027 A 
HETATM    7  C   UNK N   1      20.846  18.490   3.612  0.00  0.00     0.049 A 
HETATM    8  C   UNK N   1      19.953  17.447   3.781  0.00  0.00     0.108 A 
HETATM    9  N   UNK N   1      20.594  16.370   4.304  0.00  0.00    -0.351 N 
ENDROOT
BRANCH   9  10
HETATM   10  C   UNK N   1      20.009  15.056   4.632  0.00  0.00     0.167 C 
BRANCH  10  11
HETATM   11  C   UNK N   1      20.539  14.373   5.884  0.00  0.00    -0.040 A 
HETATM   12  C   UNK N   1      21.155  13.121   5.763  0.00  0.00     0.009 A 
HETATM   13  C   UNK N   1      21.711  12.495   6.887  0.00  0.00     0.008 A 
HETATM   14  C   UNK N   1      21.654  13.112   8.153  0.00  0.00    -0.051 A 
HETATM   15  C   UNK N   1      21.004  14.344   8.273  0.00  0.00     0.008 A 
HETATM   16  C   UNK N   1      20.455  14.960   7.154  0.00  0.00     0.009 A 
BRANCH  14  17
HETATM   17  C   UNK N   1      22.300  12.495   9.379  0.00  0.00    -0.024 C 
HETATM   18  C   UNK N   1      23.469  13.351   9.835  0.00  0.00     0.019 C 
HETATM   19  C   UNK N   1      22.820  11.109   9.036  0.00  0.00     0.019 C 
HETATM   20  C   UNK N   1      21.335  12.353  10.545  0.00  0.00     0.019 C 
ENDBRANCH  14  17
ENDBRANCH  10  11
ENDBRANCH   9  10
BRANCH   7  21
HETATM   21  C   UNK N   1      20.537  19.827   3.050  0.00  0.00     0.257 C 
HETATM   22  O   UNK N   1      20.184  20.725   3.800  0.00  0.00    -0.280 OA
BRANCH  21  23
HETATM   23  C   UNK N   1      20.654  20.109   1.598  0.00  0.00     0.219 C 
HETATM   24  O   UNK N   1      20.860  21.243   1.194  0.00  0.00    -0.644 OA
BRANCH  23  25
HETATM   25  O   UNK N   1      20.531  19.104   0.710  0.00  0.00    -0.770 OA
HETATM   26  H   UNK N   1      19.882  19.151   0.036  0.00  0.00     0.168 HD
ENDBRANCH  23  25
ENDBRANCH  21  23
ENDBRANCH   7  21
BRANCH   1  27
HETATM   27  C   UNK N   1      25.721  18.591   4.678  0.00  0.00    -0.025 A 
HETATM   28  C   UNK N   1      26.833  18.035   4.027  0.00  0.00     0.012 A 
HETATM   29  C   UNK N   1      28.077  18.677   4.086  0.00  0.00     0.001 A 
HETATM   30  C   UNK N   1      28.216  19.875   4.795  0.00  0.00     0.007 A 
HETATM   31  C   UNK N   1      27.114  20.433   5.444  0.00  0.00    -0.061 A 
HETATM   32  C   UNK N   1      27.254  21.707   6.196  0.00  0.00     0.048 C 
HETATM   33  C   UNK N   1      25.876  19.795   5.387  0.00  0.00     0.019 A 
ENDBRANCH   1  27
TORSDOF 7
ENDMDL
MODEL 3
REMARK VINA RESULT:      -8.1      4.373      5.909
REMARK  7 active torsions:
REMARK  status: ('A' for Active; 'I' for Inactive)
REMARK    1  A    between atoms: C_6  and  C_8 
REMARK    2  A    between atoms: C_14  and  C_28 
REMARK    3  A    between atoms: N_16  and  C_17 
REMARK    4  A    between atoms: C_17  and  C_18 
REMARK    5  A    between atoms: C_21  and  C_24 
REMARK    6  A    between atoms: C_28  and  C_30 
REMARK    7  A    between atoms: C_30  and  O_32 
ROOT
HETATM    1  C   UNK N   1      22.214  17.422   5.588  0.00  0.00    -0.025 A 
HETATM    2  C   UNK N   1      23.179  16.380   5.660  0.00  0.00     0.014 A 
HETATM    3  C   UNK N   1      23.056  15.348   6.617  0.00  0.00     0.031 A 
HETATM    4  C   UNK N   1      21.961  15.393   7.484  0.00  0.00     0.045 A 
HETATM    5  C   UNK N   1      21.039  16.401   7.414  0.00  0.00     0.007 A 
HETATM    6  C   UNK N   1      21.129  17.423   6.486  0.00  0.00     0.027 A 
HETATM    7  C   UNK N   1      20.098  16.163   8.390  0.00  0.00     0.049 A 
HETATM    8  C   UNK N   1      20.492  15.001   9.029  0.00  0.00     0.108 A 
HETATM    9  N   UNK N   1      21.633  14.527   8.464  0.00  0.00    -0.351 N 
ENDROOT
BRANCH   9  10
HETATM   10  C   UNK N   1      22.379  13.313   8.843  0.00  0.00     0.167 C 
BRANCH  10  11
HETATM   11  C   UNK N   1      22.379  12.176   7.831  0.00  0.00    -0.040 A 
HETATM   12  C   UNK N   1      23.434  11.256   7.846  0.00  0.00     0.009 A 
HETATM   13  C   UNK N   1      23.431  10.161   6.972  0.00  0.00     0.008 A 
HETATM   14  C   UNK N   1      22.371   9.972   6.063  0.00  0.00    -0.051 A 
HETATM   15  C   UNK N   1      21.339  10.915   6.028  0.00  0.00     0.008 A 
HETATM   16  C   UNK N   1      21.348  11.999   6.898  0.00  0.00     0.009 A 
BRANCH  14  17
HETATM   17  C   UNK N   1      22.301   8.765   5.147  0.00  0.00    -0.024 C 
HETATM   18  C   UNK N   1      21.257   7.787   5.656  0.00  0.00     0.019 C 
HETATM   19  C   UNK N   1      23.650   8.066   5.125  0.00  0.00     0.019 C 
HETATM   20  C   UNK N   1      21.946   9.133   3.715  0.00  0.00     0.019 C 
ENDBRANCH  14  17
ENDBRANCH  10  11
ENDBRANCH   9  10
BRANCH   7  21
HETATM   21  C   UNK N   1      18.893  16.969   8.702  0.00  0.00     0.257 C 
HETATM   22  O   UNK N   1      17.801  16.595   8.301  0.00  0.00    -0.280 OA
BRANCH  21  23
HETATM   23  C   UNK N   1      18.975  18.218   9.501  0.00  0.00     0.219 C 
HETATM   24  O   UNK N   1      19.974  18.918   9.468  0.00  0.00    -0.644 OA
BRANCH  23  25
HETATM   25  O   UNK N   1      17.935  18.585  10.274  0.00  0.00    -0.770 OA
HETATM   26  H   UNK N   1      17.823  19.484  10.512  0.00  0.00     0.168 HD
ENDBRANCH  23  25
ENDBRANCH  21  23
ENDBRANCH   7  21
BRANCH   1  27
HETATM   27  C   UNK N   1      22.315  18.505   4.582  0.00  0.00    -0.025 A 
HETATM   28  C   UNK N   1      21.166  19.102   4.039  0.00  0.00     0.012 A 
HETATM   29  C   UNK N   1      21.286  20.127   3.093  0.00  0.00     0.001 A 
HETATM   30  C   UNK N   1      22.551  20.562   2.685  0.00  0.00     0.007 A 
HETATM   31  C   UNK N   1      23.698  19.974   3.221  0.00  0.00    -0.061 A 
HETATM   32  C   UNK N   1      25.045  20.433   2.794  0.00  0.00     0.048 C 
HETATM   33  C   UNK N   1      23.580  18.952   4.162  0.00  0.00     0.019 A 
ENDBRANCH   1  27
TORSDOF 7
ENDMDL
MODEL 4
REMARK VINA RESULT:      -8.0     13.161     16.752
REMARK  7 active torsions:
REMARK  status: ('A' for Active; 'I' for Inactive)
REMARK    1  A    between atoms: C_6  and  C_8 
REMARK    2  A    between atoms: C_14  and  C_28 
REMARK    3  A    between atoms: N_16  and  C_17 
REMARK    4  A    between atoms: C_17  and  C_18 
REMARK    5  A    between atoms: C_21  and  C_24 
REMARK    6  A    between atoms: C_28  and  C_30 
REMARK    7  A    between atoms: C_30  and  O_32 
ROOT
HETATM    1  C   UNK N   1      34.070  15.551   9.109  0.00  0.00    -0.025 A 
HETATM    2  C   UNK N   1      34.634  16.337  10.151  0.00  0.00     0.014 A 
HETATM    3  C   UNK N   1      35.212  15.725  11.285  0.00  0.00     0.031 A 
HETATM    4  C   UNK N   1      35.206  14.328  11.343  0.00  0.00     0.045 A 
HETATM    5  C   UNK N   1      34.658  13.577  10.339  0.00  0.00     0.007 A 
HETATM    6  C   UNK N   1      34.088  14.147   9.215  0.00  0.00     0.027 A 
HETATM    7  C   UNK N   1      34.807  12.254  10.691  0.00  0.00     0.049 A 
HETATM    8  C   UNK N   1      35.449  12.252  11.917  0.00  0.00     0.108 A 
HETATM    9  N   UNK N   1      35.699  13.528  12.309  0.00  0.00    -0.351 N 
ENDROOT
BRANCH   9  10
HETATM   10  C   UNK N   1      36.369  13.965  13.548  0.00  0.00     0.167 C 
BRANCH  10  11
HETATM   11  C   UNK N   1      36.228  13.047  14.754  0.00  0.00    -0.040 A 
HETATM   12  C   UNK N   1      35.318  13.387  15.762  0.00  0.00     0.009 A 
HETATM   13  C   UNK N   1      35.118  12.530  16.853  0.00  0.00     0.008 A 
HETATM   14  C   UNK N   1      35.831  11.319  16.954  0.00  0.00    -0.051 A 
HETATM   15  C   UNK N   1      36.766  11.005  15.963  0.00  0.00     0.008 A 
HETATM   16  C   UNK N   1      36.960  11.859  14.883  0.00  0.00     0.009 A 
BRANCH  14  17
HETATM   17  C   UNK N   1      35.595  10.338  18.085  0.00  0.00    -0.024 C 
HETATM   18  C   UNK N   1      34.431   9.424  17.744  0.00  0.00     0.019 C 
HETATM   19  C   UNK N   1      35.257  11.099  19.356  0.00  0.00     0.019 C 
HETATM   20  C   UNK N   1      36.809   9.469  18.375  0.00  0.00     0.019 C 
ENDBRANCH  14  17
ENDBRANCH  10  11
ENDBRANCH   9  10
BRANCH   7  21
HETATM   21  C   UNK N   1      34.384  11.059   9.922  0.00  0.00     0.257 C 
HETATM   22  O   UNK N   1      35.150  10.569   9.106  0.00  0.00    -0.280 OA
BRANCH  21  23
HETATM   23  C   UNK N   1      33.053  10.433  10.123  0.00  0.00     0.219 C 
HETATM   24  O   UNK N   1      32.927   9.437  10.818  0.00  0.00    -0.644 OA
BRANCH  23  25
HETATM   25  O   UNK N   1      31.967  10.968   9.531  0.00  0.00    -0.770 OA
HETATM   26  H   UNK N   1      31.370  10.418   9.064  0.00  0.00     0.168 HD
ENDBRANCH  23  25
ENDBRANCH  21  23
ENDBRANCH   7  21
BRANCH   1  27
HETATM   27  C   UNK N   1      33.474  16.173   7.904  0.00  0.00    -0.025 A 
HETATM   28  C   UNK N   1      34.279  16.663   6.864  0.00  0.00     0.012 A 
HETATM   29  C   UNK N   1      33.693  17.241   5.732  0.00  0.00     0.001 A 
HETATM   30  C   UNK N   1      32.300  17.333   5.631  0.00  0.00     0.007 A 
HETATM   31  C   UNK N   1      31.493  16.847   6.661  0.00  0.00    -0.061 A 
HETATM   32  C   UNK N   1      30.013  16.939   6.560  0.00  0.00     0.048 C 
HETATM   33  C   UNK N   1      32.076  16.272   7.789  0.00  0.00     0.019 A 
ENDBRANCH   1  27
TORSDOF 7
ENDMDL
MODEL 5
REMARK VINA RESULT:      -8.0     10.931     14.606
REMARK  7 active torsions:
REMARK  status: ('A' for Active; 'I' for Inactive)
REMARK    1  A    between atoms: C_6  and  C_8 
REMARK    2  A    between atoms: C_14  and  C_28 
REMARK    3  A    between atoms: N_16  and  C_17 
REMARK    4  A    between atoms: C_17  and  C_18 
REMARK    5  A    between atoms: C_21  and  C_24 
REMARK    6  A    between atoms: C_28  and  C_30 
REMARK    7  A    between atoms: C_30  and  O_32 
ROOT
HETATM    1  C   UNK N   1      35.713  14.520  11.539  0.00  0.00    -0.025 A 
HETATM    2  C   UNK N   1      35.352  15.882  11.344  0.00  0.00     0.014 A 
HETATM    3  C   UNK N   1      34.956  16.348  10.072  0.00  0.00     0.031 A 
HETATM    4  C   UNK N   1      34.935  15.429   9.020  0.00  0.00     0.045 A 
HETATM    5  C   UNK N   1      35.288  14.121   9.211  0.00  0.00     0.007 A 
HETATM    6  C   UNK N   1      35.677  13.633  10.446  0.00  0.00     0.027 A 
HETATM    7  C   UNK N   1      35.165  13.482   7.997  0.00  0.00     0.049 A 
HETATM    8  C   UNK N   1      34.738  14.443   7.099  0.00  0.00     0.108 A 
HETATM    9  N   UNK N   1      34.590  15.635   7.733  0.00  0.00    -0.351 N 
ENDROOT
BRANCH   9  10
HETATM   10  C   UNK N   1      34.149  16.912   7.141  0.00  0.00     0.167 C 
BRANCH  10  11
HETATM   11  C   UNK N   1      32.671  17.247   7.280  0.00  0.00    -0.040 A 
HETATM   12  C   UNK N   1      31.797  16.899   6.243  0.00  0.00     0.009 A 
HETATM   13  C   UNK N   1      30.422  17.135   6.367  0.00  0.00     0.008 A 
HETATM   14  C   UNK N   1      29.899  17.729   7.533  0.00  0.00    -0.051 A 
HETATM   15  C   UNK N   1      30.782  18.109   8.549  0.00  0.00     0.008 A 
HETATM   16  C   UNK N   1      32.145  17.872   8.420  0.00  0.00     0.009 A 
BRANCH  14  17
HETATM   17  C   UNK N   1      28.410  17.941   7.731  0.00  0.00    -0.024 C 
HETATM   18  C   UNK N   1      28.016  19.330   7.258  0.00  0.00     0.019 C 
HETATM   19  C   UNK N   1      28.072  17.818   9.207  0.00  0.00     0.019 C 
HETATM   20  C   UNK N   1      27.565  16.927   6.976  0.00  0.00     0.019 C 
ENDBRANCH  14  17
ENDBRANCH  10  11
ENDBRANCH   9  10
BRANCH   7  21
HETATM   21  C   UNK N   1      35.423  12.053   7.696  0.00  0.00     0.257 C 
HETATM   22  O   UNK N   1      36.520  11.717   7.277  0.00  0.00    -0.280 OA
BRANCH  21  23
HETATM   23  C   UNK N   1      34.383  11.013   7.900  0.00  0.00     0.219 C 
HETATM   24  O   UNK N   1      34.673   9.827   7.891  0.00  0.00    -0.644 OA
BRANCH  23  25
HETATM   25  O   UNK N   1      33.102  11.379   8.096  0.00  0.00    -0.770 OA
HETATM   26  H   UNK N   1      32.631  11.056   8.838  0.00  0.00     0.168 HD
ENDBRANCH  23  25
ENDBRANCH  21  23
ENDBRANCH   7  21
BRANCH   1  27
HETATM   27  C   UNK N   1      36.116  14.006  12.868  0.00  0.00    -0.025 A 
HETATM   28  C   UNK N   1      36.114  12.630  13.147  0.00  0.00     0.012 A 
HETATM   29  C   UNK N   1      36.505  12.167  14.410  0.00  0.00     0.001 A 
HETATM   30  C   UNK N   1      36.899  13.074  15.399  0.00  0.00     0.007 A 
HETATM   31  C   UNK N   1      36.903  14.443  15.129  0.00  0.00    -0.061 A 
HETATM   32  C   UNK N   1      37.323  15.412  16.175  0.00  0.00     0.048 C 
HETATM   33  C   UNK N   1      36.514  14.905  13.873  0.00  0.00     0.019 A 
ENDBRANCH   1  27
TORSDOF 7
ENDMDL
MODEL 6
REMARK VINA RESULT:      -8.0      4.950      8.139
REMARK  7 active torsions:
REMARK  status: ('A' for Active; 'I' for Inactive)
REMARK    1  A    between atoms: C_6  and  C_8 
REMARK    2  A    between atoms: C_14  and  C_28 
REMARK    3  A    between atoms: N_16  and  C_17 
REMARK    4  A    between atoms: C_17  and  C_18 
REMARK    5  A    between atoms: C_21  and  C_24 
REMARK    6  A    between atoms: C_28  and  C_30 
REMARK    7  A    between atoms: C_30  and  O_32 
ROOT
HETATM    1  C   UNK N   1      22.128  13.816   8.535  0.00  0.00    -0.025 A 
HETATM    2  C   UNK N   1      23.103  13.693   7.507  0.00  0.00     0.014 A 
HETATM    3  C   UNK N   1      22.984  14.431   6.308  0.00  0.00     0.031 A 
HETATM    4  C   UNK N   1      21.879  15.276   6.172  0.00  0.00     0.045 A 
HETATM    5  C   UNK N   1      20.942  15.386   7.162  0.00  0.00     0.007 A 
HETATM    6  C   UNK N   1      21.032  14.680   8.348  0.00  0.00     0.027 A 
HETATM    7  C   UNK N   1      19.992  16.285   6.728  0.00  0.00     0.049 A 
HETATM    8  C   UNK N   1      20.396  16.691   5.468  0.00  0.00     0.108 A 
HETATM    9  N   UNK N   1      21.559  16.075   5.134  0.00  0.00    -0.351 N 
ENDROOT
BRANCH   9  10
HETATM   10  C   UNK N   1      22.326  16.233   3.884  0.00  0.00     0.167 C 
BRANCH  10  11
HETATM   11  C   UNK N   1      23.498  17.202   3.928  0.00  0.00    -0.040 A 
HETATM   12  C   UNK N   1      23.240  18.575   4.018  0.00  0.00     0.009 A 
HETATM   13  C   UNK N   1      24.297  19.489   4.125  0.00  0.00     0.008 A 
HETATM   14  C   UNK N   1      25.633  19.041   4.140  0.00  0.00    -0.051 A 
HETATM   15  C   UNK N   1      25.885  17.671   4.012  0.00  0.00     0.008 A 
HETATM   16  C   UNK N   1      24.832  16.770   3.905  0.00  0.00     0.009 A 
BRANCH  14  17
HETATM   17  C   UNK N   1      26.800  19.992   4.319  0.00  0.00    -0.024 C 
HETATM   18  C   UNK N   1      26.964  20.852   3.079  0.00  0.00     0.019 C 
HETATM   19  C   UNK N   1      28.077  19.196   4.529  0.00  0.00     0.019 C 
HETATM   20  C   UNK N   1      26.628  20.915   5.516  0.00  0.00     0.019 C 
ENDBRANCH  14  17
ENDBRANCH  10  11
ENDBRANCH   9  10
BRANCH   7  21
HETATM   21  C   UNK N   1      18.783  16.745   7.452  0.00  0.00     0.257 C 
HETATM   22  O   UNK N   1      17.681  16.386   7.067  0.00  0.00    -0.280 OA
BRANCH  21  23
HETATM   23  C   UNK N   1      18.875  17.626   8.643  0.00  0.00     0.219 C 
HETATM   24  O   UNK N   1      19.947  18.094   8.995  0.00  0.00    -0.644 OA
BRANCH  23  25
HETATM   25  O   UNK N   1      17.765  17.915   9.348  0.00  0.00    -0.770 OA
HETATM   26  H   UNK N   1      16.952  17.503   9.131  0.00  0.00     0.168 HD
ENDBRANCH  23  25
ENDBRANCH  21  23
ENDBRANCH   7  21
BRANCH   1  27
HETATM   27  C   UNK N   1      22.241  13.064   9.806  0.00  0.00    -0.025 A 
HETATM   28  C   UNK N   1      23.494  12.715  10.334  0.00  0.00     0.012 A 
HETATM   29  C   UNK N   1      23.577  12.009  11.541  0.00  0.00     0.001 A 
HETATM   30  C   UNK N   1      22.412  11.648  12.225  0.00  0.00     0.007 A 
HETATM   31  C   UNK N   1      21.163  11.993  11.706  0.00  0.00    -0.061 A 
HETATM   32  C   UNK N   1      19.921  11.615  12.430  0.00  0.00     0.048 C 
HETATM   33  C   UNK N   1      21.079  12.695  10.505  0.00  0.00     0.019 A 
ENDBRANCH   1  27
TORSDOF 7
ENDMDL
MODEL 7
REMARK VINA RESULT:      -7.9     14.638     16.975
REMARK  7 active torsions:
REMARK  status: ('A' for Active; 'I' for Inactive)
REMARK    1  A    between atoms: C_6  and  C_8 
REMARK    2  A    between atoms: C_14  and  C_28 
REMARK    3  A    between atoms: N_16  and  C_17 
REMARK    4  A    between atoms: C_17  and  C_18 
REMARK    5  A    between atoms: C_21  and  C_24 
REMARK    6  A    between atoms: C_28  and  C_30 
REMARK    7  A    between atoms: C_30  and  O_32 
ROOT
HETATM    1  C   UNK N   1      35.217  11.531  15.303  0.00  0.00    -0.025 A 
HETATM    2  C   UNK N   1      35.322  10.165  14.920  0.00  0.00     0.014 A 
HETATM    3  C   UNK N   1      35.333   9.797  13.556  0.00  0.00     0.031 A 
HETATM    4  C   UNK N   1      35.234  10.818  12.607  0.00  0.00     0.045 A 
HETATM    5  C   UNK N   1      35.128  12.130  12.981  0.00  0.00     0.007 A 
HETATM    6  C   UNK N   1      35.117  12.522  14.308  0.00  0.00     0.027 A 
HETATM    7  C   UNK N   1      35.047  12.878  11.829  0.00  0.00     0.049 A 
HETATM    8  C   UNK N   1      35.107  11.978  10.780  0.00  0.00     0.108 A 
HETATM    9  N   UNK N   1      35.229  10.714  11.263  0.00  0.00    -0.351 N 
ENDROOT
BRANCH   9  10
HETATM   10  C   UNK N   1      35.330   9.467  10.483  0.00  0.00     0.167 C 
BRANCH  10  11
HETATM   11  C   UNK N   1      34.099   8.573  10.473  0.00  0.00    -0.040 A 
HETATM   12  C   UNK N   1      32.867   9.121  10.093  0.00  0.00     0.009 A 
HETATM   13  C   UNK N   1      31.727   8.311  10.010  0.00  0.00     0.008 A 
HETATM   14  C   UNK N   1      31.801   6.936  10.313  0.00  0.00    -0.051 A 
HETATM   15  C   UNK N   1      33.026   6.404  10.729  0.00  0.00     0.008 A 
HETATM   16  C   UNK N   1      34.153   7.213  10.808  0.00  0.00     0.009 A 
BRANCH  14  17
HETATM   17  C   UNK N   1      30.605   6.016  10.173  0.00  0.00    -0.024 C 
HETATM   18  C   UNK N   1      30.553   5.049  11.344  0.00  0.00     0.019 C 
HETATM   19  C   UNK N   1      30.728   5.213   8.889  0.00  0.00     0.019 C 
HETATM   20  C   UNK N   1      29.284   6.768  10.123  0.00  0.00     0.019 C 
ENDBRANCH  14  17
ENDBRANCH  10  11
ENDBRANCH   9  10
BRANCH   7  21
HETATM   21  C   UNK N   1      34.932  14.353  11.713  0.00  0.00     0.257 C 
HETATM   22  O   UNK N   1      33.883  14.842  11.322  0.00  0.00    -0.280 OA
BRANCH  21  23
HETATM   23  C   UNK N   1      36.056  15.254  12.070  0.00  0.00     0.219 C 
HETATM   24  O   UNK N   1      36.411  15.383  13.230  0.00  0.00    -0.644 OA
BRANCH  23  25
HETATM   25  O   UNK N   1      36.695  15.940  11.102  0.00  0.00    -0.770 OA
HETATM   26  H   UNK N   1      37.145  15.480  10.422  0.00  0.00     0.168 HD
ENDBRANCH  23  25
ENDBRANCH  21  23
ENDBRANCH   7  21
BRANCH   1  27
HETATM   27  C   UNK N   1      35.220  11.939  16.727  0.00  0.00    -0.025 A 
HETATM   28  C   UNK N   1      35.136  13.291  17.095  0.00  0.00     0.012 A 
HETATM   29  C   UNK N   1      35.135  13.654  18.448  0.00  0.00     0.001 A 
HETATM   30  C   UNK N   1      35.217  12.670  19.439  0.00  0.00     0.007 A 
HETATM   31  C   UNK N   1      35.299  11.324  19.080  0.00  0.00    -0.061 A 
HETATM   32  C   UNK N   1      35.382  10.273  20.128  0.00  0.00     0.048 C 
HETATM   33  C   UNK N   1      35.301  10.961  17.734  0.00  0.00     0.019 A 
ENDBRANCH   1  27
TORSDOF 7
ENDMDL
MODEL 8
REMARK VINA RESULT:      -7.9      5.065      8.536
REMARK  7 active torsions:
REMARK  status: ('A' for Active; 'I' for Inactive)
REMARK    1  A    between atoms: C_6  and  C_8 
REMARK    2  A    between atoms: C_14  and  C_28 
REMARK    3  A    between atoms: N_16  and  C_17 
REMARK    4  A    between atoms: C_17  and  C_18 
REMARK    5  A    between atoms: C_21  and  C_24 
REMARK    6  A    between atoms: C_28  and  C_30 
REMARK    7  A    between atoms: C_30  and  O_32 
ROOT
HETATM    1  C   UNK N   1      23.821  13.644   8.472  0.00  0.00    -0.025 A 
HETATM    2  C   UNK N   1      25.109  13.431   7.909  0.00  0.00     0.014 A 
HETATM    3  C   UNK N   1      25.494  14.087   6.718  0.00  0.00     0.031 A 
HETATM    4  C   UNK N   1      24.566  14.944   6.120  0.00  0.00     0.045 A 
HETATM    5  C   UNK N   1      23.326  15.142   6.663  0.00  0.00     0.007 A 
HETATM    6  C   UNK N   1      22.922  14.517   7.829  0.00  0.00     0.027 A 
HETATM    7  C   UNK N   1      22.659  16.028   5.847  0.00  0.00     0.049 A 
HETATM    8  C   UNK N   1      23.533  16.338   4.821  0.00  0.00     0.108 A 
HETATM    9  N   UNK N   1      24.706  15.676   4.997  0.00  0.00    -0.351 N 
ENDROOT
BRANCH   9  10
HETATM   10  C   UNK N   1      25.900  15.733   4.133  0.00  0.00     0.167 C 
BRANCH  10  11
HETATM   11  C   UNK N   1      27.236  15.917   4.837  0.00  0.00    -0.040 A 
HETATM   12  C   UNK N   1      28.238  14.957   4.651  0.00  0.00     0.009 A 
HETATM   13  C   UNK N   1      29.502  15.130   5.233  0.00  0.00     0.008 A 
HETATM   14  C   UNK N   1      29.780  16.268   6.016  0.00  0.00    -0.051 A 
HETATM   15  C   UNK N   1      28.763  17.204   6.229  0.00  0.00     0.008 A 
HETATM   16  C   UNK N   1      27.512  17.026   5.650  0.00  0.00     0.009 A 
BRANCH  14  17
HETATM   17  C   UNK N   1      31.153  16.521   6.608  0.00  0.00    -0.024 C 
HETATM   18  C   UNK N   1      31.036  17.426   7.822  0.00  0.00     0.019 C 
HETATM   19  C   UNK N   1      32.032  17.207   5.576  0.00  0.00     0.019 C 
HETATM   20  C   UNK N   1      31.855  15.242   7.037  0.00  0.00     0.019 C 
ENDBRANCH  14  17
ENDBRANCH  10  11
ENDBRANCH   9  10
BRANCH   7  21
HETATM   21  C   UNK N   1      21.287  16.562   6.022  0.00  0.00     0.257 C 
HETATM   22  O   UNK N   1      20.395  16.176   5.283  0.00  0.00    -0.280 OA
BRANCH  21  23
HETATM   23  C   UNK N   1      20.963  17.551   7.082  0.00  0.00     0.219 C 
HETATM   24  O   UNK N   1      21.034  18.749   6.863  0.00  0.00    -0.644 OA
BRANCH  23  25
HETATM   25  O   UNK N   1      20.587  17.122   8.302  0.00  0.00    -0.770 OA
HETATM   26  H   UNK N   1      19.681  17.120   8.539  0.00  0.00     0.168 HD
ENDBRANCH  23  25
ENDBRANCH  21  23
ENDBRANCH   7  21
BRANCH   1  27
HETATM   27  C   UNK N   1      23.403  12.979   9.728  0.00  0.00    -0.025 A 
HETATM   28  C   UNK N   1      24.349  12.448  10.618  0.00  0.00     0.012 A 
HETATM   29  C   UNK N   1      23.931  11.828  11.802  0.00  0.00     0.001 A 
HETATM   30  C   UNK N   1      22.568  11.737  12.104  0.00  0.00     0.007 A 
HETATM   31  C   UNK N   1      21.622  12.264  11.224  0.00  0.00    -0.061 A 
HETATM   32  C   UNK N   1      20.173  12.173  11.539  0.00  0.00     0.048 C 
HETATM   33  C   UNK N   1      22.037  12.880  10.044  0.00  0.00     0.019 A 
ENDBRANCH   1  27
TORSDOF 7
ENDMDL
MODEL 9
REMARK VINA RESULT:      -7.8     14.077     17.627
REMARK  7 active torsions:
REMARK  status: ('A' for Active; 'I' for Inactive)
REMARK    1  A    between atoms: C_6  and  C_8 
REMARK    2  A    between atoms: C_14  and  C_28 
REMARK    3  A    between atoms: N_16  and  C_17 
REMARK    4  A    between atoms: C_17  and  C_18 
REMARK    5  A    between atoms: C_21  and  C_24 
REMARK    6  A    between atoms: C_28  and  C_30 
REMARK    7  A    between atoms: C_30  and  O_32 
ROOT
HETATM    1  C   UNK N   1      35.946  12.820  15.413  0.00  0.00    -0.025 A 
HETATM    2  C   UNK N   1      36.257  14.114  14.909  0.00  0.00     0.014 A 
HETATM    3  C   UNK N   1      36.519  14.309  13.535  0.00  0.00     0.031 A 
HETATM    4  C   UNK N   1      36.463  13.191  12.698  0.00  0.00     0.045 A 
HETATM    5  C   UNK N   1      36.168  11.949  13.188  0.00  0.00     0.007 A 
HETATM    6  C   UNK N   1      35.904  11.726  14.528  0.00  0.00     0.027 A 
HETATM    7  C   UNK N   1      36.193  11.073  12.126  0.00  0.00     0.049 A 
HETATM    8  C   UNK N   1      36.509  11.830  11.012  0.00  0.00     0.108 A 
HETATM    9  N   UNK N   1      36.666  13.131  11.367  0.00  0.00    -0.351 N 
ENDROOT
BRANCH   9  10
HETATM   10  C   UNK N   1      37.001  14.263  10.482  0.00  0.00     0.167 C 
BRANCH  10  11
HETATM   11  C   UNK N   1      35.839  14.913   9.745  0.00  0.00    -0.040 A 
HETATM   12  C   UNK N   1      35.410  16.184  10.144  0.00  0.00     0.009 A 
HETATM   13  C   UNK N   1      34.386  16.838   9.445  0.00  0.00     0.008 A 
HETATM   14  C   UNK N   1      33.771  16.224   8.336  0.00  0.00    -0.051 A 
HETATM   15  C   UNK N   1      34.178  14.938   7.966  0.00  0.00     0.008 A 
HETATM   16  C   UNK N   1      35.195  14.296   8.664  0.00  0.00     0.009 A 
BRANCH  14  17
HETATM   17  C   UNK N   1      32.705  16.925   7.516  0.00  0.00    -0.024 C 
HETATM   18  C   UNK N   1      32.045  18.013   8.345  0.00  0.00     0.019 C 
HETATM   19  C   UNK N   1      31.642  15.922   7.100  0.00  0.00     0.019 C 
HETATM   20  C   UNK N   1      33.259  17.563   6.252  0.00  0.00     0.019 C 
ENDBRANCH  14  17
ENDBRANCH  10  11
ENDBRANCH   9  10
BRANCH   7  21
HETATM   21  C   UNK N   1      35.926   9.614  12.148  0.00  0.00     0.257 C 
HETATM   22  O   UNK N   1      36.838   8.842  12.400  0.00  0.00    -0.280 OA
BRANCH  21  23
HETATM   23  C   UNK N   1      34.573   9.065  11.883  0.00  0.00     0.219 C 
HETATM   24  O   UNK N   1      34.402   7.866  11.730  0.00  0.00    -0.644 OA
BRANCH  23  25
HETATM   25  O   UNK N   1      33.517   9.897  11.807  0.00  0.00    -0.770 OA
HETATM   26  H   UNK N   1      33.465  10.641  12.374  0.00  0.00     0.168 HD
ENDBRANCH  23  25
ENDBRANCH  21  23
ENDBRANCH   7  21
BRANCH   1  27
HETATM   27  C   UNK N   1      35.653  12.596  16.847  0.00  0.00    -0.025 A 
HETATM   28  C   UNK N   1      35.384  13.670  17.711  0.00  0.00     0.012 A 
HETATM   29  C   UNK N   1      35.103  13.433  19.062  0.00  0.00     0.001 A 
HETATM   30  C   UNK N   1      35.090  12.126  19.558  0.00  0.00     0.007 A 
HETATM   31  C   UNK N   1      35.356  11.054  18.706  0.00  0.00    -0.061 A 
HETATM   32  C   UNK N   1      35.340   9.661  19.225  0.00  0.00     0.048 C 
HETATM   33  C   UNK N   1      35.636  11.287  17.360  0.00  0.00     0.019 A 
ENDBRANCH   1  27
TORSDOF 7
ENDMDL
