MODEL 1
REMARK VINA RESULT:      -7.0      0.000      0.000
REMARK  7 active torsions:
REMARK  status: ('A' for Active; 'I' for Inactive)
REMARK    1  A    between atoms: C_2  and  C_4 
REMARK    2  A    between atoms: C_2  and  O_7 
REMARK    3  A    between atoms: C_4  and  O_6 
REMARK    4  A    between atoms: O_7  and  C_8 
REMARK    5  A    between atoms: C_8  and  C_9 
REMARK    6  A    between atoms: N_16  and  C_19 
REMARK    7  A    between atoms: C_19  and  C_20 
ROOT
HETATM    1  C   UNK N   1      31.313  17.315   7.114  0.00  0.00     0.062 A 
HETATM    2  C   UNK N   1      31.641  17.160   5.787  0.00  0.00     0.018 A 
HETATM    3  C   UNK N   1      32.858  17.215   5.114  0.00  0.00     0.016 A 
HETATM    4  C   UNK N   1      32.835  17.040   3.718  0.00  0.00     0.001 A 
HETATM    5  C   UNK N   1      31.608  16.832   3.042  0.00  0.00     0.002 A 
HETATM    6  C   UNK N   1      30.393  16.796   3.756  0.00  0.00     0.032 A 
HETATM    7  C   UNK N   1      30.456  16.962   5.139  0.00  0.00     0.063 A 
HETATM    8  N   UNK N   1      29.456  16.993   6.040  0.00  0.00    -0.287 N 
HETATM    9  N   UNK N   1      29.974  17.193   7.249  0.00  0.00    -0.299 N 
ATOM     10  HN  UNK N   1      29.453  17.245   8.124  1.00  0.00     0.187 HD
ENDROOT
BRANCH   1  11
HETATM   11  C   UNK N   1      32.242  17.699   8.208  0.00  0.00     0.228 C 
BRANCH  11  12
HETATM   12  O   UNK N   1      32.875  16.592   8.803  0.00  0.00    -0.364 OA
BRANCH  12  13
HETATM   13  C   UNK N   1      34.282  16.786   8.732  0.00  0.00     0.138 C 
HETATM   14  C   UNK N   1      34.634  18.189   8.229  0.00  0.00     0.057 C 
HETATM   15  C   UNK N   1      34.936  15.744   7.813  0.00  0.00     0.057 C 
BRANCH  13  16
HETATM   16  C   UNK N   1      34.848  16.670  10.127  0.00  0.00     0.175 C 
HETATM   17  O   UNK N   1      35.799  17.350  10.480  0.00  0.00    -0.648 OA
BRANCH  16  18
HETATM   18  O   UNK N   1      34.288  15.813  11.004  0.00  0.00    -0.774 OA
HETATM   19  H   UNK N   1      34.391  14.882  10.983  0.00  0.00     0.167 HD
ENDBRANCH  16  18
ENDBRANCH  13  16
ENDBRANCH  12  13
ENDBRANCH  11  12
ENDBRANCH   1  11
BRANCH   8  20
HETATM   20  C   UNK N   1      28.021  16.898   5.770  0.00  0.00     0.187 C 
BRANCH  20  21
HETATM   21  C   UNK N   1      27.430  18.208   5.301  0.00  0.00    -0.038 A 
HETATM   22  C   UNK N   1      27.468  19.319   6.152  0.00  0.00     0.009 A 
HETATM   23  C   UNK N   1      26.968  20.555   5.722  0.00  0.00     0.001 A 
HETATM   24  C   UNK N   1      26.437  20.690   4.435  0.00  0.00     0.000 A 
HETATM   25  C   UNK N   1      26.393  19.588   3.581  0.00  0.00     0.001 A 
HETATM   26  C   UNK N   1      26.884  18.355   4.013  0.00  0.00     0.009 A 
ENDBRANCH  20  21
ENDBRANCH   8  20
TORSDOF 7
ENDMDL
MODEL 2
REMARK VINA RESULT:      -6.8      4.824      9.849
REMARK  7 active torsions:
REMARK  status: ('A' for Active; 'I' for Inactive)
REMARK    1  A    between atoms: C_2  and  C_4 
REMARK    2  A    between atoms: C_2  and  O_7 
REMARK    3  A    between atoms: C_4  and  O_6 
REMARK    4  A    between atoms: O_7  and  C_8 
REMARK    5  A    between atoms: C_8  and  C_9 
REMARK    6  A    between atoms: N_16  and  C_19 
REMARK    7  A    between atoms: C_19  and  C_20 
ROOT
HETATM    1  C   UNK N   1      34.723  14.548  10.843  0.00  0.00     0.062 A 
HETATM    2  C   UNK N   1      36.003  14.192  10.487  0.00  0.00     0.018 A 
HETATM    3  C   UNK N   1      36.765  14.461   9.354  0.00  0.00     0.016 A 
HETATM    4  C   UNK N   1      38.056  13.905   9.295  0.00  0.00     0.001 A 
HETATM    5  C   UNK N   1      38.537  13.095  10.352  0.00  0.00     0.002 A 
HETATM    6  C   UNK N   1      37.731  12.834  11.479  0.00  0.00     0.032 A 
HETATM    7  C   UNK N   1      36.462  13.411  11.507  0.00  0.00     0.063 A 
HETATM    8  N   UNK N   1      35.498  13.302  12.441  0.00  0.00    -0.287 N 
HETATM    9  N   UNK N   1      34.440  14.007  12.048  0.00  0.00    -0.299 N 
ATOM     10  HN  UNK N   1      33.568  14.119  12.565  1.00  0.00     0.187 HD
ENDROOT
BRANCH   1  11
HETATM   11  C   UNK N   1      33.747  15.279   9.993  0.00  0.00     0.228 C 
BRANCH  11  12
HETATM   12  O   UNK N   1      34.210  16.547   9.594  0.00  0.00    -0.364 OA
BRANCH  12  13
HETATM   13  C   UNK N   1      33.559  16.903   8.382  0.00  0.00     0.138 C 
HETATM   14  C   UNK N   1      32.174  17.502   8.641  0.00  0.00     0.057 C 
HETATM   15  C   UNK N   1      33.416  15.687   7.455  0.00  0.00     0.057 C 
BRANCH  13  16
HETATM   16  C   UNK N   1      34.376  17.975   7.702  0.00  0.00     0.175 C 
HETATM   17  O   UNK N   1      34.511  17.990   6.488  0.00  0.00    -0.648 OA
BRANCH  16  18
HETATM   18  O   UNK N   1      34.956  18.942   8.441  0.00  0.00    -0.774 OA
HETATM   19  H   UNK N   1      35.373  18.804   9.270  0.00  0.00     0.167 HD
ENDBRANCH  16  18
ENDBRANCH  13  16
ENDBRANCH  12  13
ENDBRANCH  11  12
ENDBRANCH   1  11
BRANCH   8  20
HETATM   20  C   UNK N   1      35.538  12.499  13.663  0.00  0.00     0.187 C 
BRANCH  20  21
HETATM   21  C   UNK N   1      35.819  13.329  14.895  0.00  0.00    -0.038 A 
HETATM   22  C   UNK N   1      35.100  13.075  16.069  0.00  0.00     0.009 A 
HETATM   23  C   UNK N   1      35.375  13.800  17.236  0.00  0.00     0.001 A 
HETATM   24  C   UNK N   1      36.378  14.774  17.239  0.00  0.00     0.000 A 
HETATM   25  C   UNK N   1      37.098  15.036  16.073  0.00  0.00     0.001 A 
HETATM   26  C   UNK N   1      36.817  14.319  14.909  0.00  0.00     0.009 A 
ENDBRANCH  20  21
ENDBRANCH   8  20
TORSDOF 7
ENDMDL
MODEL 3
REMARK VINA RESULT:      -6.8     11.678     14.131
REMARK  7 active torsions:
REMARK  status: ('A' for Active; 'I' for Inactive)
REMARK    1  A    between atoms: C_2  and  C_4 
REMARK    2  A    between atoms: C_2  and  O_7 
REMARK    3  A    between atoms: C_4  and  O_6 
REMARK    4  A    between atoms: O_7  and  C_8 
REMARK    5  A    between atoms: C_8  and  C_9 
REMARK    6  A    between atoms: N_16  and  C_19 
REMARK    7  A    between atoms: C_19  and  C_20 
ROOT
HETATM    1  C   UNK N   1      28.309  23.706  -5.593  0.00  0.00     0.062 A 
HETATM    2  C   UNK N   1      27.633  23.038  -6.588  0.00  0.00     0.018 A 
HETATM    3  C   UNK N   1      27.957  21.916  -7.343  0.00  0.00     0.016 A 
HETATM    4  C   UNK N   1      27.034  21.506  -8.323  0.00  0.00     0.001 A 
HETATM    5  C   UNK N   1      25.834  22.231  -8.526  0.00  0.00     0.002 A 
HETATM    6  C   UNK N   1      25.547  23.373  -7.750  0.00  0.00     0.032 A 
HETATM    7  C   UNK N   1      26.479  23.741  -6.781  0.00  0.00     0.063 A 
HETATM    8  N   UNK N   1      26.460  24.788  -5.935  0.00  0.00    -0.287 N 
HETATM    9  N   UNK N   1      27.566  24.763  -5.196  0.00  0.00    -0.299 N 
ATOM     10  HN  UNK N   1      27.812  25.425  -4.460  1.00  0.00     0.187 HD
ENDROOT
BRANCH   1  11
HETATM   11  C   UNK N   1      29.688  23.416  -5.122  0.00  0.00     0.228 C 
BRANCH  11  12
HETATM   12  O   UNK N   1      29.731  22.415  -4.134  0.00  0.00    -0.364 OA
BRANCH  12  13
HETATM   13  C   UNK N   1      31.072  21.960  -4.011  0.00  0.00     0.138 C 
HETATM   14  C   UNK N   1      32.039  22.827  -4.822  0.00  0.00     0.057 C 
HETATM   15  C   UNK N   1      31.203  20.499  -4.470  0.00  0.00     0.057 C 
BRANCH  13  16
HETATM   16  C   UNK N   1      31.485  22.085  -2.564  0.00  0.00     0.175 C 
HETATM   17  O   UNK N   1      30.909  22.854  -1.809  0.00  0.00    -0.648 OA
BRANCH  16  18
HETATM   18  O   UNK N   1      32.494  21.327  -2.090  0.00  0.00    -0.774 OA
HETATM   19  H   UNK N   1      32.401  20.448  -1.778  0.00  0.00     0.167 HD
ENDBRANCH  16  18
ENDBRANCH  13  16
ENDBRANCH  12  13
ENDBRANCH  11  12
ENDBRANCH   1  11
BRANCH   8  20
HETATM   20  C   UNK N   1      25.447  25.840  -5.855  0.00  0.00     0.187 C 
BRANCH  20  21
HETATM   21  C   UNK N   1      26.022  27.170  -5.420  0.00  0.00    -0.038 A 
HETATM   22  C   UNK N   1      26.955  27.812  -6.243  0.00  0.00     0.009 A 
HETATM   23  C   UNK N   1      27.467  29.066  -5.884  0.00  0.00     0.001 A 
HETATM   24  C   UNK N   1      27.040  29.689  -4.707  0.00  0.00     0.000 A 
HETATM   25  C   UNK N   1      26.113  29.055  -3.880  0.00  0.00     0.001 A 
HETATM   26  C   UNK N   1      25.610  27.802  -4.234  0.00  0.00     0.009 A 
ENDBRANCH  20  21
ENDBRANCH   8  20
TORSDOF 7
ENDMDL
MODEL 4
REMARK VINA RESULT:      -6.7     11.928     14.524
REMARK  7 active torsions:
REMARK  status: ('A' for Active; 'I' for Inactive)
REMARK    1  A    between atoms: C_2  and  C_4 
REMARK    2  A    between atoms: C_2  and  O_7 
REMARK    3  A    between atoms: C_4  and  O_6 
REMARK    4  A    between atoms: O_7  and  C_8 
REMARK    5  A    between atoms: C_8  and  C_9 
REMARK    6  A    between atoms: N_16  and  C_19 
REMARK    7  A    between atoms: C_19  and  C_20 
ROOT
HETATM    1  C   UNK N   1      27.353  24.588  -4.259  0.00  0.00     0.062 A 
HETATM    2  C   UNK N   1      26.883  24.436  -5.543  0.00  0.00     0.018 A 
HETATM    3  C   UNK N   1      27.076  23.441  -6.496  0.00  0.00     0.016 A 
HETATM    4  C   UNK N   1      26.460  23.616  -7.749  0.00  0.00     0.001 A 
HETATM    5  C   UNK N   1      25.689  24.774  -8.014  0.00  0.00     0.002 A 
HETATM    6  C   UNK N   1      25.526  25.768  -7.027  0.00  0.00     0.032 A 
HETATM    7  C   UNK N   1      26.141  25.555  -5.795  0.00  0.00     0.063 A 
HETATM    8  N   UNK N   1      26.164  26.347  -4.705  0.00  0.00    -0.287 N 
HETATM    9  N   UNK N   1      26.889  25.755  -3.760  0.00  0.00    -0.299 N 
ATOM     10  HN  UNK N   1      27.064  26.117  -2.823  1.00  0.00     0.187 HD
ENDROOT
BRANCH   1  11
HETATM   11  C   UNK N   1      28.329  23.703  -3.572  0.00  0.00     0.228 C 
BRANCH  11  12
HETATM   12  O   UNK N   1      29.622  24.254  -3.513  0.00  0.00    -0.364 OA
BRANCH  12  13
HETATM   13  C   UNK N   1      30.566  23.214  -3.737  0.00  0.00     0.138 C 
HETATM   14  C   UNK N   1      31.851  23.747  -4.378  0.00  0.00     0.057 C 
HETATM   15  C   UNK N   1      29.974  22.117  -4.633  0.00  0.00     0.057 C 
BRANCH  13  16
HETATM   16  C   UNK N   1      30.956  22.633  -2.399  0.00  0.00     0.175 C 
HETATM   17  O   UNK N   1      30.471  23.058  -1.362  0.00  0.00    -0.648 OA
BRANCH  16  18
HETATM   18  O   UNK N   1      31.842  21.618  -2.346  0.00  0.00    -0.774 OA
HETATM   19  H   UNK N   1      32.519  21.465  -2.976  0.00  0.00     0.167 HD
ENDBRANCH  16  18
ENDBRANCH  13  16
ENDBRANCH  12  13
ENDBRANCH  11  12
ENDBRANCH   1  11
BRANCH   8  20
HETATM   20  C   UNK N   1      25.564  27.673  -4.566  0.00  0.00     0.187 C 
BRANCH  20  21
HETATM   21  C   UNK N   1      26.553  28.788  -4.821  0.00  0.00    -0.038 A 
HETATM   22  C   UNK N   1      27.438  28.683  -5.900  0.00  0.00     0.009 A 
HETATM   23  C   UNK N   1      28.332  29.724  -6.184  0.00  0.00     0.001 A 
HETATM   24  C   UNK N   1      28.338  30.880  -5.397  0.00  0.00     0.000 A 
HETATM   25  C   UNK N   1      27.462  30.992  -4.317  0.00  0.00     0.001 A 
HETATM   26  C   UNK N   1      26.578  29.951  -4.030  0.00  0.00     0.009 A 
ENDBRANCH  20  21
ENDBRANCH   8  20
TORSDOF 7
ENDMDL
MODEL 5
REMARK VINA RESULT:      -6.6      3.228      5.217
REMARK  7 active torsions:
REMARK  status: ('A' for Active; 'I' for Inactive)
REMARK    1  A    between atoms: C_2  and  C_4 
REMARK    2  A    between atoms: C_2  and  O_7 
REMARK    3  A    between atoms: C_4  and  O_6 
REMARK    4  A    between atoms: O_7  and  C_8 
REMARK    5  A    between atoms: C_8  and  C_9 
REMARK    6  A    between atoms: N_16  and  C_19 
REMARK    7  A    between atoms: C_19  and  C_20 
ROOT
HETATM    1  C   UNK N   1      34.849  15.797  10.154  0.00  0.00     0.062 A 
HETATM    2  C   UNK N   1      35.177  15.312   8.909  0.00  0.00     0.018 A 
HETATM    3  C   UNK N   1      35.997  14.265   8.502  0.00  0.00     0.016 A 
HETATM    4  C   UNK N   1      36.142  14.055   7.118  0.00  0.00     0.001 A 
HETATM    5  C   UNK N   1      35.480  14.898   6.192  0.00  0.00     0.002 A 
HETATM    6  C   UNK N   1      34.667  15.958   6.642  0.00  0.00     0.032 A 
HETATM    7  C   UNK N   1      34.538  16.128   8.020  0.00  0.00     0.063 A 
HETATM    8  N   UNK N   1      33.852  17.064   8.702  0.00  0.00    -0.287 N 
HETATM    9  N   UNK N   1      34.024  16.858  10.005  0.00  0.00    -0.299 N 
ATOM     10  HN  UNK N   1      33.609  17.403  10.760  1.00  0.00     0.187 HD
ENDROOT
BRANCH   1  11
HETATM   11  C   UNK N   1      35.412  15.338  11.450  0.00  0.00     0.228 C 
BRANCH  11  12
HETATM   12  O   UNK N   1      34.626  14.349  12.069  0.00  0.00    -0.364 OA
BRANCH  12  13
HETATM   13  C   UNK N   1      35.490  13.349  12.594  0.00  0.00     0.138 C 
HETATM   14  C   UNK N   1      36.898  13.452  12.000  0.00  0.00     0.057 C 
HETATM   15  C   UNK N   1      34.933  11.943  12.326  0.00  0.00     0.057 C 
BRANCH  13  16
HETATM   16  C   UNK N   1      35.627  13.574  14.081  0.00  0.00     0.175 C 
HETATM   17  O   UNK N   1      36.628  14.096  14.549  0.00  0.00    -0.648 OA
BRANCH  16  18
HETATM   18  O   UNK N   1      34.627  13.207  14.906  0.00  0.00    -0.774 OA
HETATM   19  H   UNK N   1      34.742  12.741  15.711  0.00  0.00     0.167 HD
ENDBRANCH  16  18
ENDBRANCH  13  16
ENDBRANCH  12  13
ENDBRANCH  11  12
ENDBRANCH   1  11
BRANCH   8  20
HETATM   20  C   UNK N   1      33.088  18.180   8.145  0.00  0.00     0.187 C 
BRANCH  20  21
HETATM   21  C   UNK N   1      31.609  17.881   8.048  0.00  0.00    -0.038 A 
HETATM   22  C   UNK N   1      30.735  18.433   8.992  0.00  0.00     0.009 A 
HETATM   23  C   UNK N   1      29.356  18.208   8.895  0.00  0.00     0.001 A 
HETATM   24  C   UNK N   1      28.841  17.438   7.847  0.00  0.00     0.000 A 
HETATM   25  C   UNK N   1      29.705  16.881   6.903  0.00  0.00     0.001 A 
HETATM   26  C   UNK N   1      31.079  17.099   7.005  0.00  0.00     0.009 A 
ENDBRANCH  20  21
ENDBRANCH   8  20
TORSDOF 7
ENDMDL
MODEL 6
REMARK VINA RESULT:      -6.6      6.755     10.395
REMARK  7 active torsions:
REMARK  status: ('A' for Active; 'I' for Inactive)
REMARK    1  A    between atoms: C_2  and  C_4 
REMARK    2  A    between atoms: C_2  and  O_7 
REMARK    3  A    between atoms: C_4  and  O_6 
REMARK    4  A    between atoms: O_7  and  C_8 
REMARK    5  A    between atoms: C_8  and  C_9 
REMARK    6  A    between atoms: N_16  and  C_19 
REMARK    7  A    between atoms: C_19  and  C_20 
ROOT
HETATM    1  C   UNK N   1      22.346  18.096   5.245  0.00  0.00     0.062 A 
HETATM    2  C   UNK N   1      21.711  18.786   4.239  0.00  0.00     0.018 A 
HETATM    3  C   UNK N   1      20.377  18.849   3.849  0.00  0.00     0.016 A 
HETATM    4  C   UNK N   1      20.065  19.645   2.732  0.00  0.00     0.001 A 
HETATM    5  C   UNK N   1      21.087  20.337   2.037  0.00  0.00     0.002 A 
HETATM    6  C   UNK N   1      22.430  20.238   2.453  0.00  0.00     0.032 A 
HETATM    7  C   UNK N   1      22.699  19.450   3.571  0.00  0.00     0.063 A 
HETATM    8  N   UNK N   1      23.881  19.172   4.154  0.00  0.00    -0.287 N 
HETATM    9  N   UNK N   1      23.670  18.359   5.186  0.00  0.00    -0.299 N 
ATOM     10  HN  UNK N   1      24.382  17.997   5.820  1.00  0.00     0.187 HD
ENDROOT
BRANCH   1  11
HETATM   11  C   UNK N   1      21.720  17.108   6.162  0.00  0.00     0.228 C 
BRANCH  11  12
HETATM   12  O   UNK N   1      21.249  17.688   7.354  0.00  0.00    -0.364 OA
BRANCH  12  13
HETATM   13  C   UNK N   1      20.218  16.863   7.880  0.00  0.00     0.138 C 
HETATM   14  C   UNK N   1      20.785  15.731   8.741  0.00  0.00     0.057 C 
HETATM   15  C   UNK N   1      19.367  16.259   6.752  0.00  0.00     0.057 C 
BRANCH  13  16
HETATM   16  C   UNK N   1      19.351  17.705   8.785  0.00  0.00     0.175 C 
HETATM   17  O   UNK N   1      18.265  17.300   9.173  0.00  0.00    -0.648 OA
BRANCH  16  18
HETATM   18  O   UNK N   1      19.784  18.917   9.184  0.00  0.00    -0.774 OA
HETATM   19  H   UNK N   1      19.927  19.167  10.076  0.00  0.00     0.167 HD
ENDBRANCH  16  18
ENDBRANCH  13  16
ENDBRANCH  12  13
ENDBRANCH  11  12
ENDBRANCH   1  11
BRANCH   8  20
HETATM   20  C   UNK N   1      25.206  19.612   3.716  0.00  0.00     0.187 C 
BRANCH  20  21
HETATM   21  C   UNK N   1      26.209  19.650   4.848  0.00  0.00    -0.038 A 
HETATM   22  C   UNK N   1      26.301  20.799   5.641  0.00  0.00     0.009 A 
HETATM   23  C   UNK N   1      27.189  20.840   6.724  0.00  0.00     0.001 A 
HETATM   24  C   UNK N   1      27.983  19.728   7.025  0.00  0.00     0.000 A 
HETATM   25  C   UNK N   1      27.900  18.580   6.237  0.00  0.00     0.001 A 
HETATM   26  C   UNK N   1      27.020  18.543   5.154  0.00  0.00     0.009 A 
ENDBRANCH  20  21
ENDBRANCH   8  20
TORSDOF 7
ENDMDL
MODEL 7
REMARK VINA RESULT:      -6.6     11.776     14.545
REMARK  7 active torsions:
REMARK  status: ('A' for Active; 'I' for Inactive)
REMARK    1  A    between atoms: C_2  and  C_4 
REMARK    2  A    between atoms: C_2  and  O_7 
REMARK    3  A    between atoms: C_4  and  O_6 
REMARK    4  A    between atoms: O_7  and  C_8 
REMARK    5  A    between atoms: C_8  and  C_9 
REMARK    6  A    between atoms: N_16  and  C_19 
REMARK    7  A    between atoms: C_19  and  C_20 
ROOT
HETATM    1  C   UNK N   1      28.300  25.237  -5.154  0.00  0.00     0.062 A 
HETATM    2  C   UNK N   1      27.283  26.124  -4.888  0.00  0.00     0.018 A 
HETATM    3  C   UNK N   1      27.001  26.914  -3.779  0.00  0.00     0.016 A 
HETATM    4  C   UNK N   1      25.836  27.702  -3.823  0.00  0.00     0.001 A 
HETATM    5  C   UNK N   1      24.989  27.666  -4.958  0.00  0.00     0.002 A 
HETATM    6  C   UNK N   1      25.301  26.843  -6.059  0.00  0.00     0.032 A 
HETATM    7  C   UNK N   1      26.469  26.086  -5.983  0.00  0.00     0.063 A 
HETATM    8  N   UNK N   1      26.977  25.212  -6.874  0.00  0.00    -0.287 N 
HETATM    9  N   UNK N   1      28.103  24.703  -6.380  0.00  0.00    -0.299 N 
ATOM     10  HN  UNK N   1      28.710  24.028  -6.844  1.00  0.00     0.187 HD
ENDROOT
BRANCH   1  11
HETATM   11  C   UNK N   1      29.364  24.813  -4.208  0.00  0.00     0.228 C 
BRANCH  11  12
HETATM   12  O   UNK N   1      29.215  23.482  -3.776  0.00  0.00    -0.364 OA
BRANCH  12  13
HETATM   13  C   UNK N   1      30.475  22.832  -3.875  0.00  0.00     0.138 C 
HETATM   14  C   UNK N   1      31.539  23.753  -4.478  0.00  0.00     0.057 C 
HETATM   15  C   UNK N   1      30.371  21.558  -4.728  0.00  0.00     0.057 C 
BRANCH  13  16
HETATM   16  C   UNK N   1      30.940  22.482  -2.482  0.00  0.00     0.175 C 
HETATM   17  O   UNK N   1      30.437  23.008  -1.500  0.00  0.00    -0.648 OA
BRANCH  16  18
HETATM   18  O   UNK N   1      31.913  21.566  -2.314  0.00  0.00    -0.774 OA
HETATM   19  H   UNK N   1      31.939  20.729  -2.736  0.00  0.00     0.167 HD
ENDBRANCH  16  18
ENDBRANCH  13  16
ENDBRANCH  12  13
ENDBRANCH  11  12
ENDBRANCH   1  11
BRANCH   8  20
HETATM   20  C   UNK N   1      26.387  24.809  -8.150  0.00  0.00     0.187 C 
BRANCH  20  21
HETATM   21  C   UNK N   1      26.050  23.335  -8.195  0.00  0.00    -0.038 A 
HETATM   22  C   UNK N   1      26.645  22.527  -9.170  0.00  0.00     0.009 A 
HETATM   23  C   UNK N   1      26.384  21.151  -9.202  0.00  0.00     0.001 A 
HETATM   24  C   UNK N   1      25.534  20.574  -8.253  0.00  0.00     0.000 A 
HETATM   25  C   UNK N   1      24.934  21.373  -7.280  0.00  0.00     0.001 A 
HETATM   26  C   UNK N   1      25.188  22.744  -7.254  0.00  0.00     0.009 A 
ENDBRANCH  20  21
ENDBRANCH   8  20
TORSDOF 7
ENDMDL
MODEL 8
REMARK VINA RESULT:      -6.4     10.466     14.465
REMARK  7 active torsions:
REMARK  status: ('A' for Active; 'I' for Inactive)
REMARK    1  A    between atoms: C_2  and  C_4 
REMARK    2  A    between atoms: C_2  and  O_7 
REMARK    3  A    between atoms: C_4  and  O_6 
REMARK    4  A    between atoms: O_7  and  C_8 
REMARK    5  A    between atoms: C_8  and  C_9 
REMARK    6  A    between atoms: N_16  and  C_19 
REMARK    7  A    between atoms: C_19  and  C_20 
ROOT
HETATM    1  C   UNK N   1      34.984  10.545  16.192  0.00  0.00     0.062 A 
HETATM    2  C   UNK N   1      35.071  11.534  17.145  0.00  0.00     0.018 A 
HETATM    3  C   UNK N   1      35.216  12.913  17.048  0.00  0.00     0.016 A 
HETATM    4  C   UNK N   1      35.306  13.642  18.248  0.00  0.00     0.001 A 
HETATM    5  C   UNK N   1      35.263  12.975  19.497  0.00  0.00     0.002 A 
HETATM    6  C   UNK N   1      35.129  11.573  19.556  0.00  0.00     0.032 A 
HETATM    7  C   UNK N   1      35.031  10.886  18.346  0.00  0.00     0.063 A 
HETATM    8  N   UNK N   1      34.922   9.562  18.125  0.00  0.00    -0.287 N 
HETATM    9  N   UNK N   1      34.877   9.350  16.812  0.00  0.00    -0.299 N 
ATOM     10  HN  UNK N   1      34.779   8.444  16.354  1.00  0.00     0.187 HD
ENDROOT
BRANCH   1  11
HETATM   11  C   UNK N   1      35.131  10.727  14.724  0.00  0.00     0.228 C 
BRANCH  11  12
HETATM   12  O   UNK N   1      36.405  11.196  14.355  0.00  0.00    -0.364 OA
BRANCH  12  13
HETATM   13  C   UNK N   1      36.286  11.908  13.130  0.00  0.00     0.138 C 
HETATM   14  C   UNK N   1      35.115  11.392  12.289  0.00  0.00     0.057 C 
HETATM   15  C   UNK N   1      37.579  11.810  12.307  0.00  0.00     0.057 C 
BRANCH  13  16
HETATM   16  C   UNK N   1      35.987  13.354  13.450  0.00  0.00     0.175 C 
HETATM   17  O   UNK N   1      34.926  13.864  13.125  0.00  0.00    -0.648 OA
BRANCH  16  18
HETATM   18  O   UNK N   1      36.897  14.091  14.117  0.00  0.00    -0.774 OA
HETATM   19  H   UNK N   1      36.739  14.529  14.930  0.00  0.00     0.167 HD
ENDBRANCH  16  18
ENDBRANCH  13  16
ENDBRANCH  12  13
ENDBRANCH  11  12
ENDBRANCH   1  11
BRANCH   8  20
HETATM   20  C   UNK N   1      34.919   8.497  19.127  0.00  0.00     0.187 C 
BRANCH  20  21
HETATM   21  C   UNK N   1      33.529   7.977  19.419  0.00  0.00    -0.038 A 
HETATM   22  C   UNK N   1      33.248   6.622  19.209  0.00  0.00     0.009 A 
HETATM   23  C   UNK N   1      31.982   6.108  19.516  0.00  0.00     0.001 A 
HETATM   24  C   UNK N   1      30.992   6.944  20.045  0.00  0.00     0.000 A 
HETATM   25  C   UNK N   1      31.263   8.296  20.255  0.00  0.00     0.001 A 
HETATM   26  C   UNK N   1      32.522   8.809  19.941  0.00  0.00     0.009 A 
ENDBRANCH  20  21
ENDBRANCH   8  20
TORSDOF 7
ENDMDL
MODEL 9
REMARK VINA RESULT:      -6.3     12.461     15.844
REMARK  7 active torsions:
REMARK  status: ('A' for Active; 'I' for Inactive)
REMARK    1  A    between atoms: C_2  and  C_4 
REMARK    2  A    between atoms: C_2  and  O_7 
REMARK    3  A    between atoms: C_4  and  O_6 
REMARK    4  A    between atoms: O_7  and  C_8 
REMARK    5  A    between atoms: C_8  and  C_9 
REMARK    6  A    between atoms: N_16  and  C_19 
REMARK    7  A    between atoms: C_19  and  C_20 
ROOT
HETATM    1  C   UNK N   1      26.032  24.208  -5.957  0.00  0.00     0.062 A 
HETATM    2  C   UNK N   1      25.776  25.460  -5.448  0.00  0.00     0.018 A 
HETATM    3  C   UNK N   1      25.130  26.570  -5.983  0.00  0.00     0.016 A 
HETATM    4  C   UNK N   1      25.069  27.730  -5.188  0.00  0.00     0.001 A 
HETATM    5  C   UNK N   1      25.661  27.749  -3.902  0.00  0.00     0.002 A 
HETATM    6  C   UNK N   1      26.319  26.609  -3.398  0.00  0.00     0.032 A 
HETATM    7  C   UNK N   1      26.349  25.475  -4.209  0.00  0.00     0.063 A 
HETATM    8  N   UNK N   1      26.926  24.280  -3.981  0.00  0.00    -0.287 N 
HETATM    9  N   UNK N   1      26.722  23.497  -5.038  0.00  0.00    -0.299 N 
ATOM     10  HN  UNK N   1      27.031  22.530  -5.138  1.00  0.00     0.187 HD
ENDROOT
BRANCH   1  11
HETATM   11  C   UNK N   1      25.738  23.746  -7.338  0.00  0.00     0.228 C 
BRANCH  11  12
HETATM   12  O   UNK N   1      26.837  23.116  -7.951  0.00  0.00    -0.364 OA
BRANCH  12  13
HETATM   13  C   UNK N   1      26.428  21.831  -8.400  0.00  0.00     0.138 C 
HETATM   14  C   UNK N   1      25.143  21.373  -7.705  0.00  0.00     0.057 C 
HETATM   15  C   UNK N   1      27.529  20.787  -8.159  0.00  0.00     0.057 C 
BRANCH  13  16
HETATM   16  C   UNK N   1      26.117  21.921  -9.875  0.00  0.00     0.175 C 
HETATM   17  O   UNK N   1      26.707  22.712 -10.596  0.00  0.00    -0.648 OA
BRANCH  16  18
HETATM   18  O   UNK N   1      25.186  21.107 -10.411  0.00  0.00    -0.774 OA
HETATM   19  H   UNK N   1      25.361  20.260 -10.774  0.00  0.00     0.167 HD
ENDBRANCH  16  18
ENDBRANCH  13  16
ENDBRANCH  12  13
ENDBRANCH  11  12
ENDBRANCH   1  11
BRANCH   8  20
HETATM   20  C   UNK N   1      27.713  23.888  -2.812  0.00  0.00     0.187 C 
BRANCH  20  21
HETATM   21  C   UNK N   1      29.172  23.666  -3.141  0.00  0.00    -0.038 A 
HETATM   22  C   UNK N   1      29.769  22.444  -2.811  0.00  0.00     0.009 A 
HETATM   23  C   UNK N   1      31.106  22.197  -3.147  0.00  0.00     0.001 A 
HETATM   24  C   UNK N   1      31.851  23.168  -3.826  0.00  0.00     0.000 A 
HETATM   25  C   UNK N   1      31.265  24.390  -4.157  0.00  0.00     0.001 A 
HETATM   26  C   UNK N   1      29.935  24.637  -3.814  0.00  0.00     0.009 A 
ENDBRANCH  20  21
ENDBRANCH   8  20
TORSDOF 7
ENDMDL
