REMARK  3 active torsions:
REMARK  status: ('A' for Active; 'I' for Inactive)
REMARK    1  A    between atoms: N_6  and  C_7 
REMARK    2  A    between atoms: C_7  and  C_8 
REMARK    3  A    between atoms: C_8  and  C_10 
ROOT
HETATM    1  C   UNK N   1       0.100  -2.538  -0.006  0.00  0.00     0.212 C 
ENDROOT
BRANCH   1   2
HETATM    2  N   UNK N   1       1.474  -3.053  -0.003  0.00  0.00    -0.346 N 
HETATM    3  C   UNK N   1       1.843  -4.366   0.001  0.00  0.00     0.141 A 
HETATM    4  S   UNK N   1       3.503  -4.428   0.005  0.00  0.00    -0.088 SA
HETATM    5  C   UNK N   1       3.798  -2.805   0.002  0.00  0.00     0.002 A 
HETATM    6  C   UNK N   1       2.549  -2.183  -0.002  0.00  0.00     0.021 A 
HETATM    7  C   UNK N   1       5.134  -2.145   0.005  0.00  0.00     0.058 C 
HETATM    8  C   UNK N   1       2.385  -0.697  -0.005  0.00  0.00     0.069 C 
ENDBRANCH   1   2
BRANCH   1   9
HETATM    9  C   UNK N   1      -1.055  -3.514  -0.003  0.00  0.00     0.177 C 
HETATM   10  O   UNK N   1      -0.876  -4.723  -0.001  0.00  0.00    -0.291 OA
BRANCH   9  11
HETATM   11  C   UNK N   1      -2.429  -2.962  -0.001  0.00  0.00     0.011 A 
HETATM   12  C   UNK N   1      -3.550  -3.805   0.003  0.00  0.00     0.015 A 
HETATM   13  C   UNK N   1      -4.839  -3.260   0.005  0.00  0.00     0.001 A 
HETATM   14  C   UNK N   1      -5.015  -1.873   0.003  0.00  0.00     0.000 A 
HETATM   15  C   UNK N   1      -3.904  -1.028  -0.000  0.00  0.00     0.001 A 
HETATM   16  C   UNK N   1      -2.619  -1.570  -0.002  0.00  0.00     0.015 A 
ENDBRANCH   9  11
ENDBRANCH   1   9
TORSDOF 3
