REMARK  8 active torsions:
REMARK  status: ('A' for Active; 'I' for Inactive)
REMARK    1  A    between atoms: C_2  and  C_3 
REMARK    2  A    between atoms: N_8  and  C_9 
REMARK    3  A    between atoms: C_9  and  C_10 
REMARK    4  A    between atoms: C_10  and  C_11 
REMARK    5  A    between atoms: C_11  and  C_12 
REMARK    6  A    between atoms: C_12  and  N_13 
REMARK    7  A    between atoms: N_13  and  S_14 
REMARK    8  A    between atoms: C_26  and  N_27 
ROOT
HETATM    1  C   UNK N   1       4.455   0.076  -0.309  0.00  0.00     0.084 A 
HETATM    2  N   UNK N   1       4.468   1.393   0.016  0.00  0.00    -0.341 N 
ATOM      3  HN  UNK N   1       5.278   1.991   0.182  1.00  0.00     0.167 HD
HETATM    4  C   UNK N   1       3.165   1.731   0.067  0.00  0.00     0.105 A 
HETATM    5  C   UNK N   1       2.388   0.647  -0.213  0.00  0.00     0.079 A 
HETATM    6  N   UNK N   1       3.193  -0.405  -0.458  0.00  0.00    -0.334 N 
HETATM    7  C   UNK N   1       0.990   0.744  -0.211  0.00  0.00     0.020 A 
HETATM    8  C   UNK N   1       0.149  -0.340  -0.483  0.00  0.00     0.016 A 
HETATM    9  C   UNK N   1      -1.238  -0.175  -0.445  0.00  0.00     0.001 A 
HETATM   10  C   UNK N   1      -1.791   1.073  -0.141  0.00  0.00     0.002 A 
HETATM   11  C   UNK N   1      -0.960   2.167   0.125  0.00  0.00     0.030 A 
HETATM   12  C   UNK N   1       0.429   2.015   0.094  0.00  0.00     0.046 A 
HETATM   13  N   UNK N   1       1.243   3.086   0.361  0.00  0.00    -0.340 N 
ATOM     14  HN  UNK N   1       0.821   3.991   0.571  1.00  0.00     0.167 HD
HETATM   15  C   UNK N   1       2.605   2.971   0.353  0.00  0.00     0.129 A 
ENDROOT
BRANCH   6  16
HETATM   16  C   UNK N   1       2.824  -1.767  -0.824  0.00  0.00     0.131 C 
BRANCH  16  17
HETATM   17  C   UNK N   1       2.146  -2.477   0.337  0.00  0.00     0.022 C 
BRANCH  17  18
HETATM   18  C   UNK N   1       1.784  -3.910  -0.039  0.00  0.00     0.022 C 
BRANCH  18  19
HETATM   19  C   UNK N   1       3.001  -4.737  -0.448  0.00  0.00     0.132 C 
BRANCH  19  20
HETATM   20  N   UNK N   1       4.113  -4.487   0.457  0.00  0.00    -0.320 N 
HETATM   21  H   UNK N   1       4.340  -3.593   0.892  0.00  0.00     0.172 HD
BRANCH  20  22
HETATM   22  S   UNK N   1       4.999  -5.995   0.673  0.00  0.00     0.222 S 
HETATM   23  O   UNK N   1       5.415  -6.441  -0.738  0.00  0.00    -0.206 OA
HETATM   24  O   UNK N   1       6.341  -5.546   1.269  0.00  0.00    -0.206 OA
HETATM   25  C   UNK N   1       4.208  -7.290   1.666  0.00  0.00     0.185 C 
ENDBRANCH  20  22
ENDBRANCH  19  20
ENDBRANCH  18  19
ENDBRANCH  17  18
ENDBRANCH  16  17
ENDBRANCH   6  16
BRANCH   1  26
HETATM   26  C   UNK N   1       5.702  -0.738  -0.452  0.00  0.00     0.072 C 
HETATM   27  C   UNK N   1       5.848  -1.264  -1.866  0.00  0.00     0.013 C 
ENDBRANCH   1  26
BRANCH  15  28
HETATM   28  N   UNK N   1       3.416   4.089   0.629  0.00  0.00    -0.384 N 
HETATM   29  H   UNK N   1       4.377   3.989   0.823  0.00  0.00     0.157 HD
HETATM   30  H   UNK N   1       3.016   4.989   0.629  0.00  0.00     0.157 HD
ENDBRANCH  15  28
TORSDOF 8
