REMARK  10 active torsions:
REMARK  status: ('A' for Active; 'I' for Inactive)
REMARK    1  A    between atoms: C_2  and  O_4 
REMARK    2  A    between atoms: C_5  and  O_4 
REMARK    3  A    between atoms: C_16  and  C_34 
REMARK    4  A    between atoms: C_21  and  N_22 
REMARK    5  A    between atoms: N_22  and  C_23 
REMARK    6  A    between atoms: N_22  and  C_26 
REMARK    7  A    between atoms: C_23  and  C_24 
REMARK    8  A    between atoms: C_26  and  C_27 
REMARK    9  A    between atoms: C_30  and  O_33 
REMARK   10  A    between atoms: C_34  and  O_35 
ROOT
HETATM    1  C   UNK N   1       9.909  -1.750   0.331  0.00  0.00     0.164 C 
HETATM    2  C   UNK N   1      10.922  -1.326  -0.730  0.00  0.00     0.055 C 
HETATM    3  C   UNK N   1      11.121   0.175  -0.723  0.00  0.00     0.027 C 
HETATM    4  C   UNK N   1       9.788   0.911  -0.805  0.00  0.00     0.039 C 
HETATM    5  C   UNK N   1       9.913   2.132   0.117  0.00  0.00     0.018 C 
HETATM    6  C   UNK N   1      10.958   1.790   1.172  0.00  0.00     0.080 C 
HETATM    7  C   UNK N   1      11.721   0.697   0.532  0.00  0.00     0.136 C 
HETATM    8  O   UNK N   1      12.794   0.309   0.968  0.00  0.00    -0.297 OA
HETATM    9  C   UNK N   1       8.512   0.121  -0.500  0.00  0.00     0.006 A 
HETATM   10  C   UNK N   1       8.519  -1.157  -0.001  0.00  0.00    -0.024 A 
HETATM   11  C   UNK N   1       7.153  -1.915   0.267  0.00  0.00     0.042 A 
HETATM   12  C   UNK N   1       7.116  -3.366  -0.380  0.00  0.00     0.173 C 
HETATM   13  O   UNK N   1       5.863  -3.888  -0.678  0.00  0.00    -0.308 OA
HETATM   14  C   UNK N   1       4.669  -3.299  -0.478  0.00  0.00     0.295 C 
HETATM   15  O   UNK N   1       3.648  -3.965  -0.601  0.00  0.00    -0.259 OA
HETATM   16  C   UNK N   1       4.589  -1.867  -0.184  0.00  0.00     0.065 C 
HETATM   17  C   UNK N   1       3.359  -1.322  -0.000  0.00  0.00     0.104 C 
HETATM   18  C   UNK N   1       5.902  -1.142  -0.219  0.00  0.00     0.012 A 
HETATM   19  C   UNK N   1       5.983   0.099  -0.747  0.00  0.00     0.125 A 
HETATM   20  C   UNK N   1       7.253   0.794  -0.840  0.00  0.00     0.212 A 
HETATM   21  O   UNK N   1       7.271   1.938  -1.274  0.00  0.00    -0.285 OA
HETATM   22  C   UNK N   1       6.983  -2.030   1.784  0.00  0.00     0.028 C 
HETATM   23  C   UNK N   1      12.000   0.562  -1.899  0.00  0.00     0.024 C 
ENDROOT
BRANCH  17  24
HETATM   24  N   UNK N   1       3.075   0.006   0.428  0.00  0.00    -0.382 N 
BRANCH  24  25
HETATM   25  C   UNK N   1       1.712   0.453   0.260  0.00  0.00     0.149 C 
BRANCH  25  26
HETATM   26  C   UNK N   1       1.629   1.444  -0.854  0.00  0.00    -0.018 C 
HETATM   27  C   UNK N   1       1.172   2.671  -0.621  0.00  0.00     0.008 C 
ENDBRANCH  25  26
ENDBRANCH  24  25
BRANCH  24  28
HETATM   28  C   UNK N   1       3.836   0.532   1.548  0.00  0.00     0.149 C 
BRANCH  28  29
HETATM   29  C   UNK N   1       3.787   2.030   1.638  0.00  0.00    -0.018 C 
HETATM   30  C   UNK N   1       4.423   2.795   0.756  0.00  0.00     0.008 C 
ENDBRANCH  28  29
ENDBRANCH  24  28
ENDBRANCH  17  24
BRANCH  19  31
HETATM   31  O   UNK N   1       4.900   0.708  -1.267  0.00  0.00    -0.356 OA
HETATM   32  H   UNK N   1       4.890   1.572  -1.628  0.00  0.00     0.218 HD
ENDBRANCH  19  31
BRANCH  12  33
HETATM   33  C   UNK N   1       7.761  -4.443   0.500  0.00  0.00     0.201 C 
BRANCH  33  34
HETATM   34  O   UNK N   1       8.120  -5.551  -0.269  0.00  0.00    -0.393 OA
HETATM   35  C   UNK N   1       7.283  -6.580   0.162  0.00  0.00     0.201 C 
ENDBRANCH  33  34
ENDBRANCH  12  33
BRANCH   1  36
HETATM   36  O   UNK N   1       9.928  -3.122   0.382  0.00  0.00    -0.312 OA
BRANCH  36  37
HETATM   37  C   UNK N   1      10.999  -3.882   0.738  0.00  0.00     0.255 C 
HETATM   38  C   UNK N   1      12.253  -3.272   1.280  0.00  0.00     0.126 C 
HETATM   39  O   UNK N   1      10.940  -5.094   0.609  0.00  0.00    -0.266 OA
ENDBRANCH  36  37
ENDBRANCH   1  36
TORSDOF 10
