MODEL 1
REMARK VINA RESULT:      -5.2      0.000      0.000
REMARK  6 active torsions:
REMARK  status: ('A' for Active; 'I' for Inactive)
REMARK    1  A    between atoms: C_3  and  C_2 
REMARK    2  A    between atoms: N_10  and  C_2 
REMARK    3  A    between atoms: N_11  and  C_3 
REMARK    4  A    between atoms: N_12  and  C_6 
REMARK    5  A    between atoms: S_17  and  N_7 
REMARK    6  A    between atoms: S_17  and  N_10 
ROOT
HETATM    1  C   UNK N   1      25.964  23.199  -6.049  0.00  0.00     0.089 C 
HETATM    2  C   UNK N   1      25.333  26.712  -5.637  0.00  0.00     0.144 A 
HETATM    3  C   UNK N   1      25.860  24.625  -5.625  0.00  0.00     0.081 A 
HETATM    4  C   UNK N   1      26.051  26.430  -4.489  0.00  0.00     0.193 A 
HETATM    5  N   UNK N   1      25.221  25.568  -6.349  0.00  0.00    -0.352 N 
ATOM      6  HN  UNK N   1      24.750  25.443  -7.245  1.00  0.00     0.166 HD
HETATM    7  N   UNK N   1      26.377  25.121  -4.485  0.00  0.00    -0.315 N 
ENDROOT
BRANCH   7   8
HETATM    8  C   UNK N   1      27.072  24.346  -3.463  0.00  0.00     0.152 C 
BRANCH   8   9
HETATM    9  C   UNK N   1      28.581  24.349  -3.643  0.00  0.00     0.154 C 
BRANCH   9  10
HETATM   10  N   UNK N   1      29.147  23.407  -2.682  0.00  0.00    -0.301 N 
HETATM   11  H   UNK N   1      28.653  22.993  -1.892  0.00  0.00     0.173 HD
BRANCH  10  12
HETATM   12  S   UNK N   1      30.840  23.104  -3.119  0.00  0.00     0.312 S 
HETATM   13  O   UNK N   1      30.031  21.996  -3.815  0.00  0.00    -0.183 OA
HETATM   14  O   UNK N   1      30.706  22.862  -1.607  0.00  0.00    -0.183 OA
BRANCH  12  15
HETATM   15  N   UNK N   1      31.556  21.538  -2.736  0.00  0.00    -0.312 N 
HETATM   16  H   UNK N   1      31.902  21.219  -1.832  0.00  0.00     0.170 HD
HETATM   17  H   UNK N   1      31.634  20.877  -3.508  0.00  0.00     0.170 HD
ENDBRANCH  12  15
ENDBRANCH  10  12
ENDBRANCH   9  10
ENDBRANCH   8   9
ENDBRANCH   7   8
BRANCH   4  18
HETATM   18  N   UNK N   1      26.370  27.371  -3.471  0.00  0.00    -0.096 N 
HETATM   19  O   UNK N   1      27.479  27.794  -3.359  0.00  0.00    -0.530 OA
HETATM   20  O   UNK N   1      25.518  27.751  -2.724  0.00  0.00    -0.530 OA
ENDBRANCH   4  18
TORSDOF 6
ENDMDL
MODEL 2
REMARK VINA RESULT:      -5.2     12.690     14.321
REMARK  6 active torsions:
REMARK  status: ('A' for Active; 'I' for Inactive)
REMARK    1  A    between atoms: C_3  and  C_2 
REMARK    2  A    between atoms: N_10  and  C_2 
REMARK    3  A    between atoms: N_11  and  C_3 
REMARK    4  A    between atoms: N_12  and  C_6 
REMARK    5  A    between atoms: S_17  and  N_7 
REMARK    6  A    between atoms: S_17  and  N_10 
ROOT
HETATM    1  C   UNK N   1      29.336  16.899   4.953  0.00  0.00     0.089 C 
HETATM    2  C   UNK N   1      32.717  17.707   4.043  0.00  0.00     0.144 A 
HETATM    3  C   UNK N   1      30.806  17.130   4.849  0.00  0.00     0.081 A 
HETATM    4  C   UNK N   1      32.890  17.228   5.329  0.00  0.00     0.193 A 
HETATM    5  N   UNK N   1      31.399  17.638   3.748  0.00  0.00    -0.352 N 
ATOM      6  HN  UNK N   1      30.947  17.914   2.876  1.00  0.00     0.166 HD
HETATM    7  N   UNK N   1      31.690  16.871   5.831  0.00  0.00    -0.315 N 
ENDROOT
BRANCH   7   8
HETATM    8  C   UNK N   1      31.356  16.374   7.161  0.00  0.00     0.152 C 
BRANCH   8   9
HETATM    9  C   UNK N   1      31.188  17.486   8.183  0.00  0.00     0.154 C 
BRANCH   9  10
HETATM   10  N   UNK N   1      30.281  17.005   9.221  0.00  0.00    -0.301 N 
HETATM   11  H   UNK N   1      30.238  16.050   9.578  0.00  0.00     0.173 HD
BRANCH  10  12
HETATM   12  S   UNK N   1      29.266  18.358   9.756  0.00  0.00     0.312 S 
HETATM   13  O   UNK N   1      28.426  17.094  10.000  0.00  0.00    -0.183 OA
HETATM   14  O   UNK N   1      29.436  18.486   8.234  0.00  0.00    -0.183 OA
BRANCH  12  15
HETATM   15  N   UNK N   1      27.673  18.574   9.030  0.00  0.00    -0.312 N 
HETATM   16  H   UNK N   1      26.792  18.756   9.510  0.00  0.00     0.170 HD
HETATM   17  H   UNK N   1      27.629  18.509   8.014  0.00  0.00     0.170 HD
ENDBRANCH  12  15
ENDBRANCH  10  12
ENDBRANCH   9  10
ENDBRANCH   8   9
ENDBRANCH   7   8
BRANCH   4  18
HETATM   18  N   UNK N   1      34.135  17.151   6.013  0.00  0.00    -0.096 N 
HETATM   19  O   UNK N   1      34.464  18.005   6.777  0.00  0.00    -0.530 OA
HETATM   20  O   UNK N   1      34.857  16.217   5.830  0.00  0.00    -0.530 OA
ENDBRANCH   4  18
TORSDOF 6
ENDMDL
MODEL 3
REMARK VINA RESULT:      -5.0     15.682     17.985
REMARK  6 active torsions:
REMARK  status: ('A' for Active; 'I' for Inactive)
REMARK    1  A    between atoms: C_3  and  C_2 
REMARK    2  A    between atoms: N_10  and  C_2 
REMARK    3  A    between atoms: N_11  and  C_3 
REMARK    4  A    between atoms: N_12  and  C_6 
REMARK    5  A    between atoms: S_17  and  N_7 
REMARK    6  A    between atoms: S_17  and  N_10 
ROOT
HETATM    1  C   UNK N   1      35.074  13.414   8.325  0.00  0.00     0.089 C 
HETATM    2  C   UNK N   1      34.604  16.454   6.468  0.00  0.00     0.144 A 
HETATM    3  C   UNK N   1      34.844  14.800   7.825  0.00  0.00     0.081 A 
HETATM    4  C   UNK N   1      34.436  16.901   7.766  0.00  0.00     0.193 A 
HETATM    5  N   UNK N   1      34.864  15.128   6.516  0.00  0.00    -0.352 N 
ATOM      6  HN  UNK N   1      35.038  14.505   5.728  1.00  0.00     0.166 HD
HETATM    7  N   UNK N   1      34.584  15.861   8.612  0.00  0.00    -0.315 N 
ENDROOT
BRANCH   7   8
HETATM    8  C   UNK N   1      34.437  15.824  10.064  0.00  0.00     0.152 C 
BRANCH   8   9
HETATM    9  C   UNK N   1      35.584  16.504  10.792  0.00  0.00     0.154 C 
BRANCH   9  10
HETATM   10  N   UNK N   1      36.614  15.500  11.039  0.00  0.00    -0.301 N 
HETATM   11  H   UNK N   1      37.584  15.551  10.725  0.00  0.00     0.173 HD
BRANCH  10  12
HETATM   12  S   UNK N   1      35.899  14.173  11.976  0.00  0.00     0.312 S 
HETATM   13  O   UNK N   1      36.273  15.250  13.008  0.00  0.00    -0.183 OA
HETATM   14  O   UNK N   1      37.219  13.656  11.382  0.00  0.00    -0.183 OA
BRANCH  12  15
HETATM   15  N   UNK N   1      36.841  13.431  13.268  0.00  0.00    -0.312 N 
HETATM   16  H   UNK N   1      37.501  13.890  13.897  0.00  0.00     0.170 HD
HETATM   17  H   UNK N   1      36.712  12.429  13.402  0.00  0.00     0.170 HD
ENDBRANCH  12  15
ENDBRANCH  10  12
ENDBRANCH   9  10
ENDBRANCH   8   9
ENDBRANCH   7   8
BRANCH   4  18
HETATM   18  N   UNK N   1      34.132  18.241   8.138  0.00  0.00    -0.096 N 
HETATM   19  O   UNK N   1      35.004  19.023   8.362  0.00  0.00    -0.530 OA
HETATM   20  O   UNK N   1      32.993  18.592   8.217  0.00  0.00    -0.530 OA
ENDBRANCH   4  18
TORSDOF 6
ENDMDL
MODEL 4
REMARK VINA RESULT:      -4.9     15.528     17.141
REMARK  6 active torsions:
REMARK  status: ('A' for Active; 'I' for Inactive)
REMARK    1  A    between atoms: C_3  and  C_2 
REMARK    2  A    between atoms: N_10  and  C_2 
REMARK    3  A    between atoms: N_11  and  C_3 
REMARK    4  A    between atoms: N_12  and  C_6 
REMARK    5  A    between atoms: S_17  and  N_7 
REMARK    6  A    between atoms: S_17  and  N_10 
ROOT
HETATM    1  C   UNK N   1      32.052  14.795   6.448  0.00  0.00     0.089 C 
HETATM    2  C   UNK N   1      32.391  17.815   8.366  0.00  0.00     0.144 A 
HETATM    3  C   UNK N   1      32.485  15.986   7.234  0.00  0.00     0.081 A 
HETATM    4  C   UNK N   1      33.708  17.403   8.273  0.00  0.00     0.193 A 
HETATM    5  N   UNK N   1      31.628  16.915   7.704  0.00  0.00    -0.352 N 
ATOM      6  HN  UNK N   1      30.615  16.935   7.586  1.00  0.00     0.166 HD
HETATM    7  N   UNK N   1      33.762  16.256   7.566  0.00  0.00    -0.315 N 
ENDROOT
BRANCH   7   8
HETATM    8  C   UNK N   1      34.914  15.414   7.259  0.00  0.00     0.152 C 
BRANCH   8   9
HETATM    9  C   UNK N   1      35.080  14.261   8.234  0.00  0.00     0.154 C 
BRANCH   9  10
HETATM   10  N   UNK N   1      35.770  14.771   9.415  0.00  0.00    -0.301 N 
HETATM   11  H   UNK N   1      35.855  15.754   9.677  0.00  0.00     0.173 HD
BRANCH  10  12
HETATM   12  S   UNK N   1      36.438  13.397  10.317  0.00  0.00     0.312 S 
HETATM   13  O   UNK N   1      35.533  14.142  11.313  0.00  0.00    -0.183 OA
HETATM   14  O   UNK N   1      37.605  14.344   9.992  0.00  0.00    -0.183 OA
BRANCH  12  15
HETATM   15  N   UNK N   1      37.341  13.704  11.801  0.00  0.00    -0.312 N 
HETATM   16  H   UNK N   1      36.966  13.963  12.713  0.00  0.00     0.170 HD
HETATM   17  H   UNK N   1      38.355  13.612  11.739  0.00  0.00     0.170 HD
ENDBRANCH  12  15
ENDBRANCH  10  12
ENDBRANCH   9  10
ENDBRANCH   8   9
ENDBRANCH   7   8
BRANCH   4  18
HETATM   18  N   UNK N   1      34.819  18.077   8.853  0.00  0.00    -0.096 N 
HETATM   19  O   UNK N   1      35.234  19.089   8.379  0.00  0.00    -0.530 OA
HETATM   20  O   UNK N   1      35.339  17.632   9.833  0.00  0.00    -0.530 OA
ENDBRANCH   4  18
TORSDOF 6
ENDMDL
MODEL 5
REMARK VINA RESULT:      -4.9     16.991     18.623
REMARK  6 active torsions:
REMARK  status: ('A' for Active; 'I' for Inactive)
REMARK    1  A    between atoms: C_3  and  C_2 
REMARK    2  A    between atoms: N_10  and  C_2 
REMARK    3  A    between atoms: N_11  and  C_3 
REMARK    4  A    between atoms: N_12  and  C_6 
REMARK    5  A    between atoms: S_17  and  N_7 
REMARK    6  A    between atoms: S_17  and  N_10 
ROOT
HETATM    1  C   UNK N   1      21.143  12.422  11.166  0.00  0.00     0.089 C 
HETATM    2  C   UNK N   1      24.644  12.522  10.365  0.00  0.00     0.144 A 
HETATM    3  C   UNK N   1      22.502  12.571  10.570  0.00  0.00     0.081 A 
HETATM    4  C   UNK N   1      24.084  12.983   9.188  0.00  0.00     0.193 A 
HETATM    5  N   UNK N   1      23.638  12.268  11.232  0.00  0.00    -0.352 N 
ATOM      6  HN  UNK N   1      23.721  11.919  12.187  1.00  0.00     0.166 HD
HETATM    7  N   UNK N   1      22.742  13.010   9.320  0.00  0.00    -0.315 N 
ENDROOT
BRANCH   7   8
HETATM    8  C   UNK N   1      21.724  13.360   8.335  0.00  0.00     0.152 C 
BRANCH   8   9
HETATM    9  C   UNK N   1      21.504  14.858   8.219  0.00  0.00     0.154 C 
BRANCH   9  10
HETATM   10  N   UNK N   1      20.319  15.197   9.002  0.00  0.00    -0.301 N 
HETATM   11  H   UNK N   1      20.053  14.776   9.893  0.00  0.00     0.173 HD
BRANCH  10  12
HETATM   12  S   UNK N   1      19.418  16.463   8.145  0.00  0.00     0.312 S 
HETATM   13  O   UNK N   1      20.583  17.187   8.840  0.00  0.00    -0.183 OA
HETATM   14  O   UNK N   1      18.506  15.926   9.260  0.00  0.00    -0.183 OA
BRANCH  12  15
HETATM   15  N   UNK N   1      18.784  17.831   9.059  0.00  0.00    -0.312 N 
HETATM   16  H   UNK N   1      17.851  18.238   9.000  0.00  0.00     0.170 HD
HETATM   17  H   UNK N   1      19.425  18.266   9.722  0.00  0.00     0.170 HD
ENDBRANCH  12  15
ENDBRANCH  10  12
ENDBRANCH   9  10
ENDBRANCH   8   9
ENDBRANCH   7   8
BRANCH   4  18
HETATM   18  N   UNK N   1      24.813  13.347   8.021  0.00  0.00    -0.096 N 
HETATM   19  O   UNK N   1      25.377  14.395   7.958  0.00  0.00    -0.530 OA
HETATM   20  O   UNK N   1      24.872  12.592   7.097  0.00  0.00    -0.530 OA
ENDBRANCH   4  18
TORSDOF 6
ENDMDL
MODEL 6
REMARK VINA RESULT:      -4.9     12.930     14.878
REMARK  6 active torsions:
REMARK  status: ('A' for Active; 'I' for Inactive)
REMARK    1  A    between atoms: C_3  and  C_2 
REMARK    2  A    between atoms: N_10  and  C_2 
REMARK    3  A    between atoms: N_11  and  C_3 
REMARK    4  A    between atoms: N_12  and  C_6 
REMARK    5  A    between atoms: S_17  and  N_7 
REMARK    6  A    between atoms: S_17  and  N_10 
ROOT
HETATM    1  C   UNK N   1      29.274  16.416   5.251  0.00  0.00     0.089 C 
HETATM    2  C   UNK N   1      32.436  17.722   4.152  0.00  0.00     0.144 A 
HETATM    3  C   UNK N   1      30.692  16.827   5.043  0.00  0.00     0.081 A 
HETATM    4  C   UNK N   1      32.795  17.099   5.334  0.00  0.00     0.193 A 
HETATM    5  N   UNK N   1      31.107  17.541   3.976  0.00  0.00    -0.352 N 
ATOM      6  HN  UNK N   1      30.537  17.876   3.199  1.00  0.00     0.166 HD
HETATM    7  N   UNK N   1      31.700  16.543   5.889  0.00  0.00    -0.315 N 
ENDROOT
BRANCH   7   8
HETATM    8  C   UNK N   1      31.565  15.838   7.160  0.00  0.00     0.152 C 
BRANCH   8   9
HETATM    9  C   UNK N   1      31.955  16.693   8.354  0.00  0.00     0.154 C 
BRANCH   9  10
HETATM   10  N   UNK N   1      32.517  15.809   9.371  0.00  0.00    -0.301 N 
HETATM   11  H   UNK N   1      31.984  15.183   9.976  0.00  0.00     0.173 HD
BRANCH  10  12
HETATM   12  S   UNK N   1      34.280  16.008   9.382  0.00  0.00     0.312 S 
HETATM   13  O   UNK N   1      33.938  15.305  10.706  0.00  0.00    -0.183 OA
HETATM   14  O   UNK N   1      33.659  17.412   9.457  0.00  0.00    -0.183 OA
BRANCH  12  15
HETATM   15  N   UNK N   1      35.035  16.884  10.713  0.00  0.00    -0.312 N 
HETATM   16  H   UNK N   1      36.013  17.162  10.798  0.00  0.00     0.170 HD
HETATM   17  H   UNK N   1      34.424  17.142  11.487  0.00  0.00     0.170 HD
ENDBRANCH  12  15
ENDBRANCH  10  12
ENDBRANCH   9  10
ENDBRANCH   8   9
ENDBRANCH   7   8
BRANCH   4  18
HETATM   18  N   UNK N   1      34.109  17.076   5.879  0.00  0.00    -0.096 N 
HETATM   19  O   UNK N   1      34.531  18.006   6.494  0.00  0.00    -0.530 OA
HETATM   20  O   UNK N   1      34.798  16.110   5.731  0.00  0.00    -0.530 OA
ENDBRANCH   4  18
TORSDOF 6
ENDMDL
MODEL 7
REMARK VINA RESULT:      -4.8      2.724      5.647
REMARK  6 active torsions:
REMARK  status: ('A' for Active; 'I' for Inactive)
REMARK    1  A    between atoms: C_3  and  C_2 
REMARK    2  A    between atoms: N_10  and  C_2 
REMARK    3  A    between atoms: N_11  and  C_3 
REMARK    4  A    between atoms: N_12  and  C_6 
REMARK    5  A    between atoms: S_17  and  N_7 
REMARK    6  A    between atoms: S_17  and  N_10 
ROOT
HETATM    1  C   UNK N   1      29.551  21.045  -6.780  0.00  0.00     0.089 C 
HETATM    2  C   UNK N   1      31.123  21.110  -3.549  0.00  0.00     0.144 A 
HETATM    3  C   UNK N   1      30.076  21.342  -5.416  0.00  0.00     0.081 A 
HETATM    4  C   UNK N   1      30.508  22.348  -3.576  0.00  0.00     0.193 A 
HETATM    5  N   UNK N   1      30.842  20.481  -4.713  0.00  0.00    -0.352 N 
ATOM      6  HN  UNK N   1      31.146  19.551  -5.001  1.00  0.00     0.166 HD
HETATM    7  N   UNK N   1      29.856  22.491  -4.748  0.00  0.00    -0.315 N 
ENDROOT
BRANCH   7   8
HETATM    8  C   UNK N   1      29.118  23.640  -5.261  0.00  0.00     0.152 C 
BRANCH   8   9
HETATM    9  C   UNK N   1      27.919  24.003  -4.403  0.00  0.00     0.154 C 
BRANCH   9  10
HETATM   10  N   UNK N   1      28.133  25.350  -3.882  0.00  0.00    -0.301 N 
HETATM   11  H   UNK N   1      28.985  25.686  -3.432  0.00  0.00     0.173 HD
BRANCH  10  12
HETATM   12  S   UNK N   1      26.664  26.305  -4.160  0.00  0.00     0.312 S 
HETATM   13  O   UNK N   1      27.728  27.314  -3.700  0.00  0.00    -0.183 OA
HETATM   14  O   UNK N   1      26.390  25.379  -2.964  0.00  0.00    -0.183 OA
BRANCH  12  15
HETATM   15  N   UNK N   1      26.009  27.274  -2.841  0.00  0.00    -0.312 N 
HETATM   16  H   UNK N   1      26.530  27.801  -2.140  0.00  0.00     0.170 HD
HETATM   17  H   UNK N   1      24.992  27.311  -2.770  0.00  0.00     0.170 HD
ENDBRANCH  12  15
ENDBRANCH  10  12
ENDBRANCH   9  10
ENDBRANCH   8   9
ENDBRANCH   7   8
BRANCH   4  18
HETATM   18  N   UNK N   1      30.577  23.319  -2.538  0.00  0.00    -0.096 N 
HETATM   19  O   UNK N   1      30.311  23.029  -1.414  0.00  0.00    -0.530 OA
HETATM   20  O   UNK N   1      30.916  24.437  -2.791  0.00  0.00    -0.530 OA
ENDBRANCH   4  18
TORSDOF 6
ENDMDL
MODEL 8
REMARK VINA RESULT:      -4.8     13.417     16.014
REMARK  6 active torsions:
REMARK  status: ('A' for Active; 'I' for Inactive)
REMARK    1  A    between atoms: C_3  and  C_2 
REMARK    2  A    between atoms: N_10  and  C_2 
REMARK    3  A    between atoms: N_11  and  C_3 
REMARK    4  A    between atoms: N_12  and  C_6 
REMARK    5  A    between atoms: S_17  and  N_7 
REMARK    6  A    between atoms: S_17  and  N_10 
ROOT
HETATM    1  C   UNK N   1      35.305  13.483   8.676  0.00  0.00     0.089 C 
HETATM    2  C   UNK N   1      35.132  16.732  10.201  0.00  0.00     0.144 A 
HETATM    3  C   UNK N   1      35.148  14.922   9.037  0.00  0.00     0.081 A 
HETATM    4  C   UNK N   1      34.774  17.026   8.898  0.00  0.00     0.193 A 
HETATM    5  N   UNK N   1      35.362  15.402  10.279  0.00  0.00    -0.352 N 
ATOM      6  HN  UNK N   1      35.641  14.872  11.105  1.00  0.00     0.166 HD
HETATM    7  N   UNK N   1      34.788  15.889   8.171  0.00  0.00    -0.315 N 
ENDROOT
BRANCH   7   8
HETATM    8  C   UNK N   1      34.545  15.702   6.745  0.00  0.00     0.152 C 
BRANCH   8   9
HETATM    9  C   UNK N   1      33.094  15.380   6.430  0.00  0.00     0.154 C 
BRANCH   9  10
HETATM   10  N   UNK N   1      32.522  16.529   5.734  0.00  0.00    -0.301 N 
HETATM   11  H   UNK N   1      31.975  17.275   6.165  0.00  0.00     0.173 HD
BRANCH  10  12
HETATM   12  S   UNK N   1      32.936  16.411   4.013  0.00  0.00     0.312 S 
HETATM   13  O   UNK N   1      32.925  17.915   4.330  0.00  0.00    -0.183 OA
HETATM   14  O   UNK N   1      31.489  15.918   4.171  0.00  0.00    -0.183 OA
BRANCH  12  15
HETATM   15  N   UNK N   1      31.928  17.244   2.830  0.00  0.00    -0.312 N 
HETATM   16  H   UNK N   1      31.884  17.078   1.825  0.00  0.00     0.170 HD
HETATM   17  H   UNK N   1      31.318  17.976   3.193  0.00  0.00     0.170 HD
ENDBRANCH  12  15
ENDBRANCH  10  12
ENDBRANCH   9  10
ENDBRANCH   8   9
ENDBRANCH   7   8
BRANCH   4  18
HETATM   18  N   UNK N   1      34.466  18.325   8.406  0.00  0.00    -0.096 N 
HETATM   19  O   UNK N   1      33.386  18.567   7.963  0.00  0.00    -0.530 OA
HETATM   20  O   UNK N   1      35.292  19.187   8.445  0.00  0.00    -0.530 OA
ENDBRANCH   4  18
TORSDOF 6
ENDMDL
MODEL 9
REMARK VINA RESULT:      -4.8      3.661      5.125
REMARK  6 active torsions:
REMARK  status: ('A' for Active; 'I' for Inactive)
REMARK    1  A    between atoms: C_3  and  C_2 
REMARK    2  A    between atoms: N_10  and  C_2 
REMARK    3  A    between atoms: N_11  and  C_3 
REMARK    4  A    between atoms: N_12  and  C_6 
REMARK    5  A    between atoms: S_17  and  N_7 
REMARK    6  A    between atoms: S_17  and  N_10 
ROOT
HETATM    1  C   UNK N   1      27.913  28.356  -7.066  0.00  0.00     0.089 C 
HETATM    2  C   UNK N   1      27.398  27.212  -3.699  0.00  0.00     0.144 A 
HETATM    3  C   UNK N   1      27.691  27.609  -5.794  0.00  0.00     0.081 A 
HETATM    4  C   UNK N   1      27.354  26.020  -4.399  0.00  0.00     0.193 A 
HETATM    5  N   UNK N   1      27.615  28.208  -4.588  0.00  0.00    -0.352 N 
ATOM      6  HN  UNK N   1      27.701  29.204  -4.388  1.00  0.00     0.166 HD
HETATM    7  N   UNK N   1      27.535  26.274  -5.711  0.00  0.00    -0.315 N 
ENDROOT
BRANCH   7   8
HETATM    8  C   UNK N   1      27.507  25.353  -6.843  0.00  0.00     0.152 C 
BRANCH   8   9
HETATM    9  C   UNK N   1      26.151  25.296  -7.525  0.00  0.00     0.154 C 
BRANCH   9  10
HETATM   10  N   UNK N   1      25.351  24.281  -6.846  0.00  0.00    -0.301 N 
HETATM   11  H   UNK N   1      24.745  24.441  -6.041  0.00  0.00     0.173 HD
BRANCH  10  12
HETATM   12  S   UNK N   1      25.610  22.723  -7.655  0.00  0.00     0.312 S 
HETATM   13  O   UNK N   1      24.531  23.441  -8.483  0.00  0.00    -0.183 OA
HETATM   14  O   UNK N   1      24.987  22.429  -6.281  0.00  0.00    -0.183 OA
BRANCH  12  15
HETATM   15  N   UNK N   1      24.239  21.637  -7.882  0.00  0.00    -0.312 N 
HETATM   16  H   UNK N   1      23.788  21.383  -8.761  0.00  0.00     0.170 HD
HETATM   17  H   UNK N   1      23.853  21.216  -7.038  0.00  0.00     0.170 HD
ENDBRANCH  12  15
ENDBRANCH  10  12
ENDBRANCH   9  10
ENDBRANCH   8   9
ENDBRANCH   7   8
BRANCH   4  18
HETATM   18  N   UNK N   1      27.129  24.739  -3.822  0.00  0.00    -0.096 N 
HETATM   19  O   UNK N   1      26.024  24.305  -3.715  0.00  0.00    -0.530 OA
HETATM   20  O   UNK N   1      28.056  24.084  -3.448  0.00  0.00    -0.530 OA
ENDBRANCH   4  18
TORSDOF 6
ENDMDL
