MODEL 1
REMARK VINA RESULT:      -8.2      0.000      0.000
REMARK  8 active torsions:
REMARK  status: ('A' for Active; 'I' for Inactive)
REMARK    1  A    between atoms: C_2  and  C_3 
REMARK    2  A    between atoms: C_2  and  C_7 
REMARK    3  A    between atoms: C_2  and  O_11 
REMARK    4  A    between atoms: O_11  and  C_12 
REMARK    5  A    between atoms: C_12  and  C_14 
REMARK    6  A    between atoms: C_17  and  C_20 
REMARK    7  A    between atoms: C_20  and  C_21 
REMARK    8  A    between atoms: C_22  and  O_32 
ROOT
HETATM    1  C   UNK N   1      29.328  17.208   6.141  0.00  0.00     0.039 A 
HETATM    2  C   UNK N   1      29.934  17.556   7.359  0.00  0.00     0.018 A 
HETATM    3  C   UNK N   1      31.327  17.539   7.500  0.00  0.00     0.008 A 
HETATM    4  C   UNK N   1      32.128  17.112   6.439  0.00  0.00    -0.054 A 
HETATM    5  C   UNK N   1      31.518  16.696   5.245  0.00  0.00     0.008 A 
HETATM    6  C   UNK N   1      30.142  16.755   5.097  0.00  0.00     0.018 A 
ENDROOT
BRANCH   4   7
HETATM    7  C   UNK N   1      33.623  17.308   6.494  0.00  0.00     0.086 C 
BRANCH   7   8
HETATM    8  C   UNK N   1      34.115  16.961   7.883  0.00  0.00     0.056 A 
HETATM    9  C   UNK N   1      34.045  15.644   8.340  0.00  0.00     0.091 A 
HETATM   10  C   UNK N   1      34.637  15.318   9.565  0.00  0.00     0.032 A 
HETATM   11  C   UNK N   1      34.627  14.006  10.053  0.00  0.00     0.017 A 
HETATM   12  C   UNK N   1      35.285  16.336  10.301  0.00  0.00     0.092 A 
HETATM   13  C   UNK N   1      35.268  13.705  11.259  0.00  0.00     0.001 A 
HETATM   14  C   UNK N   1      35.922  14.711  11.977  0.00  0.00     0.003 A 
HETATM   15  C   UNK N   1      35.926  16.024  11.502  0.00  0.00     0.038 A 
HETATM   16  O   UNK N   1      35.300  17.584   9.853  0.00  0.00    -0.274 OA
HETATM   17  C   UNK N   1      34.746  17.935   8.696  0.00  0.00     0.297 A 
HETATM   18  O   UNK N   1      34.823  19.093   8.328  0.00  0.00    -0.259 OA
BRANCH   9  19
HETATM   19  O   UNK N   1      33.442  14.695   7.598  0.00  0.00    -0.359 OA
HETATM   20  H   UNK N   1      33.794  13.834   7.484  0.00  0.00     0.217 HD
ENDBRANCH   9  19
ENDBRANCH   7   8
ENDBRANCH   4   7
BRANCH   1  21
HETATM   21  C   UNK N   1      27.859  17.267   5.895  0.00  0.00     0.294 C 
HETATM   22  O   UNK N   1      27.298  16.233   5.561  0.00  0.00    -0.259 OA
BRANCH  21  23
HETATM   23  O   UNK N   1      27.071  18.354   6.125  0.00  0.00    -0.288 OA
BRANCH  23  24
HETATM   24  C   UNK N   1      26.694  19.462   5.375  0.00  0.00     0.260 C 
HETATM   25  C   UNK N   1      25.208  19.471   5.014  0.00  0.00     0.066 C 
BRANCH  24  26
HETATM   26  C   UNK N   1      27.567  19.530   4.096  0.00  0.00     0.427 C 
HETATM   27  F   UNK N   1      27.064  20.460   3.205  0.00  0.00    -0.167 F 
HETATM   28  F   UNK N   1      28.868  19.878   4.418  0.00  0.00    -0.167 F 
HETATM   29  F   UNK N   1      27.607  18.305   3.459  0.00  0.00    -0.167 F 
ENDBRANCH  24  26
BRANCH  24  30
HETATM   30  C   UNK N   1      26.946  20.687   6.282  0.00  0.00     0.427 C 
HETATM   31  F   UNK N   1      28.066  20.480   7.070  0.00  0.00    -0.167 F 
HETATM   32  F   UNK N   1      27.134  21.837   5.534  0.00  0.00    -0.167 F 
HETATM   33  F   UNK N   1      25.861  20.881   7.122  0.00  0.00    -0.167 F 
ENDBRANCH  24  30
ENDBRANCH  23  24
ENDBRANCH  21  23
ENDBRANCH   1  21
TORSDOF 8
ENDMDL
MODEL 2
REMARK VINA RESULT:      -8.2      0.773      1.828
REMARK  8 active torsions:
REMARK  status: ('A' for Active; 'I' for Inactive)
REMARK    1  A    between atoms: C_2  and  C_3 
REMARK    2  A    between atoms: C_2  and  C_7 
REMARK    3  A    between atoms: C_2  and  O_11 
REMARK    4  A    between atoms: O_11  and  C_12 
REMARK    5  A    between atoms: C_12  and  C_14 
REMARK    6  A    between atoms: C_17  and  C_20 
REMARK    7  A    between atoms: C_20  and  C_21 
REMARK    8  A    between atoms: C_22  and  O_32 
ROOT
HETATM    1  C   UNK N   1      29.444  17.216   5.920  0.00  0.00     0.039 A 
HETATM    2  C   UNK N   1      30.011  17.500   7.173  0.00  0.00     0.018 A 
HETATM    3  C   UNK N   1      31.400  17.497   7.351  0.00  0.00     0.008 A 
HETATM    4  C   UNK N   1      32.236  17.147   6.289  0.00  0.00    -0.054 A 
HETATM    5  C   UNK N   1      31.666  16.792   5.056  0.00  0.00     0.008 A 
HETATM    6  C   UNK N   1      30.293  16.839   4.874  0.00  0.00     0.018 A 
ENDROOT
BRANCH   4   7
HETATM    7  C   UNK N   1      33.725  17.362   6.396  0.00  0.00     0.086 C 
BRANCH   7   8
HETATM    8  C   UNK N   1      34.179  16.986   7.791  0.00  0.00     0.056 A 
HETATM    9  C   UNK N   1      34.136  15.654   8.204  0.00  0.00     0.091 A 
HETATM   10  C   UNK N   1      34.693  15.307   9.439  0.00  0.00     0.032 A 
HETATM   11  C   UNK N   1      34.709  13.981   9.886  0.00  0.00     0.017 A 
HETATM   12  C   UNK N   1      35.282  16.321  10.229  0.00  0.00     0.092 A 
HETATM   13  C   UNK N   1      35.316  13.661  11.104  0.00  0.00     0.001 A 
HETATM   14  C   UNK N   1      35.911  14.663  11.877  0.00  0.00     0.003 A 
HETATM   15  C   UNK N   1      35.890  15.990  11.443  0.00  0.00     0.038 A 
HETATM   16  O   UNK N   1      35.272  17.582   9.821  0.00  0.00    -0.274 OA
HETATM   17  C   UNK N   1      34.749  17.953   8.656  0.00  0.00     0.297 A 
HETATM   18  O   UNK N   1      34.802  19.124   8.328  0.00  0.00    -0.259 OA
BRANCH   9  19
HETATM   19  O   UNK N   1      33.590  14.711   7.411  0.00  0.00    -0.359 OA
HETATM   20  H   UNK N   1      34.076  14.250   6.756  0.00  0.00     0.217 HD
ENDBRANCH   9  19
ENDBRANCH   7   8
ENDBRANCH   4   7
BRANCH   1  21
HETATM   21  C   UNK N   1      27.981  17.267   5.638  0.00  0.00     0.294 C 
HETATM   22  O   UNK N   1      27.436  16.232   5.280  0.00  0.00    -0.259 OA
BRANCH  21  23
HETATM   23  O   UNK N   1      27.179  18.346   5.858  0.00  0.00    -0.288 OA
BRANCH  23  24
HETATM   24  C   UNK N   1      26.973  19.556   5.208  0.00  0.00     0.260 C 
HETATM   25  C   UNK N   1      27.968  19.812   4.075  0.00  0.00     0.066 C 
BRANCH  24  26
HETATM   26  C   UNK N   1      27.021  20.706   6.247  0.00  0.00     0.427 C 
HETATM   27  F   UNK N   1      25.834  20.779   6.954  0.00  0.00    -0.167 F 
HETATM   28  F   UNK N   1      28.060  20.507   7.139  0.00  0.00    -0.167 F 
HETATM   29  F   UNK N   1      27.226  21.923   5.629  0.00  0.00    -0.167 F 
ENDBRANCH  24  26
BRANCH  24  30
HETATM   30  C   UNK N   1      25.572  19.452   4.564  0.00  0.00     0.427 C 
HETATM   31  F   UNK N   1      24.689  18.831   5.431  0.00  0.00    -0.167 F 
HETATM   32  F   UNK N   1      25.072  20.702   4.240  0.00  0.00    -0.167 F 
HETATM   33  F   UNK N   1      25.642  18.692   3.407  0.00  0.00    -0.167 F 
ENDBRANCH  24  30
ENDBRANCH  23  24
ENDBRANCH  21  23
ENDBRANCH   1  21
TORSDOF 8
ENDMDL
MODEL 3
REMARK VINA RESULT:      -8.2     11.654     16.034
REMARK  8 active torsions:
REMARK  status: ('A' for Active; 'I' for Inactive)
REMARK    1  A    between atoms: C_2  and  C_3 
REMARK    2  A    between atoms: C_2  and  C_7 
REMARK    3  A    between atoms: C_2  and  O_11 
REMARK    4  A    between atoms: O_11  and  C_12 
REMARK    5  A    between atoms: C_12  and  C_14 
REMARK    6  A    between atoms: C_17  and  C_20 
REMARK    7  A    between atoms: C_20  and  C_21 
REMARK    8  A    between atoms: C_22  and  O_32 
ROOT
HETATM    1  C   UNK N   1      29.296  23.102  -3.391  0.00  0.00     0.039 A 
HETATM    2  C   UNK N   1      29.070  23.178  -4.774  0.00  0.00     0.018 A 
HETATM    3  C   UNK N   1      27.908  23.771  -5.282  0.00  0.00     0.008 A 
HETATM    4  C   UNK N   1      26.928  24.241  -4.405  0.00  0.00    -0.054 A 
HETATM    5  C   UNK N   1      27.122  24.101  -3.022  0.00  0.00     0.008 A 
HETATM    6  C   UNK N   1      28.293  23.552  -2.525  0.00  0.00     0.018 A 
ENDROOT
BRANCH   4   7
HETATM    7  C   UNK N   1      25.790  25.084  -4.925  0.00  0.00     0.086 C 
BRANCH   7   8
HETATM    8  C   UNK N   1      26.308  26.470  -5.246  0.00  0.00     0.056 A 
HETATM    9  C   UNK N   1      26.362  27.444  -4.247  0.00  0.00     0.091 A 
HETATM   10  C   UNK N   1      26.977  28.668  -4.524  0.00  0.00     0.032 A 
HETATM   11  C   UNK N   1      27.089  29.666  -3.549  0.00  0.00     0.017 A 
HETATM   12  C   UNK N   1      27.524  28.880  -5.811  0.00  0.00     0.092 A 
HETATM   13  C   UNK N   1      27.751  30.861  -3.845  0.00  0.00     0.001 A 
HETATM   14  C   UNK N   1      28.305  31.062  -5.113  0.00  0.00     0.003 A 
HETATM   15  C   UNK N   1      28.187  30.076  -6.095  0.00  0.00     0.038 A 
HETATM   16  O   UNK N   1      27.423  27.946  -6.746  0.00  0.00    -0.274 OA
HETATM   17  C   UNK N   1      26.842  26.771  -6.524  0.00  0.00     0.297 A 
HETATM   18  O   UNK N   1      26.811  25.945  -7.417  0.00  0.00    -0.259 OA
BRANCH   9  19
HETATM   19  O   UNK N   1      25.853  27.195  -3.024  0.00  0.00    -0.359 OA
HETATM   20  H   UNK N   1      26.306  26.696  -2.373  0.00  0.00     0.217 HD
ENDBRANCH   9  19
ENDBRANCH   7   8
ENDBRANCH   4   7
BRANCH   1  21
HETATM   21  C   UNK N   1      30.538  22.548  -2.778  0.00  0.00     0.294 C 
HETATM   22  O   UNK N   1      30.827  22.918  -1.650  0.00  0.00    -0.259 OA
BRANCH  21  23
HETATM   23  O   UNK N   1      31.313  21.572  -3.330  0.00  0.00    -0.288 OA
BRANCH  23  24
HETATM   24  C   UNK N   1      32.407  21.564  -4.186  0.00  0.00     0.260 C 
HETATM   25  C   UNK N   1      32.913  22.964  -4.535  0.00  0.00     0.066 C 
BRANCH  24  26
HETATM   26  C   UNK N   1      32.038  20.781  -5.472  0.00  0.00     0.427 C 
HETATM   27  F   UNK N   1      33.165  20.222  -6.048  0.00  0.00    -0.167 F 
HETATM   28  F   UNK N   1      31.139  19.770  -5.181  0.00  0.00    -0.167 F 
HETATM   29  F   UNK N   1      31.448  21.610  -6.405  0.00  0.00    -0.167 F 
ENDBRANCH  24  26
BRANCH  24  30
HETATM   30  C   UNK N   1      33.539  20.853  -3.413  0.00  0.00     0.427 C 
HETATM   31  F   UNK N   1      33.417  21.092  -2.054  0.00  0.00    -0.167 F 
HETATM   32  F   UNK N   1      33.516  19.485  -3.628  0.00  0.00    -0.167 F 
HETATM   33  F   UNK N   1      34.769  21.343  -3.823  0.00  0.00    -0.167 F 
ENDBRANCH  24  30
ENDBRANCH  23  24
ENDBRANCH  21  23
ENDBRANCH   1  21
TORSDOF 8
ENDMDL
MODEL 4
REMARK VINA RESULT:      -8.1      1.030      2.097
REMARK  8 active torsions:
REMARK  status: ('A' for Active; 'I' for Inactive)
REMARK    1  A    between atoms: C_2  and  C_3 
REMARK    2  A    between atoms: C_2  and  C_7 
REMARK    3  A    between atoms: C_2  and  O_11 
REMARK    4  A    between atoms: O_11  and  C_12 
REMARK    5  A    between atoms: C_12  and  C_14 
REMARK    6  A    between atoms: C_17  and  C_20 
REMARK    7  A    between atoms: C_20  and  C_21 
REMARK    8  A    between atoms: C_22  and  O_32 
ROOT
HETATM    1  C   UNK N   1      29.520  17.317   6.372  0.00  0.00     0.039 A 
HETATM    2  C   UNK N   1      30.253  17.174   5.183  0.00  0.00     0.018 A 
HETATM    3  C   UNK N   1      31.654  17.187   5.196  0.00  0.00     0.008 A 
HETATM    4  C   UNK N   1      32.335  17.405   6.394  0.00  0.00    -0.054 A 
HETATM    5  C   UNK N   1      31.601  17.620   7.571  0.00  0.00     0.008 A 
HETATM    6  C   UNK N   1      30.216  17.563   7.560  0.00  0.00     0.018 A 
ENDROOT
BRANCH   4   7
HETATM    7  C   UNK N   1      33.827  17.192   6.465  0.00  0.00     0.086 C 
BRANCH   7   8
HETATM    8  C   UNK N   1      34.215  16.889   7.896  0.00  0.00     0.056 A 
HETATM    9  C   UNK N   1      34.085  15.592   8.395  0.00  0.00     0.091 A 
HETATM   10  C   UNK N   1      34.583  15.301   9.669  0.00  0.00     0.032 A 
HETATM   11  C   UNK N   1      34.511  14.009  10.203  0.00  0.00     0.017 A 
HETATM   12  C   UNK N   1      35.202  16.333  10.411  0.00  0.00     0.092 A 
HETATM   13  C   UNK N   1      35.060  13.741  11.461  0.00  0.00     0.001 A 
HETATM   14  C   UNK N   1      35.686  14.760  12.186  0.00  0.00     0.003 A 
HETATM   15  C   UNK N   1      35.751  16.054  11.665  0.00  0.00     0.038 A 
HETATM   16  O   UNK N   1      35.275  17.563   9.920  0.00  0.00    -0.274 OA
HETATM   17  C   UNK N   1      34.809  17.881   8.716  0.00  0.00     0.297 A 
HETATM   18  O   UNK N   1      34.937  19.022   8.313  0.00  0.00    -0.259 OA
BRANCH   9  19
HETATM   19  O   UNK N   1      33.514  14.628   7.648  0.00  0.00    -0.359 OA
HETATM   20  H   UNK N   1      32.601  14.618   7.435  0.00  0.00     0.217 HD
ENDBRANCH   9  19
ENDBRANCH   7   8
ENDBRANCH   4   7
BRANCH   1  21
HETATM   21  C   UNK N   1      28.032  17.245   6.446  0.00  0.00     0.294 C 
HETATM   22  O   UNK N   1      27.536  16.836   7.486  0.00  0.00    -0.259 OA
BRANCH  21  23
HETATM   23  O   UNK N   1      27.178  17.709   5.491  0.00  0.00    -0.288 OA
BRANCH  23  24
HETATM   24  C   UNK N   1      26.710  18.967   5.130  0.00  0.00     0.260 C 
HETATM   25  C   UNK N   1      26.771  19.985   6.269  0.00  0.00     0.066 C 
BRANCH  24  26
HETATM   26  C   UNK N   1      25.262  18.833   4.593  0.00  0.00     0.427 C 
HETATM   27  F   UNK N   1      25.252  18.223   3.351  0.00  0.00    -0.167 F 
HETATM   28  F   UNK N   1      24.490  18.084   5.464  0.00  0.00    -0.167 F 
HETATM   29  F   UNK N   1      24.666  20.072   4.465  0.00  0.00    -0.167 F 
ENDBRANCH  24  26
BRANCH  24  30
HETATM   30  C   UNK N   1      27.665  19.468   4.024  0.00  0.00     0.427 C 
HETATM   31  F   UNK N   1      27.006  20.346   3.180  0.00  0.00    -0.167 F 
HETATM   32  F   UNK N   1      28.767  20.110   4.563  0.00  0.00    -0.167 F 
HETATM   33  F   UNK N   1      28.108  18.396   3.264  0.00  0.00    -0.167 F 
ENDBRANCH  24  30
ENDBRANCH  23  24
ENDBRANCH  21  23
ENDBRANCH   1  21
TORSDOF 8
ENDMDL
MODEL 5
REMARK VINA RESULT:      -7.9      6.507      8.673
REMARK  8 active torsions:
REMARK  status: ('A' for Active; 'I' for Inactive)
REMARK    1  A    between atoms: C_2  and  C_3 
REMARK    2  A    between atoms: C_2  and  C_7 
REMARK    3  A    between atoms: C_2  and  O_11 
REMARK    4  A    between atoms: O_11  and  C_12 
REMARK    5  A    between atoms: C_12  and  C_14 
REMARK    6  A    between atoms: C_17  and  C_20 
REMARK    7  A    between atoms: C_20  and  C_21 
REMARK    8  A    between atoms: C_22  and  O_32 
ROOT
HETATM    1  C   UNK N   1      23.602  17.396   4.803  0.00  0.00     0.039 A 
HETATM    2  C   UNK N   1      22.661  17.079   5.795  0.00  0.00     0.018 A 
HETATM    3  C   UNK N   1      22.296  15.749   6.041  0.00  0.00     0.008 A 
HETATM    4  C   UNK N   1      22.826  14.726   5.253  0.00  0.00    -0.054 A 
HETATM    5  C   UNK N   1      23.712  15.051   4.213  0.00  0.00     0.008 A 
HETATM    6  C   UNK N   1      24.102  16.363   4.002  0.00  0.00     0.018 A 
ENDROOT
BRANCH   4   7
HETATM    7  C   UNK N   1      22.627  13.285   5.650  0.00  0.00     0.086 C 
BRANCH   7   8
HETATM    8  C   UNK N   1      23.060  13.105   7.090  0.00  0.00     0.056 A 
HETATM    9  C   UNK N   1      22.102  12.929   8.090  0.00  0.00     0.091 A 
HETATM   10  C   UNK N   1      22.524  12.620   9.387  0.00  0.00     0.032 A 
HETATM   11  C   UNK N   1      21.605  12.398  10.420  0.00  0.00     0.017 A 
HETATM   12  C   UNK N   1      23.909  12.498   9.643  0.00  0.00     0.092 A 
HETATM   13  C   UNK N   1      22.057  12.046  11.695  0.00  0.00     0.001 A 
HETATM   14  C   UNK N   1      23.428  11.911  11.941  0.00  0.00     0.003 A 
HETATM   15  C   UNK N   1      24.351  12.142  10.919  0.00  0.00     0.038 A 
HETATM   16  O   UNK N   1      24.791  12.709   8.676  0.00  0.00    -0.274 OA
HETATM   17  C   UNK N   1      24.432  13.008   7.431  0.00  0.00     0.297 A 
HETATM   18  O   UNK N   1      25.293  13.158   6.584  0.00  0.00    -0.259 OA
BRANCH   9  19
HETATM   19  O   UNK N   1      20.789  13.026   7.803  0.00  0.00    -0.359 OA
HETATM   20  H   UNK N   1      20.115  12.725   8.379  0.00  0.00     0.217 HD
ENDBRANCH   9  19
ENDBRANCH   7   8
ENDBRANCH   4   7
BRANCH   1  21
HETATM   21  C   UNK N   1      24.090  18.779   4.529  0.00  0.00     0.294 C 
HETATM   22  O   UNK N   1      23.440  19.465   3.754  0.00  0.00    -0.259 OA
BRANCH  21  23
HETATM   23  O   UNK N   1      25.135  19.379   5.164  0.00  0.00    -0.288 OA
BRANCH  23  24
HETATM   24  C   UNK N   1      26.458  19.642   4.829  0.00  0.00     0.260 C 
HETATM   25  C   UNK N   1      26.612  20.342   3.478  0.00  0.00     0.066 C 
BRANCH  24  26
HETATM   26  C   UNK N   1      27.261  18.316   4.853  0.00  0.00     0.427 C 
HETATM   27  F   UNK N   1      28.607  18.560   5.060  0.00  0.00    -0.167 F 
HETATM   28  F   UNK N   1      26.797  17.488   5.860  0.00  0.00    -0.167 F 
HETATM   29  F   UNK N   1      27.129  17.637   3.658  0.00  0.00    -0.167 F 
ENDBRANCH  24  26
BRANCH  24  30
HETATM   30  C   UNK N   1      26.976  20.620   5.907  0.00  0.00     0.427 C 
HETATM   31  F   UNK N   1      27.163  19.958   7.108  0.00  0.00    -0.167 F 
HETATM   32  F   UNK N   1      28.175  21.200   5.527  0.00  0.00    -0.167 F 
HETATM   33  F   UNK N   1      26.046  21.627   6.114  0.00  0.00    -0.167 F 
ENDBRANCH  24  30
ENDBRANCH  23  24
ENDBRANCH  21  23
ENDBRANCH   1  21
TORSDOF 8
ENDMDL
MODEL 6
REMARK VINA RESULT:      -7.9      6.658     10.374
REMARK  8 active torsions:
REMARK  status: ('A' for Active; 'I' for Inactive)
REMARK    1  A    between atoms: C_2  and  C_3 
REMARK    2  A    between atoms: C_2  and  C_7 
REMARK    3  A    between atoms: C_2  and  O_11 
REMARK    4  A    between atoms: O_11  and  C_12 
REMARK    5  A    between atoms: C_12  and  C_14 
REMARK    6  A    between atoms: C_17  and  C_20 
REMARK    7  A    between atoms: C_20  and  C_21 
REMARK    8  A    between atoms: C_22  and  O_32 
ROOT
HETATM    1  C   UNK N   1      34.862  13.979  11.349  0.00  0.00     0.039 A 
HETATM    2  C   UNK N   1      35.550  15.161  11.665  0.00  0.00     0.018 A 
HETATM    3  C   UNK N   1      35.420  16.304  10.866  0.00  0.00     0.008 A 
HETATM    4  C   UNK N   1      34.647  16.256   9.705  0.00  0.00    -0.054 A 
HETATM    5  C   UNK N   1      34.016  15.052   9.350  0.00  0.00     0.008 A 
HETATM    6  C   UNK N   1      34.114  13.938  10.167  0.00  0.00     0.018 A 
ENDROOT
BRANCH   4   7
HETATM    7  C   UNK N   1      34.311  17.528   8.967  0.00  0.00     0.086 C 
BRANCH   7   8
HETATM    8  C   UNK N   1      33.324  17.213   7.864  0.00  0.00     0.056 A 
HETATM    9  C   UNK N   1      31.955  17.372   8.085  0.00  0.00     0.091 A 
HETATM   10  C   UNK N   1      31.070  17.217   7.013  0.00  0.00     0.032 A 
HETATM   11  C   UNK N   1      29.692  17.401   7.171  0.00  0.00     0.017 A 
HETATM   12  C   UNK N   1      31.594  16.902   5.738  0.00  0.00     0.092 A 
HETATM   13  C   UNK N   1      28.840  17.284   6.069  0.00  0.00     0.001 A 
HETATM   14  C   UNK N   1      29.362  16.987   4.806  0.00  0.00     0.003 A 
HETATM   15  C   UNK N   1      30.735  16.791   4.642  0.00  0.00     0.038 A 
HETATM   16  O   UNK N   1      32.897  16.722   5.573  0.00  0.00    -0.274 OA
HETATM   17  C   UNK N   1      33.770  16.856   6.567  0.00  0.00     0.297 A 
HETATM   18  O   UNK N   1      34.956  16.708   6.339  0.00  0.00    -0.259 OA
BRANCH   9  19
HETATM   19  O   UNK N   1      31.495  17.700   9.308  0.00  0.00    -0.359 OA
HETATM   20  H   UNK N   1      31.930  17.454  10.101  0.00  0.00     0.217 HD
ENDBRANCH   9  19
ENDBRANCH   7   8
ENDBRANCH   4   7
BRANCH   1  21
HETATM   21  C   UNK N   1      34.897  12.745  12.187  0.00  0.00     0.294 C 
HETATM   22  O   UNK N   1      35.224  11.700  11.643  0.00  0.00    -0.259 OA
BRANCH  21  23
HETATM   23  O   UNK N   1      34.706  12.711  13.535  0.00  0.00    -0.288 OA
BRANCH  23  24
HETATM   24  C   UNK N   1      35.238  11.960  14.576  0.00  0.00     0.260 C 
HETATM   25  C   UNK N   1      36.678  11.512  14.325  0.00  0.00     0.066 C 
BRANCH  24  26
HETATM   26  C   UNK N   1      34.323  10.736  14.838  0.00  0.00     0.427 C 
HETATM   27  F   UNK N   1      32.999  11.049  14.587  0.00  0.00    -0.167 F 
HETATM   28  F   UNK N   1      34.692   9.676  14.028  0.00  0.00    -0.167 F 
HETATM   29  F   UNK N   1      34.422  10.316  16.149  0.00  0.00    -0.167 F 
ENDBRANCH  24  26
BRANCH  24  30
HETATM   30  C   UNK N   1      35.264  12.901  15.801  0.00  0.00     0.427 C 
HETATM   31  F   UNK N   1      33.974  13.247  16.170  0.00  0.00    -0.167 F 
HETATM   32  F   UNK N   1      35.892  12.305  16.882  0.00  0.00    -0.167 F 
HETATM   33  F   UNK N   1      35.944  14.067  15.484  0.00  0.00    -0.167 F 
ENDBRANCH  24  30
ENDBRANCH  23  24
ENDBRANCH  21  23
ENDBRANCH   1  21
TORSDOF 8
ENDMDL
MODEL 7
REMARK VINA RESULT:      -7.8     11.835     16.562
REMARK  8 active torsions:
REMARK  status: ('A' for Active; 'I' for Inactive)
REMARK    1  A    between atoms: C_2  and  C_3 
REMARK    2  A    between atoms: C_2  and  C_7 
REMARK    3  A    between atoms: C_2  and  O_11 
REMARK    4  A    between atoms: O_11  and  C_12 
REMARK    5  A    between atoms: C_12  and  C_14 
REMARK    6  A    between atoms: C_17  and  C_20 
REMARK    7  A    between atoms: C_20  and  C_21 
REMARK    8  A    between atoms: C_22  and  O_32 
ROOT
HETATM    1  C   UNK N   1      29.318  23.057  -3.408  0.00  0.00     0.039 A 
HETATM    2  C   UNK N   1      29.092  23.037  -4.793  0.00  0.00     0.018 A 
HETATM    3  C   UNK N   1      27.945  23.623  -5.343  0.00  0.00     0.008 A 
HETATM    4  C   UNK N   1      26.980  24.182  -4.503  0.00  0.00    -0.054 A 
HETATM    5  C   UNK N   1      27.172  24.138  -3.113  0.00  0.00     0.008 A 
HETATM    6  C   UNK N   1      28.329  23.595  -2.578  0.00  0.00     0.018 A 
ENDROOT
BRANCH   4   7
HETATM    7  C   UNK N   1      25.864  25.015  -5.083  0.00  0.00     0.086 C 
BRANCH   7   8
HETATM    8  C   UNK N   1      26.329  25.622  -6.389  0.00  0.00     0.056 A 
HETATM    9  C   UNK N   1      27.198  26.715  -6.382  0.00  0.00     0.091 A 
HETATM   10  C   UNK N   1      27.730  27.168  -7.593  0.00  0.00     0.032 A 
HETATM   11  C   UNK N   1      28.633  28.237  -7.639  0.00  0.00     0.017 A 
HETATM   12  C   UNK N   1      27.367  26.504  -8.787  0.00  0.00     0.092 A 
HETATM   13  C   UNK N   1      29.182  28.635  -8.861  0.00  0.00     0.001 A 
HETATM   14  C   UNK N   1      28.834  27.967 -10.039  0.00  0.00     0.003 A 
HETATM   15  C   UNK N   1      27.925  26.908 -10.003  0.00  0.00     0.038 A 
HETATM   16  O   UNK N   1      26.511  25.493  -8.761  0.00  0.00    -0.274 OA
HETATM   17  C   UNK N   1      25.979  25.035  -7.631  0.00  0.00     0.297 A 
HETATM   18  O   UNK N   1      25.224  24.082  -7.674  0.00  0.00    -0.259 OA
BRANCH   9  19
HETATM   19  O   UNK N   1      27.542  27.305  -5.220  0.00  0.00    -0.359 OA
HETATM   20  H   UNK N   1      26.940  27.800  -4.700  0.00  0.00     0.217 HD
ENDBRANCH   9  19
ENDBRANCH   7   8
ENDBRANCH   4   7
BRANCH   1  21
HETATM   21  C   UNK N   1      30.546  22.515  -2.757  0.00  0.00     0.294 C 
HETATM   22  O   UNK N   1      30.796  22.889  -1.620  0.00  0.00    -0.259 OA
BRANCH  21  23
HETATM   23  O   UNK N   1      31.347  21.546  -3.283  0.00  0.00    -0.288 OA
BRANCH  23  24
HETATM   24  C   UNK N   1      32.423  21.543  -4.161  0.00  0.00     0.260 C 
HETATM   25  C   UNK N   1      32.898  22.946  -4.542  0.00  0.00     0.066 C 
BRANCH  24  26
HETATM   26  C   UNK N   1      32.043  20.732  -5.427  0.00  0.00     0.427 C 
HETATM   27  F   UNK N   1      31.491  21.556  -6.391  0.00  0.00    -0.167 F 
HETATM   28  F   UNK N   1      33.161  20.112  -5.957  0.00  0.00    -0.167 F 
HETATM   29  F   UNK N   1      31.121  19.749  -5.126  0.00  0.00    -0.167 F 
ENDBRANCH  24  26
BRANCH  24  30
HETATM   30  C   UNK N   1      33.583  20.864  -3.399  0.00  0.00     0.427 C 
HETATM   31  F   UNK N   1      33.555  19.494  -3.600  0.00  0.00    -0.167 F 
HETATM   32  F   UNK N   1      34.812  21.350  -3.814  0.00  0.00    -0.167 F 
HETATM   33  F   UNK N   1      33.453  21.099  -2.039  0.00  0.00    -0.167 F 
ENDBRANCH  24  30
ENDBRANCH  23  24
ENDBRANCH  21  23
ENDBRANCH   1  21
TORSDOF 8
ENDMDL
MODEL 8
REMARK VINA RESULT:      -7.6      4.606      7.456
REMARK  8 active torsions:
REMARK  status: ('A' for Active; 'I' for Inactive)
REMARK    1  A    between atoms: C_2  and  C_3 
REMARK    2  A    between atoms: C_2  and  C_7 
REMARK    3  A    between atoms: C_2  and  O_11 
REMARK    4  A    between atoms: O_11  and  C_12 
REMARK    5  A    between atoms: C_12  and  C_14 
REMARK    6  A    between atoms: C_17  and  C_20 
REMARK    7  A    between atoms: C_20  and  C_21 
REMARK    8  A    between atoms: C_22  and  O_32 
ROOT
HETATM    1  C   UNK N   1      23.135  18.289   3.731  0.00  0.00     0.039 A 
HETATM    2  C   UNK N   1      24.231  17.417   3.826  0.00  0.00     0.018 A 
HETATM    3  C   UNK N   1      25.543  17.907   3.820  0.00  0.00     0.008 A 
HETATM    4  C   UNK N   1      25.773  19.274   3.655  0.00  0.00    -0.054 A 
HETATM    5  C   UNK N   1      24.678  20.138   3.488  0.00  0.00     0.008 A 
HETATM    6  C   UNK N   1      23.382  19.652   3.538  0.00  0.00     0.018 A 
ENDROOT
BRANCH   4   7
HETATM    7  C   UNK N   1      27.153  19.841   3.877  0.00  0.00     0.086 C 
BRANCH   7   8
HETATM    8  C   UNK N   1      27.717  19.278   5.164  0.00  0.00     0.056 A 
HETATM    9  C   UNK N   1      28.690  18.278   5.122  0.00  0.00     0.091 A 
HETATM   10  C   UNK N   1      29.302  17.874   6.312  0.00  0.00     0.032 A 
HETATM   11  C   UNK N   1      30.308  16.902   6.323  0.00  0.00     0.017 A 
HETATM   12  C   UNK N   1      28.913  18.494   7.522  0.00  0.00     0.092 A 
HETATM   13  C   UNK N   1      30.933  16.554   7.524  0.00  0.00     0.001 A 
HETATM   14  C   UNK N   1      30.557  17.180   8.717  0.00  0.00     0.003 A 
HETATM   15  C   UNK N   1      29.546  18.143   8.717  0.00  0.00     0.038 A 
HETATM   16  O   UNK N   1      27.959  19.415   7.529  0.00  0.00    -0.274 OA
HETATM   17  C   UNK N   1      27.350  19.822   6.420  0.00  0.00     0.297 A 
HETATM   18  O   UNK N   1      26.504  20.695   6.493  0.00  0.00    -0.259 OA
BRANCH   9  19
HETATM   19  O   UNK N   1      29.054  17.730   3.946  0.00  0.00    -0.359 OA
HETATM   20  H   UNK N   1      28.683  17.987   3.125  0.00  0.00     0.217 HD
ENDBRANCH   9  19
ENDBRANCH   7   8
ENDBRANCH   4   7
BRANCH   1  21
HETATM   21  C   UNK N   1      21.712  17.848   3.800  0.00  0.00     0.294 C 
HETATM   22  O   UNK N   1      20.902  18.437   3.098  0.00  0.00    -0.259 OA
BRANCH  21  23
HETATM   23  O   UNK N   1      21.261  16.765   4.493  0.00  0.00    -0.288 OA
BRANCH  23  24
HETATM   24  C   UNK N   1      21.005  16.504   5.834  0.00  0.00     0.260 C 
HETATM   25  C   UNK N   1      21.012  17.759   6.708  0.00  0.00     0.066 C 
BRANCH  24  26
HETATM   26  C   UNK N   1      22.036  15.469   6.355  0.00  0.00     0.427 C 
HETATM   27  F   UNK N   1      23.239  16.082   6.654  0.00  0.00    -0.167 F 
HETATM   28  F   UNK N   1      21.559  14.844   7.494  0.00  0.00    -0.167 F 
HETATM   29  F   UNK N   1      22.277  14.492   5.410  0.00  0.00    -0.167 F 
ENDBRANCH  24  26
BRANCH  24  30
HETATM   30  C   UNK N   1      19.572  15.928   5.882  0.00  0.00     0.427 C 
HETATM   31  F   UNK N   1      18.804  16.464   4.862  0.00  0.00    -0.167 F 
HETATM   32  F   UNK N   1      19.579  14.549   5.756  0.00  0.00    -0.167 F 
HETATM   33  F   UNK N   1      18.973  16.257   7.087  0.00  0.00    -0.167 F 
ENDBRANCH  24  30
ENDBRANCH  23  24
ENDBRANCH  21  23
ENDBRANCH   1  21
TORSDOF 8
ENDMDL
MODEL 9
REMARK VINA RESULT:      -7.6      7.011     10.867
REMARK  8 active torsions:
REMARK  status: ('A' for Active; 'I' for Inactive)
REMARK    1  A    between atoms: C_2  and  C_3 
REMARK    2  A    between atoms: C_2  and  C_7 
REMARK    3  A    between atoms: C_2  and  O_11 
REMARK    4  A    between atoms: O_11  and  C_12 
REMARK    5  A    between atoms: C_12  and  C_14 
REMARK    6  A    between atoms: C_17  and  C_20 
REMARK    7  A    between atoms: C_20  and  C_21 
REMARK    8  A    between atoms: C_22  and  O_32 
ROOT
HETATM    1  C   UNK N   1      36.100  11.830  12.025  0.00  0.00     0.039 A 
HETATM    2  C   UNK N   1      34.998  11.950  11.165  0.00  0.00     0.018 A 
HETATM    3  C   UNK N   1      35.013  12.858  10.099  0.00  0.00     0.008 A 
HETATM    4  C   UNK N   1      36.110  13.702   9.921  0.00  0.00    -0.054 A 
HETATM    5  C   UNK N   1      37.183  13.632  10.824  0.00  0.00     0.008 A 
HETATM    6  C   UNK N   1      37.180  12.701  11.851  0.00  0.00     0.018 A 
ENDROOT
BRANCH   4   7
HETATM    7  C   UNK N   1      36.243  14.514   8.656  0.00  0.00     0.086 C 
BRANCH   7   8
HETATM    8  C   UNK N   1      35.050  15.438   8.536  0.00  0.00     0.056 A 
HETATM    9  C   UNK N   1      34.019  15.136   7.644  0.00  0.00     0.091 A 
HETATM   10  C   UNK N   1      32.862  15.921   7.652  0.00  0.00     0.032 A 
HETATM   11  C   UNK N   1      31.784  15.641   6.804  0.00  0.00     0.017 A 
HETATM   12  C   UNK N   1      32.776  16.998   8.564  0.00  0.00     0.092 A 
HETATM   13  C   UNK N   1      30.623  16.416   6.870  0.00  0.00     0.001 A 
HETATM   14  C   UNK N   1      30.534  17.471   7.784  0.00  0.00     0.003 A 
HETATM   15  C   UNK N   1      31.610  17.765   8.625  0.00  0.00     0.038 A 
HETATM   16  O   UNK N   1      33.789  17.278   9.371  0.00  0.00    -0.274 OA
HETATM   17  C   UNK N   1      34.908  16.559   9.392  0.00  0.00     0.297 A 
HETATM   18  O   UNK N   1      35.788  16.851  10.180  0.00  0.00    -0.259 OA
BRANCH   9  19
HETATM   19  O   UNK N   1      34.127  14.085   6.808  0.00  0.00    -0.359 OA
HETATM   20  H   UNK N   1      34.276  14.176   5.888  0.00  0.00     0.217 HD
ENDBRANCH   9  19
ENDBRANCH   7   8
ENDBRANCH   4   7
BRANCH   1  21
HETATM   21  C   UNK N   1      36.185  10.840  13.137  0.00  0.00     0.294 C 
HETATM   22  O   UNK N   1      36.447   9.681  12.846  0.00  0.00    -0.259 OA
BRANCH  21  23
HETATM   23  O   UNK N   1      36.109  11.145  14.463  0.00  0.00    -0.288 OA
BRANCH  23  24
HETATM   24  C   UNK N   1      35.073  11.469  15.331  0.00  0.00     0.260 C 
HETATM   25  C   UNK N   1      33.698  11.039  14.819  0.00  0.00     0.066 C 
BRANCH  24  26
HETATM   26  C   UNK N   1      35.101  12.995  15.606  0.00  0.00     0.427 C 
HETATM   27  F   UNK N   1      33.963  13.393  16.284  0.00  0.00    -0.167 F 
HETATM   28  F   UNK N   1      36.211  13.329  16.362  0.00  0.00    -0.167 F 
HETATM   29  F   UNK N   1      35.168  13.709  14.426  0.00  0.00    -0.167 F 
ENDBRANCH  24  26
BRANCH  24  30
HETATM   30  C   UNK N   1      35.345  10.670  16.624  0.00  0.00     0.427 C 
HETATM   31  F   UNK N   1      36.705  10.470  16.789  0.00  0.00    -0.167 F 
HETATM   32  F   UNK N   1      34.854  11.330  17.738  0.00  0.00    -0.167 F 
HETATM   33  F   UNK N   1      34.737   9.427  16.546  0.00  0.00    -0.167 F 
ENDBRANCH  24  30
ENDBRANCH  23  24
ENDBRANCH  21  23
ENDBRANCH   1  21
TORSDOF 8
ENDMDL
