MODEL 1
REMARK VINA RESULT:      -6.7      0.000      0.000
REMARK  15 active torsions:
REMARK  status: ('A' for Active; 'I' for Inactive)
REMARK    1  A    between atoms: C_13  and  C_10 
REMARK    2  A    between atoms: N_29  and  C_10 
REMARK    3  A    between atoms: O_38  and  C_13 
REMARK    4  A    between atoms: C_19  and  C_14 
REMARK    5  A    between atoms: C_23  and  C_14 
REMARK    6  A    between atoms: C_23  and  C_16 
REMARK    7  A    between atoms: N_31  and  C_16 
REMARK    8  A    between atoms: C_24  and  C_20 
REMARK    9  A    between atoms: C_21  and  C_24 
REMARK   10  A    between atoms: C_23  and  N_28 
REMARK   11  A    between atoms: C_24  and  O_38 
REMARK   12  A    between atoms: N_33  and  C_25 
REMARK   13  A    between atoms: O_34  and  C_25 
REMARK   14  A    between atoms: O_35  and  C_26 
REMARK   15  A    between atoms: O_36  and  C_26 
ROOT
HETATM    1  C   UNK N   1      23.593  14.778   2.746  0.00  0.00     0.020 C 
HETATM    2  C   UNK N   1      22.956  14.571   4.127  0.00  0.00     0.011 C 
HETATM    3  C   UNK N   1      24.869  15.612   2.910  0.00  0.00     0.126 C 
HETATM    4  C   UNK N   1      23.282  17.087   4.158  0.00  0.00     0.134 C 
HETATM    5  C   UNK N   1      22.588  15.900   4.836  0.00  0.00     0.037 C 
HETATM    6  N   UNK N   1      24.637  16.738   3.795  0.00  0.00    -0.347 N 
ENDROOT
BRANCH   5   7
HETATM    7  C   UNK N   1      22.938  15.812   6.348  0.00  0.00     0.160 C 
BRANCH   7   8
HETATM    8  C   UNK N   1      21.749  15.851   7.294  0.00  0.00    -0.027 A 
HETATM    9  C   UNK N   1      20.787  16.876   7.256  0.00  0.00     0.010 A 
HETATM   10  C   UNK N   1      19.706  16.869   8.141  0.00  0.00     0.002 A 
HETATM   11  C   UNK N   1      19.564  15.829   9.062  0.00  0.00     0.024 A 
HETATM   12  C   UNK N   1      20.508  14.801   9.105  0.00  0.00     0.034 A 
HETATM   13  C   UNK N   1      21.597  14.815   8.229  0.00  0.00     0.033 A 
HETATM   14 Cl   UNK N   1      20.319  13.485  10.242  0.00  0.00    -0.084 Cl
ENDBRANCH   7   8
BRANCH   7  15
HETATM   15  O   UNK N   1      23.605  14.584   6.582  0.00  0.00    -0.379 OA
BRANCH  15  16
HETATM   16  C   UNK N   1      24.985  14.802   6.737  0.00  0.00     0.188 C 
BRANCH  16  17
HETATM   17  C   UNK N   1      25.501  14.178   8.034  0.00  0.00     0.150 C 
BRANCH  17  18
HETATM   18  N   UNK N   1      24.565  13.239   8.620  0.00  0.00    -0.348 N 
HETATM   19  C   UNK N   1      24.604  12.866   9.858  0.00  0.00     0.257 C 
ATOM     20  HN  UNK N   1      23.835  12.850   8.023  1.00  0.00     0.163 HD
BRANCH  19  21
HETATM   21  O   UNK N   1      25.567  13.328  10.682  0.00  0.00    -0.327 OA
HETATM   22  H   UNK N   1      26.327  12.810  10.856  0.00  0.00     0.221 HD
ENDBRANCH  19  21
BRANCH  19  23
HETATM   23  O   UNK N   1      23.681  12.002  10.348  0.00  0.00    -0.322 OA
HETATM   24  C   UNK N   1      23.378  11.916  11.688  0.00  0.00     0.213 C 
ENDBRANCH  19  23
ENDBRANCH  17  18
ENDBRANCH  16  17
ENDBRANCH  15  16
ENDBRANCH   7  15
ENDBRANCH   5   7
BRANCH   6  25
HETATM   25  C   UNK N   1      25.726  17.452   4.357  0.00  0.00     0.214 C 
HETATM   26  N   UNK N   1      26.888  17.388   3.802  0.00  0.00    -0.354 N 
ATOM     27  HN  UNK N   1      27.007  16.824   2.960  1.00  0.00     0.163 HD
BRANCH  26  28
HETATM   28  C   UNK N   1      28.018  18.091   4.342  0.00  0.00     0.147 C 
BRANCH  28  29
HETATM   29  C   UNK N   1      29.241  17.177   4.400  0.00  0.00     0.094 C 
BRANCH  29  30
HETATM   30  C   UNK N   1      29.278  16.498   5.776  0.00  0.00     0.033 C 
BRANCH  30  31
HETATM   31  C   UNK N   1      29.203  17.468   6.967  0.00  0.00     0.011 C 
HETATM   32  C   UNK N   1      28.011  17.199   7.903  0.00  0.00     0.009 C 
HETATM   33  C   UNK N   1      28.099  18.030   9.188  0.00  0.00     0.027 C 
HETATM   34  C   UNK N   1      29.558  18.231   9.619  0.00  0.00     0.167 C 
HETATM   35  O   UNK N   1      30.357  17.188   9.119  0.00  0.00    -0.391 OA
HETATM   36  C   UNK N   1      30.536  17.448   7.745  0.00  0.00     0.172 C 
ENDBRANCH  30  31
ENDBRANCH  29  30
BRANCH  29  37
HETATM   37  N   UNK N   1      30.475  17.926   4.133  0.00  0.00    -0.420 N 
HETATM   38  C   UNK N   1      31.653  17.064   4.192  0.00  0.00     0.140 C 
HETATM   39  H   UNK N   1      30.507  18.925   3.931  0.00  0.00     0.153 HD
ENDBRANCH  29  37
ENDBRANCH  28  29
ENDBRANCH  26  28
BRANCH  25  40
HETATM   40  O   UNK N   1      25.536  18.212   5.459  0.00  0.00    -0.333 OA
HETATM   41  H   UNK N   1      25.885  18.953   5.915  0.00  0.00     0.220 HD
ENDBRANCH  25  40
ENDBRANCH   6  25
TORSDOF 15
ENDMDL
MODEL 2
REMARK VINA RESULT:      -6.7      6.444     11.357
REMARK  15 active torsions:
REMARK  status: ('A' for Active; 'I' for Inactive)
REMARK    1  A    between atoms: C_13  and  C_10 
REMARK    2  A    between atoms: N_29  and  C_10 
REMARK    3  A    between atoms: O_38  and  C_13 
REMARK    4  A    between atoms: C_19  and  C_14 
REMARK    5  A    between atoms: C_23  and  C_14 
REMARK    6  A    between atoms: C_23  and  C_16 
REMARK    7  A    between atoms: N_31  and  C_16 
REMARK    8  A    between atoms: C_24  and  C_20 
REMARK    9  A    between atoms: C_21  and  C_24 
REMARK   10  A    between atoms: C_23  and  N_28 
REMARK   11  A    between atoms: C_24  and  O_38 
REMARK   12  A    between atoms: N_33  and  C_25 
REMARK   13  A    between atoms: O_34  and  C_25 
REMARK   14  A    between atoms: O_35  and  C_26 
REMARK   15  A    between atoms: O_36  and  C_26 
ROOT
HETATM    1  C   UNK N   1      37.726  13.637   8.295  0.00  0.00     0.020 C 
HETATM    2  C   UNK N   1      37.557  13.921   9.793  0.00  0.00     0.011 C 
HETATM    3  C   UNK N   1      36.422  14.000   7.573  0.00  0.00     0.126 C 
HETATM    4  C   UNK N   1      35.474  12.536   9.365  0.00  0.00     0.134 C 
HETATM    5  C   UNK N   1      36.397  13.121  10.441  0.00  0.00     0.037 C 
HETATM    6  N   UNK N   1      35.274  13.492   8.299  0.00  0.00    -0.347 N 
ENDROOT
BRANCH   5   7
HETATM    7  C   UNK N   1      35.620  14.026  11.439  0.00  0.00     0.160 C 
BRANCH   7   8
HETATM    8  C   UNK N   1      35.623  13.551  12.883  0.00  0.00    -0.027 A 
HETATM    9  C   UNK N   1      36.393  14.174  13.882  0.00  0.00     0.010 A 
HETATM   10  C   UNK N   1      36.360  13.708  15.198  0.00  0.00     0.002 A 
HETATM   11  C   UNK N   1      35.545  12.626  15.536  0.00  0.00     0.024 A 
HETATM   12  C   UNK N   1      34.768  12.004  14.556  0.00  0.00     0.034 A 
HETATM   13  C   UNK N   1      34.811  12.462  13.236  0.00  0.00     0.033 A 
HETATM   14 Cl   UNK N   1      33.727  10.665  14.983  0.00  0.00    -0.084 Cl
ENDBRANCH   7   8
BRANCH   7  15
HETATM   15  O   UNK N   1      36.212  15.312  11.431  0.00  0.00    -0.379 OA
BRANCH  15  16
HETATM   16  C   UNK N   1      35.224  16.301  11.278  0.00  0.00     0.188 C 
BRANCH  16  17
HETATM   17  C   UNK N   1      35.211  16.854   9.853  0.00  0.00     0.150 C 
BRANCH  17  18
HETATM   18  N   UNK N   1      33.882  17.222   9.403  0.00  0.00    -0.348 N 
HETATM   19  C   UNK N   1      33.644  17.798   8.270  0.00  0.00     0.257 C 
ATOM     20  HN  UNK N   1      33.092  17.014  10.013  1.00  0.00     0.163 HD
BRANCH  19  21
HETATM   21  O   UNK N   1      34.656  18.119   7.438  0.00  0.00    -0.327 OA
HETATM   22  H   UNK N   1      35.451  17.623   7.449  0.00  0.00     0.221 HD
ENDBRANCH  19  21
BRANCH  19  23
HETATM   23  O   UNK N   1      32.373  18.093   7.899  0.00  0.00    -0.322 OA
HETATM   24  C   UNK N   1      31.271  17.599   8.560  0.00  0.00     0.213 C 
ENDBRANCH  19  23
ENDBRANCH  17  18
ENDBRANCH  16  17
ENDBRANCH  15  16
ENDBRANCH   7  15
ENDBRANCH   5   7
BRANCH   6  25
HETATM   25  C   UNK N   1      33.969  13.974   8.018  0.00  0.00     0.214 C 
HETATM   26  N   UNK N   1      33.628  14.222   6.801  0.00  0.00    -0.354 N 
ATOM     27  HN  UNK N   1      34.302  14.064   6.052  1.00  0.00     0.163 HD
BRANCH  26  28
HETATM   28  C   UNK N   1      32.319  14.716   6.473  0.00  0.00     0.147 C 
BRANCH  28  29
HETATM   29  C   UNK N   1      32.391  15.691   5.300  0.00  0.00     0.094 C 
BRANCH  29  30
HETATM   30  C   UNK N   1      31.221  15.399   4.350  0.00  0.00     0.033 C 
BRANCH  30  31
HETATM   31  C   UNK N   1      29.910  16.116   4.715  0.00  0.00     0.011 C 
HETATM   32  C   UNK N   1      30.074  17.634   4.908  0.00  0.00     0.009 C 
HETATM   33  C   UNK N   1      28.720  18.339   5.043  0.00  0.00     0.027 C 
HETATM   34  C   UNK N   1      27.648  17.648   4.190  0.00  0.00     0.167 C 
HETATM   35  O   UNK N   1      28.249  16.967   3.117  0.00  0.00    -0.391 OA
HETATM   36  C   UNK N   1      28.830  15.803   3.658  0.00  0.00     0.172 C 
ENDBRANCH  30  31
ENDBRANCH  29  30
BRANCH  29  37
HETATM   37  N   UNK N   1      33.684  15.599   4.611  0.00  0.00    -0.420 N 
HETATM   38  C   UNK N   1      33.519  15.311   3.189  0.00  0.00     0.140 C 
HETATM   39  H   UNK N   1      34.587  15.720   5.069  0.00  0.00     0.153 HD
ENDBRANCH  29  37
ENDBRANCH  28  29
ENDBRANCH  26  28
BRANCH  25  40
HETATM   40  O   UNK N   1      33.085  14.151   9.026  0.00  0.00    -0.333 OA
HETATM   41  H   UNK N   1      32.868  13.837   9.882  0.00  0.00     0.220 HD
ENDBRANCH  25  40
ENDBRANCH   6  25
TORSDOF 15
ENDMDL
MODEL 3
REMARK VINA RESULT:      -6.7      3.954      8.853
REMARK  15 active torsions:
REMARK  status: ('A' for Active; 'I' for Inactive)
REMARK    1  A    between atoms: C_13  and  C_10 
REMARK    2  A    between atoms: N_29  and  C_10 
REMARK    3  A    between atoms: O_38  and  C_13 
REMARK    4  A    between atoms: C_19  and  C_14 
REMARK    5  A    between atoms: C_23  and  C_14 
REMARK    6  A    between atoms: C_23  and  C_16 
REMARK    7  A    between atoms: N_31  and  C_16 
REMARK    8  A    between atoms: C_24  and  C_20 
REMARK    9  A    between atoms: C_21  and  C_24 
REMARK   10  A    between atoms: C_23  and  N_28 
REMARK   11  A    between atoms: C_24  and  O_38 
REMARK   12  A    between atoms: N_33  and  C_25 
REMARK   13  A    between atoms: O_34  and  C_25 
REMARK   14  A    between atoms: O_35  and  C_26 
REMARK   15  A    between atoms: O_36  and  C_26 
ROOT
HETATM    1  C   UNK N   1      27.143  15.800   2.696  0.00  0.00     0.020 C 
HETATM    2  C   UNK N   1      28.059  16.744   3.487  0.00  0.00     0.011 C 
HETATM    3  C   UNK N   1      25.692  16.044   3.126  0.00  0.00     0.126 C 
HETATM    4  C   UNK N   1      26.715  15.732   5.386  0.00  0.00     0.134 C 
HETATM    5  C   UNK N   1      27.961  16.548   5.022  0.00  0.00     0.037 C 
HETATM    6  N   UNK N   1      25.592  16.135   4.571  0.00  0.00    -0.347 N 
ENDROOT
BRANCH   5   7
HETATM    7  C   UNK N   1      27.977  17.929   5.737  0.00  0.00     0.160 C 
BRANCH   7   8
HETATM    8  C   UNK N   1      28.794  17.988   7.017  0.00  0.00    -0.027 A 
HETATM    9  C   UNK N   1      28.298  18.553   8.206  0.00  0.00     0.010 A 
HETATM   10  C   UNK N   1      29.082  18.581   9.361  0.00  0.00     0.002 A 
HETATM   11  C   UNK N   1      30.365  18.028   9.348  0.00  0.00     0.024 A 
HETATM   12  C   UNK N   1      30.866  17.457   8.177  0.00  0.00     0.034 A 
HETATM   13  C   UNK N   1      30.087  17.441   7.017  0.00  0.00     0.033 A 
HETATM   14 Cl   UNK N   1      32.463  16.743   8.165  0.00  0.00    -0.084 Cl
ENDBRANCH   7   8
BRANCH   7  15
HETATM   15  O   UNK N   1      28.534  18.884   4.853  0.00  0.00    -0.379 OA
BRANCH  15  16
HETATM   16  C   UNK N   1      27.804  20.085   4.912  0.00  0.00     0.188 C 
BRANCH  16  17
HETATM   17  C   UNK N   1      26.936  20.266   3.666  0.00  0.00     0.150 C 
BRANCH  17  18
HETATM   18  N   UNK N   1      25.517  20.165   3.948  0.00  0.00    -0.348 N 
HETATM   19  C   UNK N   1      24.595  20.375   3.065  0.00  0.00     0.257 C 
ATOM     20  HN  UNK N   1      25.230  19.916   4.894  1.00  0.00     0.163 HD
BRANCH  19  21
HETATM   21  O   UNK N   1      24.920  20.735   1.806  0.00  0.00    -0.327 OA
HETATM   22  H   UNK N   1      25.083  21.634   1.600  0.00  0.00     0.221 HD
ENDBRANCH  19  21
BRANCH  19  23
HETATM   23  O   UNK N   1      23.285  20.239   3.390  0.00  0.00    -0.322 OA
HETATM   24  C   UNK N   1      22.269  20.769   2.628  0.00  0.00     0.213 C 
ENDBRANCH  19  23
ENDBRANCH  17  18
ENDBRANCH  16  17
ENDBRANCH  15  16
ENDBRANCH   7  15
ENDBRANCH   5   7
BRANCH   6  25
HETATM   25  C   UNK N   1      24.433  16.678   5.183  0.00  0.00     0.214 C 
HETATM   26  N   UNK N   1      23.479  15.895   5.552  0.00  0.00    -0.354 N 
ATOM     27  HN  UNK N   1      23.572  14.891   5.402  1.00  0.00     0.163 HD
BRANCH  26  28
HETATM   28  C   UNK N   1      22.286  16.404   6.170  0.00  0.00     0.147 C 
BRANCH  28  29
HETATM   29  C   UNK N   1      21.086  16.240   5.240  0.00  0.00     0.094 C 
BRANCH  29  30
HETATM   30  C   UNK N   1      20.983  17.487   4.351  0.00  0.00     0.033 C 
BRANCH  30  31
HETATM   31  C   UNK N   1      21.102  17.206   2.843  0.00  0.00     0.011 C 
HETATM   32  C   UNK N   1      20.947  15.718   2.483  0.00  0.00     0.009 C 
HETATM   33  C   UNK N   1      20.843  15.508   0.968  0.00  0.00     0.027 C 
HETATM   34  C   UNK N   1      20.117  16.680   0.295  0.00  0.00     0.167 C 
HETATM   35  O   UNK N   1      19.264  17.313   1.216  0.00  0.00    -0.391 OA
HETATM   36  C   UNK N   1      20.090  18.074   2.067  0.00  0.00     0.172 C 
ENDBRANCH  30  31
ENDBRANCH  29  30
BRANCH  29  37
HETATM   37  N   UNK N   1      19.852  16.014   6.001  0.00  0.00    -0.420 N 
HETATM   38  C   UNK N   1      18.900  15.196   5.255  0.00  0.00     0.140 C 
HETATM   39  H   UNK N   1      19.679  16.384   6.936  0.00  0.00     0.153 HD
ENDBRANCH  29  37
ENDBRANCH  28  29
ENDBRANCH  26  28
BRANCH  25  40
HETATM   40  O   UNK N   1      24.345  18.011   5.393  0.00  0.00    -0.333 OA
HETATM   41  H   UNK N   1      23.721  18.700   5.510  0.00  0.00     0.220 HD
ENDBRANCH  25  40
ENDBRANCH   6  25
TORSDOF 15
ENDMDL
MODEL 4
REMARK VINA RESULT:      -6.6      3.682      6.599
REMARK  15 active torsions:
REMARK  status: ('A' for Active; 'I' for Inactive)
REMARK    1  A    between atoms: C_13  and  C_10 
REMARK    2  A    between atoms: N_29  and  C_10 
REMARK    3  A    between atoms: O_38  and  C_13 
REMARK    4  A    between atoms: C_19  and  C_14 
REMARK    5  A    between atoms: C_23  and  C_14 
REMARK    6  A    between atoms: C_23  and  C_16 
REMARK    7  A    between atoms: N_31  and  C_16 
REMARK    8  A    between atoms: C_24  and  C_20 
REMARK    9  A    between atoms: C_21  and  C_24 
REMARK   10  A    between atoms: C_23  and  N_28 
REMARK   11  A    between atoms: C_24  and  O_38 
REMARK   12  A    between atoms: N_33  and  C_25 
REMARK   13  A    between atoms: O_34  and  C_25 
REMARK   14  A    between atoms: O_35  and  C_26 
REMARK   15  A    between atoms: O_36  and  C_26 
ROOT
HETATM    1  C   UNK N   1      20.810  16.997   6.195  0.00  0.00     0.020 C 
HETATM    2  C   UNK N   1      20.286  16.704   4.783  0.00  0.00     0.011 C 
HETATM    3  C   UNK N   1      22.302  17.342   6.107  0.00  0.00     0.126 C 
HETATM    4  C   UNK N   1      22.327  15.197   4.822  0.00  0.00     0.134 C 
HETATM    5  C   UNK N   1      21.022  15.530   4.088  0.00  0.00     0.037 C 
HETATM    6  N   UNK N   1      22.994  16.410   5.238  0.00  0.00    -0.347 N 
ENDROOT
BRANCH   5   7
HETATM    7  C   UNK N   1      21.272  15.869   2.591  0.00  0.00     0.160 C 
BRANCH   7   8
HETATM    8  C   UNK N   1      21.734  14.705   1.729  0.00  0.00    -0.027 A 
HETATM    9  C   UNK N   1      23.023  14.644   1.170  0.00  0.00     0.010 A 
HETATM   10  C   UNK N   1      23.407  13.551   0.389  0.00  0.00     0.002 A 
HETATM   11  C   UNK N   1      22.515  12.499   0.172  0.00  0.00     0.024 A 
HETATM   12  C   UNK N   1      21.235  12.544   0.729  0.00  0.00     0.034 A 
HETATM   13  C   UNK N   1      20.846  13.643   1.499  0.00  0.00     0.033 A 
HETATM   14 Cl   UNK N   1      20.124  11.216   0.479  0.00  0.00    -0.084 Cl
ENDBRANCH   7   8
BRANCH   7  15
HETATM   15  O   UNK N   1      20.059  16.336   2.030  0.00  0.00    -0.379 OA
BRANCH  15  16
HETATM   16  C   UNK N   1      20.300  17.452   1.209  0.00  0.00     0.188 C 
BRANCH  16  17
HETATM   17  C   UNK N   1      19.778  18.736   1.854  0.00  0.00     0.150 C 
BRANCH  17  18
HETATM   18  N   UNK N   1      20.811  19.477   2.552  0.00  0.00    -0.348 N 
HETATM   19  C   UNK N   1      21.534  20.395   1.996  0.00  0.00     0.257 C 
ATOM     20  HN  UNK N   1      20.976  19.263   3.535  1.00  0.00     0.163 HD
BRANCH  19  21
HETATM   21  O   UNK N   1      21.374  20.696   0.691  0.00  0.00    -0.327 OA
HETATM   22  H   UNK N   1      20.838  20.156   0.144  0.00  0.00     0.221 HD
ENDBRANCH  19  21
BRANCH  19  23
HETATM   23  O   UNK N   1      22.467  21.067   2.714  0.00  0.00    -0.322 OA
HETATM   24  C   UNK N   1      23.748  20.598   2.897  0.00  0.00     0.213 C 
ENDBRANCH  19  23
ENDBRANCH  17  18
ENDBRANCH  16  17
ENDBRANCH  15  16
ENDBRANCH   7  15
ENDBRANCH   5   7
BRANCH   6  25
HETATM   25  C   UNK N   1      24.289  16.710   4.741  0.00  0.00     0.214 C 
HETATM   26  N   UNK N   1      24.815  17.861   4.982  0.00  0.00    -0.354 N 
ATOM     27  HN  UNK N   1      24.292  18.543   5.533  1.00  0.00     0.163 HD
BRANCH  26  28
HETATM   28  C   UNK N   1      26.121  18.208   4.494  0.00  0.00     0.147 C 
BRANCH  28  29
HETATM   29  C   UNK N   1      26.920  18.942   5.568  0.00  0.00     0.094 C 
BRANCH  29  30
HETATM   30  C   UNK N   1      27.476  17.908   6.556  0.00  0.00     0.033 C 
BRANCH  30  31
HETATM   31  C   UNK N   1      28.756  18.350   7.287  0.00  0.00     0.011 C 
HETATM   32  C   UNK N   1      28.579  18.477   8.810  0.00  0.00     0.009 C 
HETATM   33  C   UNK N   1      29.920  18.693   9.521  0.00  0.00     0.027 C 
HETATM   34  C   UNK N   1      31.054  17.951   8.803  0.00  0.00     0.167 C 
HETATM   35  O   UNK N   1      30.537  16.857   8.086  0.00  0.00    -0.391 OA
HETATM   36  C   UNK N   1      29.915  17.391   6.940  0.00  0.00     0.172 C 
ENDBRANCH  30  31
ENDBRANCH  29  30
BRANCH  29  37
HETATM   37  N   UNK N   1      26.095  19.950   6.247  0.00  0.00    -0.420 N 
HETATM   38  C   UNK N   1      26.703  21.276   6.183  0.00  0.00     0.140 C 
HETATM   39  H   UNK N   1      25.207  19.748   6.707  0.00  0.00     0.153 HD
ENDBRANCH  29  37
ENDBRANCH  28  29
ENDBRANCH  26  28
BRANCH  25  40
HETATM   40  O   UNK N   1      24.972  15.780   4.036  0.00  0.00    -0.333 OA
HETATM   41  H   UNK N   1      25.070  15.435   3.170  0.00  0.00     0.220 HD
ENDBRANCH  25  40
ENDBRANCH   6  25
TORSDOF 15
ENDMDL
MODEL 5
REMARK VINA RESULT:      -6.5      3.254      8.424
REMARK  15 active torsions:
REMARK  status: ('A' for Active; 'I' for Inactive)
REMARK    1  A    between atoms: C_13  and  C_10 
REMARK    2  A    between atoms: N_29  and  C_10 
REMARK    3  A    between atoms: O_38  and  C_13 
REMARK    4  A    between atoms: C_19  and  C_14 
REMARK    5  A    between atoms: C_23  and  C_14 
REMARK    6  A    between atoms: C_23  and  C_16 
REMARK    7  A    between atoms: N_31  and  C_16 
REMARK    8  A    between atoms: C_24  and  C_20 
REMARK    9  A    between atoms: C_21  and  C_24 
REMARK   10  A    between atoms: C_23  and  N_28 
REMARK   11  A    between atoms: C_24  and  O_38 
REMARK   12  A    between atoms: N_33  and  C_25 
REMARK   13  A    between atoms: O_34  and  C_25 
REMARK   14  A    between atoms: O_35  and  C_26 
REMARK   15  A    between atoms: O_36  and  C_26 
ROOT
HETATM    1  C   UNK N   1      27.037  15.419   2.569  0.00  0.00     0.020 C 
HETATM    2  C   UNK N   1      28.191  16.248   3.148  0.00  0.00     0.011 C 
HETATM    3  C   UNK N   1      26.019  15.143   3.683  0.00  0.00     0.126 C 
HETATM    4  C   UNK N   1      28.090  14.373   4.854  0.00  0.00     0.134 C 
HETATM    5  C   UNK N   1      28.923  15.544   4.320  0.00  0.00     0.037 C 
HETATM    6  N   UNK N   1      26.690  14.730   4.901  0.00  0.00    -0.347 N 
ENDROOT
BRANCH   5   7
HETATM    7  C   UNK N   1      29.255  16.574   5.437  0.00  0.00     0.160 C 
BRANCH   7   8
HETATM    8  C   UNK N   1      30.727  16.921   5.584  0.00  0.00    -0.027 A 
HETATM    9  C   UNK N   1      31.557  17.179   4.478  0.00  0.00     0.010 A 
HETATM   10  C   UNK N   1      32.904  17.500   4.660  0.00  0.00     0.002 A 
HETATM   11  C   UNK N   1      33.434  17.586   5.950  0.00  0.00     0.024 A 
HETATM   12  C   UNK N   1      32.618  17.342   7.056  0.00  0.00     0.034 A 
HETATM   13  C   UNK N   1      31.274  17.007   6.874  0.00  0.00     0.033 A 
HETATM   14 Cl   UNK N   1      33.274  17.473   8.673  0.00  0.00    -0.084 Cl
ENDBRANCH   7   8
BRANCH   7  15
HETATM   15  O   UNK N   1      28.578  17.783   5.145  0.00  0.00    -0.379 OA
BRANCH  15  16
HETATM   16  C   UNK N   1      28.047  18.339   6.322  0.00  0.00     0.188 C 
BRANCH  16  17
HETATM   17  C   UNK N   1      27.299  19.641   6.031  0.00  0.00     0.150 C 
BRANCH  17  18
HETATM   18  N   UNK N   1      25.876  19.441   5.833  0.00  0.00    -0.348 N 
HETATM   19  C   UNK N   1      25.348  19.141   4.691  0.00  0.00     0.257 C 
ATOM     20  HN  UNK N   1      25.258  19.543   6.637  1.00  0.00     0.163 HD
BRANCH  19  21
HETATM   21  O   UNK N   1      26.118  19.022   3.589  0.00  0.00    -0.327 OA
HETATM   22  H   UNK N   1      26.471  18.189   3.349  0.00  0.00     0.221 HD
ENDBRANCH  19  21
BRANCH  19  23
HETATM   23  O   UNK N   1      24.011  18.944   4.580  0.00  0.00    -0.322 OA
HETATM   24  C   UNK N   1      23.434  17.695   4.643  0.00  0.00     0.213 C 
ENDBRANCH  19  23
ENDBRANCH  17  18
ENDBRANCH  16  17
ENDBRANCH  15  16
ENDBRANCH   7  15
ENDBRANCH   5   7
BRANCH   6  25
HETATM   25  C   UNK N   1      26.004  14.740   6.143  0.00  0.00     0.214 C 
HETATM   26  N   UNK N   1      25.711  13.626   6.721  0.00  0.00    -0.354 N 
ATOM     27  HN  UNK N   1      25.981  12.748   6.276  1.00  0.00     0.163 HD
BRANCH  26  28
HETATM   28  C   UNK N   1      25.013  13.591   7.975  0.00  0.00     0.147 C 
BRANCH  28  29
HETATM   29  C   UNK N   1      24.119  12.356   8.059  0.00  0.00     0.094 C 
BRANCH  29  30
HETATM   30  C   UNK N   1      22.706  12.742   7.599  0.00  0.00     0.033 C 
BRANCH  30  31
HETATM   31  C   UNK N   1      22.240  14.129   8.072  0.00  0.00     0.011 C 
HETATM   32  C   UNK N   1      21.843  15.069   6.921  0.00  0.00     0.009 C 
HETATM   33  C   UNK N   1      21.172  16.348   7.436  0.00  0.00     0.027 C 
HETATM   34  C   UNK N   1      20.348  16.070   8.701  0.00  0.00     0.167 C 
HETATM   35  O   UNK N   1      19.948  14.723   8.730  0.00  0.00    -0.391 OA
HETATM   36  C   UNK N   1      21.088  13.976   9.088  0.00  0.00     0.172 C 
ENDBRANCH  30  31
ENDBRANCH  29  30
BRANCH  29  37
HETATM   37  N   UNK N   1      24.112  11.797   9.416  0.00  0.00    -0.420 N 
HETATM   38  C   UNK N   1      24.796  12.673  10.364  0.00  0.00     0.140 C 
HETATM   39  H   UNK N   1      23.683  10.906   9.667  0.00  0.00     0.153 HD
ENDBRANCH  29  37
ENDBRANCH  28  29
ENDBRANCH  26  28
BRANCH  25  40
HETATM   40  O   UNK N   1      25.680  15.918   6.724  0.00  0.00    -0.333 OA
HETATM   41  H   UNK N   1      25.251  16.277   7.475  0.00  0.00     0.220 HD
ENDBRANCH  25  40
ENDBRANCH   6  25
TORSDOF 15
ENDMDL
MODEL 6
REMARK VINA RESULT:      -6.5      3.436      8.898
REMARK  15 active torsions:
REMARK  status: ('A' for Active; 'I' for Inactive)
REMARK    1  A    between atoms: C_13  and  C_10 
REMARK    2  A    between atoms: N_29  and  C_10 
REMARK    3  A    between atoms: O_38  and  C_13 
REMARK    4  A    between atoms: C_19  and  C_14 
REMARK    5  A    between atoms: C_23  and  C_14 
REMARK    6  A    between atoms: C_23  and  C_16 
REMARK    7  A    between atoms: N_31  and  C_16 
REMARK    8  A    between atoms: C_24  and  C_20 
REMARK    9  A    between atoms: C_21  and  C_24 
REMARK   10  A    between atoms: C_23  and  N_28 
REMARK   11  A    between atoms: C_24  and  O_38 
REMARK   12  A    between atoms: N_33  and  C_25 
REMARK   13  A    between atoms: O_34  and  C_25 
REMARK   14  A    between atoms: O_35  and  C_26 
REMARK   15  A    between atoms: O_36  and  C_26 
ROOT
HETATM    1  C   UNK N   1      26.887  19.878   4.129  0.00  0.00     0.020 C 
HETATM    2  C   UNK N   1      28.230  19.387   4.686  0.00  0.00     0.011 C 
HETATM    3  C   UNK N   1      25.769  18.975   4.665  0.00  0.00     0.126 C 
HETATM    4  C   UNK N   1      27.300  17.208   3.777  0.00  0.00     0.134 C 
HETATM    5  C   UNK N   1      28.553  17.921   4.298  0.00  0.00     0.037 C 
HETATM    6  N   UNK N   1      26.146  17.578   4.566  0.00  0.00    -0.347 N 
ENDROOT
BRANCH   5   7
HETATM    7  C   UNK N   1      29.181  17.176   5.510  0.00  0.00     0.160 C 
BRANCH   7   8
HETATM    8  C   UNK N   1      30.635  16.767   5.340  0.00  0.00    -0.027 A 
HETATM    9  C   UNK N   1      31.598  17.620   4.770  0.00  0.00     0.010 A 
HETATM   10  C   UNK N   1      32.925  17.205   4.638  0.00  0.00     0.002 A 
HETATM   11  C   UNK N   1      33.310  15.941   5.091  0.00  0.00     0.024 A 
HETATM   12  C   UNK N   1      32.366  15.089   5.666  0.00  0.00     0.034 A 
HETATM   13  C   UNK N   1      31.035  15.498   5.785  0.00  0.00     0.033 A 
HETATM   14 Cl   UNK N   1      32.852  13.515   6.256  0.00  0.00    -0.084 Cl
ENDBRANCH   7   8
BRANCH   7  15
HETATM   15  O   UNK N   1      29.127  18.031   6.637  0.00  0.00    -0.379 OA
BRANCH  15  16
HETATM   16  C   UNK N   1      28.717  17.312   7.774  0.00  0.00     0.188 C 
BRANCH  16  17
HETATM   17  C   UNK N   1      29.696  17.503   8.932  0.00  0.00     0.150 C 
BRANCH  17  18
HETATM   18  N   UNK N   1      30.885  18.239   8.550  0.00  0.00    -0.348 N 
HETATM   19  C   UNK N   1      32.076  17.735   8.570  0.00  0.00     0.257 C 
ATOM     20  HN  UNK N   1      30.777  19.208   8.250  1.00  0.00     0.163 HD
BRANCH  19  21
HETATM   21  O   UNK N   1      32.278  16.468   8.986  0.00  0.00    -0.327 OA
HETATM   22  H   UNK N   1      33.111  16.059   8.864  0.00  0.00     0.221 HD
ENDBRANCH  19  21
BRANCH  19  23
HETATM   23  O   UNK N   1      33.144  18.473   8.175  0.00  0.00    -0.322 OA
HETATM   24  C   UNK N   1      34.413  17.950   8.069  0.00  0.00     0.213 C 
ENDBRANCH  19  23
ENDBRANCH  17  18
ENDBRANCH  16  17
ENDBRANCH  15  16
ENDBRANCH   7  15
ENDBRANCH   5   7
BRANCH   6  25
HETATM   25  C   UNK N   1      25.435  16.585   5.288  0.00  0.00     0.214 C 
HETATM   26  N   UNK N   1      24.201  16.782   5.601  0.00  0.00    -0.354 N 
ATOM     27  HN  UNK N   1      23.749  17.653   5.321  1.00  0.00     0.163 HD
BRANCH  26  28
HETATM   28  C   UNK N   1      23.446  15.806   6.336  0.00  0.00     0.147 C 
BRANCH  28  29
HETATM   29  C   UNK N   1      21.967  16.183   6.370  0.00  0.00     0.094 C 
BRANCH  29  30
HETATM   30  C   UNK N   1      21.832  17.665   5.993  0.00  0.00     0.033 C 
BRANCH  30  31
HETATM   31  C   UNK N   1      20.846  17.942   4.845  0.00  0.00     0.011 C 
HETATM   32  C   UNK N   1      21.148  19.242   4.078  0.00  0.00     0.009 C 
HETATM   33  C   UNK N   1      20.294  19.365   2.811  0.00  0.00     0.027 C 
HETATM   34  C   UNK N   1      20.029  17.989   2.186  0.00  0.00     0.167 C 
HETATM   35  O   UNK N   1      21.046  17.089   2.549  0.00  0.00    -0.391 OA
HETATM   36  C   UNK N   1      20.802  16.731   3.889  0.00  0.00     0.172 C 
ENDBRANCH  30  31
ENDBRANCH  29  30
BRANCH  29  37
HETATM   37  N   UNK N   1      21.378  15.903   7.685  0.00  0.00    -0.420 N 
HETATM   38  C   UNK N   1      21.522  14.497   8.052  0.00  0.00     0.140 C 
HETATM   39  H   UNK N   1      20.924  16.604   8.271  0.00  0.00     0.153 HD
ENDBRANCH  29  37
ENDBRANCH  28  29
ENDBRANCH  26  28
BRANCH  25  40
HETATM   40  O   UNK N   1      26.050  15.428   5.625  0.00  0.00    -0.333 OA
HETATM   41  H   UNK N   1      26.485  15.004   6.338  0.00  0.00     0.220 HD
ENDBRANCH  25  40
ENDBRANCH   6  25
TORSDOF 15
ENDMDL
MODEL 7
REMARK VINA RESULT:      -6.4      8.151     12.047
REMARK  15 active torsions:
REMARK  status: ('A' for Active; 'I' for Inactive)
REMARK    1  A    between atoms: C_13  and  C_10 
REMARK    2  A    between atoms: N_29  and  C_10 
REMARK    3  A    between atoms: O_38  and  C_13 
REMARK    4  A    between atoms: C_19  and  C_14 
REMARK    5  A    between atoms: C_23  and  C_14 
REMARK    6  A    between atoms: C_23  and  C_16 
REMARK    7  A    between atoms: N_31  and  C_16 
REMARK    8  A    between atoms: C_24  and  C_20 
REMARK    9  A    between atoms: C_21  and  C_24 
REMARK   10  A    between atoms: C_23  and  N_28 
REMARK   11  A    between atoms: C_24  and  O_38 
REMARK   12  A    between atoms: N_33  and  C_25 
REMARK   13  A    between atoms: O_34  and  C_25 
REMARK   14  A    between atoms: O_35  and  C_26 
REMARK   15  A    between atoms: O_36  and  C_26 
ROOT
HETATM    1  C   UNK N   1      37.651  13.313   8.822  0.00  0.00     0.020 C 
HETATM    2  C   UNK N   1      37.494  13.607  10.320  0.00  0.00     0.011 C 
HETATM    3  C   UNK N   1      36.332  13.641   8.112  0.00  0.00     0.126 C 
HETATM    4  C   UNK N   1      35.436  12.174   9.928  0.00  0.00     0.134 C 
HETATM    5  C   UNK N   1      36.358  12.789  10.988  0.00  0.00     0.037 C 
HETATM    6  N   UNK N   1      35.203  13.116   8.856  0.00  0.00    -0.347 N 
ENDROOT
BRANCH   5   7
HETATM    7  C   UNK N   1      35.573  13.686  11.987  0.00  0.00     0.160 C 
BRANCH   7   8
HETATM    8  C   UNK N   1      35.712  13.302  13.451  0.00  0.00    -0.027 A 
HETATM    9  C   UNK N   1      36.452  14.072  14.367  0.00  0.00     0.010 A 
HETATM   10  C   UNK N   1      36.548  13.685  15.706  0.00  0.00     0.002 A 
HETATM   11  C   UNK N   1      35.891  12.536  16.149  0.00  0.00     0.024 A 
HETATM   12  C   UNK N   1      35.146  11.767  15.252  0.00  0.00     0.034 A 
HETATM   13  C   UNK N   1      35.062  12.147  13.910  0.00  0.00     0.033 A 
HETATM   14 Cl   UNK N   1      34.303  10.340  15.811  0.00  0.00    -0.084 Cl
ENDBRANCH   7   8
BRANCH   7  15
HETATM   15  O   UNK N   1      36.050  15.014  11.866  0.00  0.00    -0.379 OA
BRANCH  15  16
HETATM   16  C   UNK N   1      35.006  15.872  11.479  0.00  0.00     0.188 C 
BRANCH  16  17
HETATM   17  C   UNK N   1      35.346  16.608  10.183  0.00  0.00     0.150 C 
BRANCH  17  18
HETATM   18  N   UNK N   1      34.218  17.338   9.636  0.00  0.00    -0.348 N 
HETATM   19  C   UNK N   1      34.009  17.488   8.369  0.00  0.00     0.257 C 
ATOM     20  HN  UNK N   1      33.553  17.755  10.287  1.00  0.00     0.163 HD
BRANCH  19  21
HETATM   21  O   UNK N   1      34.874  16.979   7.466  0.00  0.00    -0.327 OA
HETATM   22  H   UNK N   1      34.689  17.039   6.550  0.00  0.00     0.221 HD
ENDBRANCH  19  21
BRANCH  19  23
HETATM   23  O   UNK N   1      32.920  18.162   7.924  0.00  0.00    -0.322 OA
HETATM   24  C   UNK N   1      31.657  17.954   8.431  0.00  0.00     0.213 C 
ENDBRANCH  19  23
ENDBRANCH  17  18
ENDBRANCH  16  17
ENDBRANCH  15  16
ENDBRANCH   7  15
ENDBRANCH   5   7
BRANCH   6  25
HETATM   25  C   UNK N   1      33.886  13.567   8.586  0.00  0.00     0.214 C 
HETATM   26  N   UNK N   1      33.612  14.091   7.441  0.00  0.00    -0.354 N 
ATOM     27  HN  UNK N   1      34.349  14.172   6.740  1.00  0.00     0.163 HD
BRANCH  26  28
HETATM   28  C   UNK N   1      32.293  14.566   7.128  0.00  0.00     0.147 C 
BRANCH  28  29
HETATM   29  C   UNK N   1      32.173  14.881   5.639  0.00  0.00     0.094 C 
BRANCH  29  30
HETATM   30  C   UNK N   1      32.668  13.666   4.841  0.00  0.00     0.033 C 
BRANCH  30  31
HETATM   31  C   UNK N   1      33.682  14.002   3.734  0.00  0.00     0.011 C 
HETATM   32  C   UNK N   1      35.009  13.234   3.865  0.00  0.00     0.009 C 
HETATM   33  C   UNK N   1      35.897  13.419   2.629  0.00  0.00     0.027 C 
HETATM   34  C   UNK N   1      35.052  13.552   1.356  0.00  0.00     0.167 C 
HETATM   35  O   UNK N   1      33.809  12.919   1.532  0.00  0.00    -0.391 OA
HETATM   36  C   UNK N   1      33.041  13.772   2.349  0.00  0.00     0.172 C 
ENDBRANCH  30  31
ENDBRANCH  29  30
BRANCH  29  37
HETATM   37  N   UNK N   1      32.919  16.097   5.292  0.00  0.00    -0.420 N 
HETATM   38  C   UNK N   1      32.044  17.129   4.744  0.00  0.00     0.140 C 
HETATM   39  H   UNK N   1      33.926  16.207   5.418  0.00  0.00     0.153 HD
ENDBRANCH  29  37
ENDBRANCH  28  29
ENDBRANCH  26  28
BRANCH  25  40
HETATM   40  O   UNK N   1      32.920  13.427   9.522  0.00  0.00    -0.333 OA
HETATM   41  H   UNK N   1      32.376  12.783   9.930  0.00  0.00     0.220 HD
ENDBRANCH  25  40
ENDBRANCH   6  25
TORSDOF 15
ENDMDL
MODEL 8
REMARK VINA RESULT:      -6.4      3.491      8.482
REMARK  15 active torsions:
REMARK  status: ('A' for Active; 'I' for Inactive)
REMARK    1  A    between atoms: C_13  and  C_10 
REMARK    2  A    between atoms: N_29  and  C_10 
REMARK    3  A    between atoms: O_38  and  C_13 
REMARK    4  A    between atoms: C_19  and  C_14 
REMARK    5  A    between atoms: C_23  and  C_14 
REMARK    6  A    between atoms: C_23  and  C_16 
REMARK    7  A    between atoms: N_31  and  C_16 
REMARK    8  A    between atoms: C_24  and  C_20 
REMARK    9  A    between atoms: C_21  and  C_24 
REMARK   10  A    between atoms: C_23  and  N_28 
REMARK   11  A    between atoms: C_24  and  O_38 
REMARK   12  A    between atoms: N_33  and  C_25 
REMARK   13  A    between atoms: O_34  and  C_25 
REMARK   14  A    between atoms: O_35  and  C_26 
REMARK   15  A    between atoms: O_36  and  C_26 
ROOT
HETATM    1  C   UNK N   1      26.506  20.855   5.000  0.00  0.00     0.020 C 
HETATM    2  C   UNK N   1      27.672  20.158   5.713  0.00  0.00     0.011 C 
HETATM    3  C   UNK N   1      25.306  19.901   4.966  0.00  0.00     0.126 C 
HETATM    4  C   UNK N   1      27.044  18.366   4.030  0.00  0.00     0.134 C 
HETATM    5  C   UNK N   1      28.111  18.840   5.024  0.00  0.00     0.037 C 
HETATM    6  N   UNK N   1      25.722  18.566   4.577  0.00  0.00    -0.347 N 
ENDROOT
BRANCH   5   7
HETATM    7  C   UNK N   1      28.424  17.758   6.096  0.00  0.00     0.160 C 
BRANCH   7   8
HETATM    8  C   UNK N   1      29.539  16.790   5.736  0.00  0.00    -0.027 A 
HETATM    9  C   UNK N   1      29.359  15.395   5.739  0.00  0.00     0.010 A 
HETATM   10  C   UNK N   1      30.411  14.542   5.395  0.00  0.00     0.002 A 
HETATM   11  C   UNK N   1      31.649  15.074   5.027  0.00  0.00     0.024 A 
HETATM   12  C   UNK N   1      31.838  16.457   5.012  0.00  0.00     0.034 A 
HETATM   13  C   UNK N   1      30.790  17.309   5.369  0.00  0.00     0.033 A 
HETATM   14 Cl   UNK N   1      33.381  17.125   4.527  0.00  0.00    -0.084 Cl
ENDBRANCH   7   8
BRANCH   7  15
HETATM   15  O   UNK N   1      28.820  18.411   7.289  0.00  0.00    -0.379 OA
BRANCH  15  16
HETATM   16  C   UNK N   1      28.507  17.616   8.405  0.00  0.00     0.188 C 
BRANCH  16  17
HETATM   17  C   UNK N   1      29.537  17.798   9.520  0.00  0.00     0.150 C 
BRANCH  17  18
HETATM   18  N   UNK N   1      30.806  18.309   9.038  0.00  0.00    -0.348 N 
HETATM   19  C   UNK N   1      31.776  17.554   8.635  0.00  0.00     0.257 C 
ATOM     20  HN  UNK N   1      30.941  19.320   9.015  1.00  0.00     0.163 HD
BRANCH  19  21
HETATM   21  O   UNK N   1      31.659  16.210   8.671  0.00  0.00    -0.327 OA
HETATM   22  H   UNK N   1      30.845  15.802   8.450  0.00  0.00     0.221 HD
ENDBRANCH  19  21
BRANCH  19  23
HETATM   23  O   UNK N   1      32.928  18.099   8.172  0.00  0.00    -0.322 OA
HETATM   24  C   UNK N   1      34.172  17.674   8.582  0.00  0.00     0.213 C 
ENDBRANCH  19  23
ENDBRANCH  17  18
ENDBRANCH  16  17
ENDBRANCH  15  16
ENDBRANCH   7  15
ENDBRANCH   5   7
BRANCH   6  25
HETATM   25  C   UNK N   1      24.869  17.453   4.792  0.00  0.00     0.214 C 
HETATM   26  N   UNK N   1      23.884  17.551   5.616  0.00  0.00    -0.354 N 
ATOM     27  HN  UNK N   1      23.727  18.434   6.103  1.00  0.00     0.163 HD
BRANCH  26  28
HETATM   28  C   UNK N   1      23.000  16.447   5.867  0.00  0.00     0.147 C 
BRANCH  28  29
HETATM   29  C   UNK N   1      21.544  16.872   5.692  0.00  0.00     0.094 C 
BRANCH  29  30
HETATM   30  C   UNK N   1      20.655  15.919   6.503  0.00  0.00     0.033 C 
BRANCH  30  31
HETATM   31  C   UNK N   1      21.429  14.932   7.394  0.00  0.00     0.011 C 
HETATM   32  C   UNK N   1      21.053  15.026   8.883  0.00  0.00     0.009 C 
HETATM   33  C   UNK N   1      21.669  13.882   9.698  0.00  0.00     0.027 C 
HETATM   34  C   UNK N   1      21.755  12.595   8.868  0.00  0.00     0.167 C 
HETATM   35  O   UNK N   1      20.780  12.607   7.855  0.00  0.00    -0.391 OA
HETATM   36  C   UNK N   1      21.246  13.494   6.864  0.00  0.00     0.172 C 
ENDBRANCH  30  31
ENDBRANCH  29  30
BRANCH  29  37
HETATM   37  N   UNK N   1      21.163  16.893   4.275  0.00  0.00    -0.420 N 
HETATM   38  C   UNK N   1      20.098  15.937   3.988  0.00  0.00     0.140 C 
HETATM   39  H   UNK N   1      21.591  17.501   3.575  0.00  0.00     0.153 HD
ENDBRANCH  29  37
ENDBRANCH  28  29
ENDBRANCH  26  28
BRANCH  25  40
HETATM   40  O   UNK N   1      25.082  16.301   4.116  0.00  0.00    -0.333 OA
HETATM   41  H   UNK N   1      25.764  15.787   3.730  0.00  0.00     0.220 HD
ENDBRANCH  25  40
ENDBRANCH   6  25
TORSDOF 15
ENDMDL
MODEL 9
REMARK VINA RESULT:      -6.4      3.091      8.132
REMARK  15 active torsions:
REMARK  status: ('A' for Active; 'I' for Inactive)
REMARK    1  A    between atoms: C_13  and  C_10 
REMARK    2  A    between atoms: N_29  and  C_10 
REMARK    3  A    between atoms: O_38  and  C_13 
REMARK    4  A    between atoms: C_19  and  C_14 
REMARK    5  A    between atoms: C_23  and  C_14 
REMARK    6  A    between atoms: C_23  and  C_16 
REMARK    7  A    between atoms: N_31  and  C_16 
REMARK    8  A    between atoms: C_24  and  C_20 
REMARK    9  A    between atoms: C_21  and  C_24 
REMARK   10  A    between atoms: C_23  and  N_28 
REMARK   11  A    between atoms: C_24  and  O_38 
REMARK   12  A    between atoms: N_33  and  C_25 
REMARK   13  A    between atoms: O_34  and  C_25 
REMARK   14  A    between atoms: O_35  and  C_26 
REMARK   15  A    between atoms: O_36  and  C_26 
ROOT
HETATM    1  C   UNK N   1      26.674  20.225   4.262  0.00  0.00     0.020 C 
HETATM    2  C   UNK N   1      28.007  19.643   4.752  0.00  0.00     0.011 C 
HETATM    3  C   UNK N   1      25.526  19.400   4.858  0.00  0.00     0.126 C 
HETATM    4  C   UNK N   1      26.885  17.532   3.900  0.00  0.00     0.134 C 
HETATM    5  C   UNK N   1      28.210  18.158   4.353  0.00  0.00     0.037 C 
HETATM    6  N   UNK N   1      25.802  17.980   4.745  0.00  0.00    -0.347 N 
ENDROOT
BRANCH   5   7
HETATM    7  C   UNK N   1      28.846  17.372   5.535  0.00  0.00     0.160 C 
BRANCH   7   8
HETATM    8  C   UNK N   1      30.282  16.924   5.318  0.00  0.00    -0.027 A 
HETATM    9  C   UNK N   1      31.235  17.728   4.667  0.00  0.00     0.010 A 
HETATM   10  C   UNK N   1      32.547  17.279   4.495  0.00  0.00     0.002 A 
HETATM   11  C   UNK N   1      32.926  16.028   4.987  0.00  0.00     0.024 A 
HETATM   12  C   UNK N   1      31.992  15.223   5.642  0.00  0.00     0.034 A 
HETATM   13  C   UNK N   1      30.677  15.667   5.803  0.00  0.00     0.033 A 
HETATM   14 Cl   UNK N   1      32.472  13.667   6.281  0.00  0.00    -0.084 Cl
ENDBRANCH   7   8
BRANCH   7  15
HETATM   15  O   UNK N   1      28.848  18.207   6.678  0.00  0.00    -0.379 OA
BRANCH  15  16
HETATM   16  C   UNK N   1      28.477  17.472   7.817  0.00  0.00     0.188 C 
BRANCH  16  17
HETATM   17  C   UNK N   1      29.435  17.733   8.980  0.00  0.00     0.150 C 
BRANCH  17  18
HETATM   18  N   UNK N   1      30.662  18.385   8.565  0.00  0.00    -0.348 N 
HETATM   19  C   UNK N   1      31.819  17.808   8.578  0.00  0.00     0.257 C 
ATOM     20  HN  UNK N   1      30.609  19.352   8.245  1.00  0.00     0.163 HD
BRANCH  19  21
HETATM   21  O   UNK N   1      31.947  16.539   9.019  0.00  0.00    -0.327 OA
HETATM   22  H   UNK N   1      32.290  15.876   8.453  0.00  0.00     0.221 HD
ENDBRANCH  19  21
BRANCH  19  23
HETATM   23  O   UNK N   1      32.924  18.469   8.152  0.00  0.00    -0.322 OA
HETATM   24  C   UNK N   1      34.122  17.837   7.907  0.00  0.00     0.213 C 
ENDBRANCH  19  23
ENDBRANCH  17  18
ENDBRANCH  16  17
ENDBRANCH  15  16
ENDBRANCH   7  15
ENDBRANCH   5   7
BRANCH   6  25
HETATM   25  C   UNK N   1      25.063  17.038   5.506  0.00  0.00     0.214 C 
HETATM   26  N   UNK N   1      25.668  16.039   6.050  0.00  0.00    -0.354 N 
ATOM     27  HN  UNK N   1      26.676  15.940   5.927  1.00  0.00     0.163 HD
BRANCH  26  28
HETATM   28  C   UNK N   1      24.957  15.059   6.823  0.00  0.00     0.147 C 
BRANCH  28  29
HETATM   29  C   UNK N   1      24.715  13.796   6.000  0.00  0.00     0.094 C 
BRANCH  29  30
HETATM   30  C   UNK N   1      23.501  13.059   6.582  0.00  0.00     0.033 C 
BRANCH  30  31
HETATM   31  C   UNK N   1      23.304  13.253   8.096  0.00  0.00     0.011 C 
HETATM   32  C   UNK N   1      21.842  13.516   8.495  0.00  0.00     0.009 C 
HETATM   33  C   UNK N   1      21.652  13.475  10.016  0.00  0.00     0.027 C 
HETATM   34  C   UNK N   1      22.596  12.454  10.664  0.00  0.00     0.167 C 
HETATM   35  O   UNK N   1      22.943  11.458   9.735  0.00  0.00    -0.391 OA
HETATM   36  C   UNK N   1      23.880  12.040   8.858  0.00  0.00     0.172 C 
ENDBRANCH  30  31
ENDBRANCH  29  30
BRANCH  29  37
HETATM   37  N   UNK N   1      25.908  12.941   5.977  0.00  0.00    -0.420 N 
HETATM   38  C   UNK N   1      26.412  12.753   4.620  0.00  0.00     0.140 C 
HETATM   39  H   UNK N   1      26.333  12.528   6.808  0.00  0.00     0.153 HD
ENDBRANCH  29  37
ENDBRANCH  28  29
ENDBRANCH  26  28
BRANCH  25  40
HETATM   40  O   UNK N   1      23.731  17.204   5.675  0.00  0.00    -0.333 OA
HETATM   41  H   UNK N   1      23.105  17.714   6.151  0.00  0.00     0.220 HD
ENDBRANCH  25  40
ENDBRANCH   6  25
TORSDOF 15
ENDMDL
