MODEL 1
REMARK VINA RESULT:      -6.7      0.000      0.000
REMARK  5 active torsions:
REMARK  status: ('A' for Active; 'I' for Inactive)
REMARK    1  A    between atoms: C_2  and  C_3 
REMARK    2  A    between atoms: C_2  and  C_17 
REMARK    3  A    between atoms: C_7  and  O_15 
REMARK    4  A    between atoms: C_9  and  O_14 
REMARK    5  A    between atoms: C_17  and  O_19 
ROOT
HETATM    1  C   UNK N   1      32.124  17.580   7.715  0.00  0.00     0.071 A 
HETATM    2  C   UNK N   1      31.330  16.901   6.796  0.00  0.00     0.046 A 
HETATM    3  C   UNK N   1      29.963  16.852   6.978  0.00  0.00    -0.012 A 
HETATM    4  C   UNK N   1      29.179  16.171   6.050  0.00  0.00     0.049 A 
HETATM    5  C   UNK N   1      27.798  16.106   6.205  0.00  0.00     0.071 A 
HETATM    6  C   UNK N   1      27.197  16.736   7.310  0.00  0.00     0.074 A 
HETATM    7  C   UNK N   1      27.974  17.424   8.252  0.00  0.00     0.085 A 
HETATM    8  C   UNK N   1      29.380  17.487   8.091  0.00  0.00     0.083 A 
HETATM    9  C   UNK N   1      30.243  18.160   8.990  0.00  0.00     0.302 A 
HETATM   10  O   UNK N   1      29.801  18.729   9.973  0.00  0.00    -0.259 OA
HETATM   11  O   UNK N   1      31.560  18.177   8.767  0.00  0.00    -0.278 OA
ENDROOT
BRANCH   1  12
HETATM   12  C   UNK N   1      33.618  17.643   7.517  0.00  0.00     0.137 C 
HETATM   13  C   UNK N   1      34.196  17.171   6.192  0.00  0.00     0.028 C 
BRANCH  12  14
HETATM   14  C   UNK N   1      34.566  18.125   8.594  0.00  0.00     0.149 C 
HETATM   15  O   UNK N   1      35.281  19.092   8.387  0.00  0.00    -0.649 OA
BRANCH  14  16
HETATM   16  O   UNK N   1      34.637  17.500   9.786  0.00  0.00    -0.776 OA
HETATM   17  H   UNK N   1      34.134  17.815  10.510  0.00  0.00     0.167 HD
ENDBRANCH  14  16
ENDBRANCH  12  14
ENDBRANCH   1  12
BRANCH   5  18
HETATM   18  O   UNK N   1      27.073  15.435   5.279  0.00  0.00    -0.356 OA
HETATM   19  C   UNK N   1      27.370  15.439   3.937  0.00  0.00     0.210 C 
ENDBRANCH   5  18
BRANCH   7  20
HETATM   20  O   UNK N   1      27.363  18.014   9.294  0.00  0.00    -0.360 OA
HETATM   21  H   UNK N   1      26.718  18.677   9.145  0.00  0.00     0.217 HD
ENDBRANCH   7  20
TORSDOF 5
ENDMDL
MODEL 2
REMARK VINA RESULT:      -6.6      6.278     10.021
REMARK  5 active torsions:
REMARK  status: ('A' for Active; 'I' for Inactive)
REMARK    1  A    between atoms: C_2  and  C_3 
REMARK    2  A    between atoms: C_2  and  C_17 
REMARK    3  A    between atoms: C_7  and  O_15 
REMARK    4  A    between atoms: C_9  and  O_14 
REMARK    5  A    between atoms: C_17  and  O_19 
ROOT
HETATM    1  C   UNK N   1      22.670  20.176   2.796  0.00  0.00     0.071 A 
HETATM    2  C   UNK N   1      22.853  19.061   3.608  0.00  0.00     0.046 A 
HETATM    3  C   UNK N   1      24.130  18.679   3.968  0.00  0.00    -0.012 A 
HETATM    4  C   UNK N   1      24.301  17.563   4.782  0.00  0.00     0.049 A 
HETATM    5  C   UNK N   1      25.575  17.155   5.164  0.00  0.00     0.071 A 
HETATM    6  C   UNK N   1      26.695  17.882   4.719  0.00  0.00     0.074 A 
HETATM    7  C   UNK N   1      26.537  19.007   3.899  0.00  0.00     0.085 A 
HETATM    8  C   UNK N   1      25.238  19.418   3.512  0.00  0.00     0.083 A 
HETATM    9  C   UNK N   1      24.984  20.542   2.687  0.00  0.00     0.302 A 
HETATM   10  O   UNK N   1      25.900  21.223   2.259  0.00  0.00    -0.259 OA
HETATM   11  O   UNK N   1      23.728  20.868   2.369  0.00  0.00    -0.278 OA
ENDROOT
BRANCH   1  12
HETATM   12  C   UNK N   1      21.277  20.601   2.407  0.00  0.00     0.137 C 
HETATM   13  C   UNK N   1      20.148  20.400   3.406  0.00  0.00     0.028 C 
BRANCH  12  14
HETATM   14  C   UNK N   1      20.950  21.188   1.050  0.00  0.00     0.149 C 
HETATM   15  O   UNK N   1      21.168  20.541   0.039  0.00  0.00    -0.649 OA
BRANCH  14  16
HETATM   16  O   UNK N   1      20.421  22.422   0.938  0.00  0.00    -0.776 OA
HETATM   17  H   UNK N   1      20.014  22.826   1.678  0.00  0.00     0.167 HD
ENDBRANCH  14  16
ENDBRANCH  12  14
ENDBRANCH   1  12
BRANCH   5  18
HETATM   18  O   UNK N   1      25.696  16.065   5.958  0.00  0.00    -0.356 OA
HETATM   19  C   UNK N   1      24.621  15.367   6.454  0.00  0.00     0.210 C 
ENDBRANCH   5  18
BRANCH   7  20
HETATM   20  O   UNK N   1      27.632  19.677   3.494  0.00  0.00    -0.360 OA
HETATM   21  H   UNK N   1      28.161  19.333   2.802  0.00  0.00     0.217 HD
ENDBRANCH   7  20
TORSDOF 5
ENDMDL
MODEL 3
REMARK VINA RESULT:      -6.3     12.025     14.029
REMARK  5 active torsions:
REMARK  status: ('A' for Active; 'I' for Inactive)
REMARK    1  A    between atoms: C_2  and  C_3 
REMARK    2  A    between atoms: C_2  and  C_17 
REMARK    3  A    between atoms: C_7  and  O_15 
REMARK    4  A    between atoms: C_9  and  O_14 
REMARK    5  A    between atoms: C_17  and  O_19 
ROOT
HETATM    1  C   UNK N   1      28.379  23.713  -4.107  0.00  0.00     0.071 A 
HETATM    2  C   UNK N   1      28.932  22.920  -5.108  0.00  0.00     0.046 A 
HETATM    3  C   UNK N   1      30.045  22.151  -4.835  0.00  0.00    -0.012 A 
HETATM    4  C   UNK N   1      30.588  21.360  -5.843  0.00  0.00     0.049 A 
HETATM    5  C   UNK N   1      31.708  20.573  -5.597  0.00  0.00     0.071 A 
HETATM    6  C   UNK N   1      32.291  20.581  -4.317  0.00  0.00     0.074 A 
HETATM    7  C   UNK N   1      31.755  21.373  -3.292  0.00  0.00     0.085 A 
HETATM    8  C   UNK N   1      30.615  22.174  -3.547  0.00  0.00     0.083 A 
HETATM    9  C   UNK N   1      30.005  23.004  -2.573  0.00  0.00     0.302 A 
HETATM   10  O   UNK N   1      30.450  23.068  -1.440  0.00  0.00    -0.259 OA
HETATM   11  O   UNK N   1      28.928  23.728  -2.891  0.00  0.00    -0.278 OA
ENDROOT
BRANCH   1  12
HETATM   12  C   UNK N   1      27.158  24.549  -4.399  0.00  0.00     0.137 C 
HETATM   13  C   UNK N   1      26.070  23.963  -5.285  0.00  0.00     0.028 C 
BRANCH  12  14
HETATM   14  C   UNK N   1      26.987  25.959  -3.873  0.00  0.00     0.149 C 
HETATM   15  O   UNK N   1      26.346  26.154  -2.854  0.00  0.00    -0.649 OA
BRANCH  14  16
HETATM   16  O   UNK N   1      27.534  27.009  -4.516  0.00  0.00    -0.776 OA
HETATM   17  H   UNK N   1      27.431  27.096  -5.443  0.00  0.00     0.167 HD
ENDBRANCH  14  16
ENDBRANCH  12  14
ENDBRANCH   1  12
BRANCH   5  18
HETATM   18  O   UNK N   1      32.203  19.817  -6.606  0.00  0.00    -0.356 OA
HETATM   19  C   UNK N   1      33.545  19.574  -6.780  0.00  0.00     0.210 C 
ENDBRANCH   5  18
BRANCH   7  20
HETATM   20  O   UNK N   1      32.339  21.354  -2.081  0.00  0.00    -0.360 OA
HETATM   21  H   UNK N   1      32.329  22.122  -1.544  0.00  0.00     0.217 HD
ENDBRANCH   7  20
TORSDOF 5
ENDMDL
MODEL 4
REMARK VINA RESULT:      -6.3     10.794     12.808
REMARK  5 active torsions:
REMARK  status: ('A' for Active; 'I' for Inactive)
REMARK    1  A    between atoms: C_2  and  C_3 
REMARK    2  A    between atoms: C_2  and  C_17 
REMARK    3  A    between atoms: C_7  and  O_15 
REMARK    4  A    between atoms: C_9  and  O_14 
REMARK    5  A    between atoms: C_17  and  O_19 
ROOT
HETATM    1  C   UNK N   1      36.031  12.674  15.862  0.00  0.00     0.071 A 
HETATM    2  C   UNK N   1      35.892  11.417  16.442  0.00  0.00     0.046 A 
HETATM    3  C   UNK N   1      35.519  11.311  17.766  0.00  0.00    -0.012 A 
HETATM    4  C   UNK N   1      35.381  10.048  18.334  0.00  0.00     0.049 A 
HETATM    5  C   UNK N   1      35.004   9.909  19.666  0.00  0.00     0.071 A 
HETATM    6  C   UNK N   1      34.761  11.060  20.438  0.00  0.00     0.074 A 
HETATM    7  C   UNK N   1      34.896  12.338  19.879  0.00  0.00     0.085 A 
HETATM    8  C   UNK N   1      35.281  12.474  18.523  0.00  0.00     0.083 A 
HETATM    9  C   UNK N   1      35.441  13.724  17.875  0.00  0.00     0.302 A 
HETATM   10  O   UNK N   1      35.251  14.768  18.475  0.00  0.00    -0.259 OA
HETATM   11  O   UNK N   1      35.805  13.769  16.590  0.00  0.00    -0.278 OA
ENDROOT
BRANCH   1  12
HETATM   12  C   UNK N   1      36.431  12.794  14.413  0.00  0.00     0.137 C 
HETATM   13  C   UNK N   1      37.364  11.746  13.827  0.00  0.00     0.028 C 
BRANCH  12  14
HETATM   14  C   UNK N   1      35.969  13.933  13.529  0.00  0.00     0.149 C 
HETATM   15  O   UNK N   1      34.905  13.850  12.937  0.00  0.00    -0.649 OA
BRANCH  14  16
HETATM   16  O   UNK N   1      36.717  15.044  13.382  0.00  0.00    -0.776 OA
HETATM   17  H   UNK N   1      37.037  15.284  12.535  0.00  0.00     0.167 HD
ENDBRANCH  14  16
ENDBRANCH  12  14
ENDBRANCH   1  12
BRANCH   5  18
HETATM   18  O   UNK N   1      34.880   8.662  20.179  0.00  0.00    -0.356 OA
HETATM   19  C   UNK N   1      33.857   8.286  21.015  0.00  0.00     0.210 C 
ENDBRANCH   5  18
BRANCH   7  20
HETATM   20  O   UNK N   1      34.654  13.414  20.649  0.00  0.00    -0.360 OA
HETATM   21  H   UNK N   1      35.229  14.153  20.615  0.00  0.00     0.217 HD
ENDBRANCH   7  20
TORSDOF 5
ENDMDL
MODEL 5
REMARK VINA RESULT:      -6.3      3.710      5.798
REMARK  5 active torsions:
REMARK  status: ('A' for Active; 'I' for Inactive)
REMARK    1  A    between atoms: C_2  and  C_3 
REMARK    2  A    between atoms: C_2  and  C_17 
REMARK    3  A    between atoms: C_7  and  O_15 
REMARK    4  A    between atoms: C_9  and  O_14 
REMARK    5  A    between atoms: C_17  and  O_19 
ROOT
HETATM    1  C   UNK N   1      34.894  14.678  10.917  0.00  0.00     0.071 A 
HETATM    2  C   UNK N   1      34.024  14.487   9.848  0.00  0.00     0.046 A 
HETATM    3  C   UNK N   1      33.813  15.510   8.946  0.00  0.00    -0.012 A 
HETATM    4  C   UNK N   1      32.942  15.306   7.880  0.00  0.00     0.049 A 
HETATM    5  C   UNK N   1      32.711  16.317   6.952  0.00  0.00     0.071 A 
HETATM    6  C   UNK N   1      33.367  17.552   7.101  0.00  0.00     0.074 A 
HETATM    7  C   UNK N   1      34.247  17.772   8.169  0.00  0.00     0.085 A 
HETATM    8  C   UNK N   1      34.478  16.740   9.111  0.00  0.00     0.083 A 
HETATM    9  C   UNK N   1      35.350  16.872  10.221  0.00  0.00     0.302 A 
HETATM   10  O   UNK N   1      35.955  17.911  10.420  0.00  0.00    -0.259 OA
HETATM   11  O   UNK N   1      35.518  15.849  11.064  0.00  0.00    -0.278 OA
ENDROOT
BRANCH   1  12
HETATM   12  C   UNK N   1      35.134  13.561  11.900  0.00  0.00     0.137 C 
HETATM   13  C   UNK N   1      34.874  12.131  11.455  0.00  0.00     0.028 C 
BRANCH  12  14
HETATM   14  C   UNK N   1      35.590  13.808  13.323  0.00  0.00     0.149 C 
HETATM   15  O   UNK N   1      34.908  13.418  14.257  0.00  0.00    -0.649 OA
BRANCH  14  16
HETATM   16  O   UNK N   1      36.743  14.457  13.579  0.00  0.00    -0.776 OA
HETATM   17  H   UNK N   1      37.104  15.039  12.941  0.00  0.00     0.167 HD
ENDBRANCH  14  16
ENDBRANCH  12  14
ENDBRANCH   1  12
BRANCH   5  18
HETATM   18  O   UNK N   1      31.857  16.076   5.930  0.00  0.00    -0.356 OA
HETATM   19  C   UNK N   1      30.739  15.285   6.048  0.00  0.00     0.210 C 
ENDBRANCH   5  18
BRANCH   7  20
HETATM   20  O   UNK N   1      34.856  18.966   8.277  0.00  0.00    -0.360 OA
HETATM   21  H   UNK N   1      35.071  19.453   7.506  0.00  0.00     0.217 HD
ENDBRANCH   7  20
TORSDOF 5
ENDMDL
MODEL 6
REMARK VINA RESULT:      -6.1      2.818      6.372
REMARK  5 active torsions:
REMARK  status: ('A' for Active; 'I' for Inactive)
REMARK    1  A    between atoms: C_2  and  C_3 
REMARK    2  A    between atoms: C_2  and  C_17 
REMARK    3  A    between atoms: C_7  and  O_15 
REMARK    4  A    between atoms: C_9  and  O_14 
REMARK    5  A    between atoms: C_17  and  O_19 
ROOT
HETATM    1  C   UNK N   1      32.897  17.112   6.779  0.00  0.00     0.071 A 
HETATM    2  C   UNK N   1      32.822  16.013   7.630  0.00  0.00     0.046 A 
HETATM    3  C   UNK N   1      33.595  15.977   8.772  0.00  0.00    -0.012 A 
HETATM    4  C   UNK N   1      33.509  14.874   9.616  0.00  0.00     0.049 A 
HETATM    5  C   UNK N   1      34.274  14.810  10.776  0.00  0.00     0.071 A 
HETATM    6  C   UNK N   1      35.140  15.874  11.092  0.00  0.00     0.074 A 
HETATM    7  C   UNK N   1      35.236  16.991  10.251  0.00  0.00     0.085 A 
HETATM    8  C   UNK N   1      34.456  17.051   9.071  0.00  0.00     0.083 A 
HETATM    9  C   UNK N   1      34.488  18.139   8.163  0.00  0.00     0.302 A 
HETATM   10  O   UNK N   1      35.212  19.099   8.364  0.00  0.00    -0.259 OA
HETATM   11  O   UNK N   1      33.718  18.123   7.072  0.00  0.00    -0.278 OA
ENDROOT
BRANCH   1  12
HETATM   12  C   UNK N   1      32.048  17.158   5.534  0.00  0.00     0.137 C 
HETATM   13  C   UNK N   1      32.687  17.620   4.235  0.00  0.00     0.028 C 
BRANCH  12  14
HETATM   14  C   UNK N   1      30.578  16.795   5.533  0.00  0.00     0.149 C 
HETATM   15  O   UNK N   1      29.737  17.663   5.705  0.00  0.00    -0.649 OA
BRANCH  14  16
HETATM   16  O   UNK N   1      30.178  15.522   5.346  0.00  0.00    -0.776 OA
HETATM   17  H   UNK N   1      30.812  14.837   5.279  0.00  0.00     0.167 HD
ENDBRANCH  14  16
ENDBRANCH  12  14
ENDBRANCH   1  12
BRANCH   5  18
HETATM   18  O   UNK N   1      34.160  13.720  11.570  0.00  0.00    -0.356 OA
HETATM   19  C   UNK N   1      35.128  13.330  12.464  0.00  0.00     0.210 C 
ENDBRANCH   5  18
BRANCH   7  20
HETATM   20  O   UNK N   1      36.074  17.989  10.587  0.00  0.00    -0.360 OA
HETATM   21  H   UNK N   1      36.968  17.800  10.793  0.00  0.00     0.217 HD
ENDBRANCH   7  20
TORSDOF 5
ENDMDL
MODEL 7
REMARK VINA RESULT:      -5.8      3.694      6.877
REMARK  5 active torsions:
REMARK  status: ('A' for Active; 'I' for Inactive)
REMARK    1  A    between atoms: C_2  and  C_3 
REMARK    2  A    between atoms: C_2  and  C_17 
REMARK    3  A    between atoms: C_7  and  O_15 
REMARK    4  A    between atoms: C_9  and  O_14 
REMARK    5  A    between atoms: C_17  and  O_19 
ROOT
HETATM    1  C   UNK N   1      32.603  16.181   8.541  0.00  0.00     0.071 A 
HETATM    2  C   UNK N   1      32.885  14.847   8.818  0.00  0.00     0.046 A 
HETATM    3  C   UNK N   1      34.055  14.515   9.469  0.00  0.00    -0.012 A 
HETATM    4  C   UNK N   1      34.325  13.177   9.742  0.00  0.00     0.049 A 
HETATM    5  C   UNK N   1      35.496  12.812  10.398  0.00  0.00     0.071 A 
HETATM    6  C   UNK N   1      36.410  13.809  10.785  0.00  0.00     0.074 A 
HETATM    7  C   UNK N   1      36.152  15.160  10.517  0.00  0.00     0.085 A 
HETATM    8  C   UNK N   1      34.959  15.527   9.847  0.00  0.00     0.083 A 
HETATM    9  C   UNK N   1      34.615  16.865   9.535  0.00  0.00     0.302 A 
HETATM   10  O   UNK N   1      35.354  17.787   9.835  0.00  0.00    -0.259 OA
HETATM   11  O   UNK N   1      33.468  17.131   8.904  0.00  0.00    -0.278 OA
ENDROOT
BRANCH   1  12
HETATM   12  C   UNK N   1      31.321  16.549   7.838  0.00  0.00     0.137 C 
HETATM   13  C   UNK N   1      30.950  15.804   6.566  0.00  0.00     0.028 C 
BRANCH  12  14
HETATM   14  C   UNK N   1      30.407  17.651   8.329  0.00  0.00     0.149 C 
HETATM   15  O   UNK N   1      29.427  17.966   7.673  0.00  0.00    -0.649 OA
BRANCH  14  16
HETATM   16  O   UNK N   1      30.657  18.297   9.484  0.00  0.00    -0.776 OA
HETATM   17  H   UNK N   1      30.071  18.963   9.786  0.00  0.00     0.167 HD
ENDBRANCH  14  16
ENDBRANCH  12  14
ENDBRANCH   1  12
BRANCH   5  18
HETATM   18  O   UNK N   1      35.718  11.499  10.646  0.00  0.00    -0.356 OA
HETATM   19  C   UNK N   1      34.837  10.700  11.335  0.00  0.00     0.210 C 
ENDBRANCH   5  18
BRANCH   7  20
HETATM   20  O   UNK N   1      37.049  16.084  10.903  0.00  0.00    -0.360 OA
HETATM   21  H   UNK N   1      36.904  16.580  11.684  0.00  0.00     0.217 HD
ENDBRANCH   7  20
TORSDOF 5
ENDMDL
MODEL 8
REMARK VINA RESULT:      -5.8      6.022      8.346
REMARK  5 active torsions:
REMARK  status: ('A' for Active; 'I' for Inactive)
REMARK    1  A    between atoms: C_2  and  C_3 
REMARK    2  A    between atoms: C_2  and  C_17 
REMARK    3  A    between atoms: C_7  and  O_15 
REMARK    4  A    between atoms: C_9  and  O_14 
REMARK    5  A    between atoms: C_17  and  O_19 
ROOT
HETATM    1  C   UNK N   1      25.171  18.547   4.120  0.00  0.00     0.071 A 
HETATM    2  C   UNK N   1      24.029  17.762   4.249  0.00  0.00     0.046 A 
HETATM    3  C   UNK N   1      22.801  18.277   3.888  0.00  0.00    -0.012 A 
HETATM    4  C   UNK N   1      21.666  17.482   4.020  0.00  0.00     0.049 A 
HETATM    5  C   UNK N   1      20.414  17.973   3.662  0.00  0.00     0.071 A 
HETATM    6  C   UNK N   1      20.303  19.284   3.165  0.00  0.00     0.074 A 
HETATM    7  C   UNK N   1      21.437  20.096   3.028  0.00  0.00     0.085 A 
HETATM    8  C   UNK N   1      22.710  19.593   3.394  0.00  0.00     0.083 A 
HETATM    9  C   UNK N   1      23.909  20.340   3.289  0.00  0.00     0.302 A 
HETATM   10  O   UNK N   1      23.898  21.484   2.869  0.00  0.00    -0.259 OA
HETATM   11  O   UNK N   1      25.072  19.792   3.652  0.00  0.00    -0.278 OA
ENDROOT
BRANCH   1  12
HETATM   12  C   UNK N   1      26.516  17.985   4.506  0.00  0.00     0.137 C 
HETATM   13  C   UNK N   1      26.574  16.604   5.138  0.00  0.00     0.028 C 
BRANCH  12  14
HETATM   14  C   UNK N   1      27.808  18.754   4.319  0.00  0.00     0.149 C 
HETATM   15  O   UNK N   1      28.839  18.343   4.825  0.00  0.00    -0.649 OA
BRANCH  14  16
HETATM   16  O   UNK N   1      27.838  19.893   3.599  0.00  0.00    -0.776 OA
HETATM   17  H   UNK N   1      27.640  20.711   4.008  0.00  0.00     0.167 HD
ENDBRANCH  14  16
ENDBRANCH  12  14
ENDBRANCH   1  12
BRANCH   5  18
HETATM   18  O   UNK N   1      19.337  17.166   3.805  0.00  0.00    -0.356 OA
HETATM   19  C   UNK N   1      19.413  15.881   4.287  0.00  0.00     0.210 C 
ENDBRANCH   5  18
BRANCH   7  20
HETATM   20  O   UNK N   1      21.291  21.344   2.548  0.00  0.00    -0.360 OA
HETATM   21  H   UNK N   1      22.003  21.951   2.597  0.00  0.00     0.217 HD
ENDBRANCH   7  20
TORSDOF 5
ENDMDL
MODEL 9
REMARK VINA RESULT:      -5.7      6.404     10.627
REMARK  5 active torsions:
REMARK  status: ('A' for Active; 'I' for Inactive)
REMARK    1  A    between atoms: C_2  and  C_3 
REMARK    2  A    between atoms: C_2  and  C_17 
REMARK    3  A    between atoms: C_7  and  O_15 
REMARK    4  A    between atoms: C_9  and  O_14 
REMARK    5  A    between atoms: C_17  and  O_19 
ROOT
HETATM    1  C   UNK N   1      21.198  17.249   4.976  0.00  0.00     0.071 A 
HETATM    2  C   UNK N   1      22.572  17.041   4.903  0.00  0.00     0.046 A 
HETATM    3  C   UNK N   1      23.380  18.004   4.334  0.00  0.00    -0.012 A 
HETATM    4  C   UNK N   1      24.753  17.786   4.268  0.00  0.00     0.049 A 
HETATM    5  C   UNK N   1      25.594  18.740   3.703  0.00  0.00     0.071 A 
HETATM    6  C   UNK N   1      25.044  19.931   3.195  0.00  0.00     0.074 A 
HETATM    7  C   UNK N   1      23.663  20.163   3.253  0.00  0.00     0.085 A 
HETATM    8  C   UNK N   1      22.811  19.190   3.830  0.00  0.00     0.083 A 
HETATM    9  C   UNK N   1      21.406  19.339   3.932  0.00  0.00     0.302 A 
HETATM   10  O   UNK N   1      20.851  20.341   3.515  0.00  0.00    -0.259 OA
HETATM   11  O   UNK N   1      20.670  18.375   4.493  0.00  0.00    -0.278 OA
ENDROOT
BRANCH   1  12
HETATM   12  C   UNK N   1      20.312  16.202   5.604  0.00  0.00     0.137 C 
HETATM   13  C   UNK N   1      20.797  15.498   6.861  0.00  0.00     0.028 C 
BRANCH  12  14
HETATM   14  C   UNK N   1      18.976  15.802   5.015  0.00  0.00     0.149 C 
HETATM   15  O   UNK N   1      17.959  15.920   5.678  0.00  0.00    -0.649 OA
BRANCH  14  16
HETATM   16  O   UNK N   1      18.889  15.312   3.762  0.00  0.00    -0.776 OA
HETATM   17  H   UNK N   1      18.069  14.998   3.438  0.00  0.00     0.167 HD
ENDBRANCH  14  16
ENDBRANCH  12  14
ENDBRANCH   1  12
BRANCH   5  18
HETATM   18  O   UNK N   1      26.923  18.488   3.661  0.00  0.00    -0.356 OA
HETATM   19  C   UNK N   1      27.825  19.034   4.544  0.00  0.00     0.210 C 
ENDBRANCH   5  18
BRANCH   7  20
HETATM   20  O   UNK N   1      23.175  21.314   2.758  0.00  0.00    -0.360 OA
HETATM   21  H   UNK N   1      23.444  21.612   1.912  0.00  0.00     0.217 HD
ENDBRANCH   7  20
TORSDOF 5
ENDMDL
