MODEL 1
REMARK VINA RESULT:      -8.9      0.000      0.000
REMARK  11 active torsions:
REMARK  status: ('A' for Active; 'I' for Inactive)
REMARK    1  A    between atoms: C_4  and  O_30 
REMARK    2  A    between atoms: C_7  and  C_8 
REMARK    3  A    between atoms: C_12  and  C_14 
REMARK    4  A    between atoms: C_14  and  O_15 
REMARK    5  A    between atoms: O_15  and  C_16 
REMARK    6  A    between atoms: C_24  and  C_25 
REMARK    7  A    between atoms: C_25  and  C_26 
REMARK    8  A    between atoms: C_26  and  O_28 
REMARK    9  A    between atoms: O_30  and  C_31 
REMARK   10  A    between atoms: C_31  and  C_32 
REMARK   11  A    between atoms: C_32  and  C_33 
ROOT
HETATM    1  C   UNK N   1      26.267  19.549   4.553  0.00  0.00    -0.024 A 
HETATM    2  C   UNK N   1      26.741  20.342   3.490  0.00  0.00     0.012 A 
HETATM    3  C   UNK N   1      25.878  20.819   2.497  0.00  0.00     0.002 A 
HETATM    4  C   UNK N   1      24.518  20.500   2.537  0.00  0.00     0.009 A 
HETATM    5  C   UNK N   1      24.024  19.726   3.584  0.00  0.00    -0.033 A 
HETATM    6  C   UNK N   1      24.899  19.261   4.572  0.00  0.00     0.021 A 
ENDROOT
BRANCH   1   7
HETATM    7  C   UNK N   1      27.202  18.954   5.596  0.00  0.00    -0.014 A 
HETATM    8  C   UNK N   1      27.793  17.663   5.417  0.00  0.00    -0.048 A 
HETATM    9  C   UNK N   1      28.587  17.108   6.417  0.00  0.00     0.044 A 
HETATM   10  C   UNK N   1      27.613  16.831   4.192  0.00  0.00     0.049 C 
HETATM   11  C   UNK N   1      28.844  17.789   7.604  0.00  0.00     0.069 A 
HETATM   12  C   UNK N   1      28.324  19.061   7.784  0.00  0.00     0.044 A 
HETATM   13  C   UNK N   1      27.508  19.651   6.818  0.00  0.00    -0.048 A 
HETATM   14  C   UNK N   1      26.970  20.998   7.170  0.00  0.00     0.049 C 
BRANCH  11  15
HETATM   15  O   UNK N   1      29.583  17.229   8.590  0.00  0.00    -0.351 OA
BRANCH  15  16
HETATM   16  C   UNK N   1      30.962  17.348   8.674  0.00  0.00     0.176 C 
BRANCH  16  17
HETATM   17  C   UNK N   1      31.726  16.097   8.255  0.00  0.00     0.041 C 
BRANCH  17  18
HETATM   18  C   UNK N   1      33.143  16.448   7.813  0.00  0.00     0.142 A 
HETATM   19  S   UNK N   1      33.475  18.204   8.141  0.00  0.00     0.140 S 
HETATM   20  O   UNK N   1      34.866  18.627   7.649  0.00  0.00    -0.228 OA
HETATM   21  O   UNK N   1      34.245  17.477   9.254  0.00  0.00    -0.228 OA
HETATM   22  C   UNK N   1      33.789  17.346   6.568  0.00  0.00     0.161 A 
ENDBRANCH  17  18
ENDBRANCH  16  17
ENDBRANCH  15  16
ENDBRANCH  11  15
ENDBRANCH   1   7
BRANCH   5  23
HETATM   23  C   UNK N   1      22.589  19.305   3.611  0.00  0.00     0.214 C 
BRANCH  23  24
HETATM   24  O   UNK N   1      22.554  17.941   3.796  0.00  0.00    -0.347 OA
BRANCH  24  25
HETATM   25  C   UNK N   1      21.978  17.320   4.842  0.00  0.00     0.071 A 
HETATM   26  C   UNK N   1      21.851  15.912   4.899  0.00  0.00     0.037 A 
HETATM   27  C   UNK N   1      21.244  15.308   6.016  0.00  0.00     0.013 A 
HETATM   28  C   UNK N   1      20.759  16.134   7.032  0.00  0.00    -0.018 A 
HETATM   29  C   UNK N   1      20.869  17.479   6.964  0.00  0.00     0.078 A 
HETATM   30  C   UNK N   1      20.083  15.751   8.292  0.00  0.00     0.055 A 
HETATM   31  C   UNK N   1      21.484  18.111   5.889  0.00  0.00     0.074 A 
HETATM   32  O   UNK N   1      20.333  18.083   8.017  0.00  0.00    -0.350 OA
HETATM   33  C   UNK N   1      19.789  17.158   8.899  0.00  0.00     0.185 A 
BRANCH  30  34
HETATM   34  C   UNK N   1      21.061  14.999   9.183  0.00  0.00     0.121 C 
BRANCH  34  35
HETATM   35  C   UNK N   1      20.661  13.570   9.345  0.00  0.00     0.140 C 
HETATM   36  O   UNK N   1      20.176  13.196  10.399  0.00  0.00    -0.650 OA
BRANCH  35  37
HETATM   37  O   UNK N   1      20.819  12.696   8.333  0.00  0.00    -0.776 OA
HETATM   38  H   UNK N   1      21.406  11.971   8.427  0.00  0.00     0.167 HD
ENDBRANCH  35  37
ENDBRANCH  34  35
ENDBRANCH  30  34
ENDBRANCH  24  25
ENDBRANCH  23  24
ENDBRANCH   5  23
TORSDOF 11
ENDMDL
MODEL 2
REMARK VINA RESULT:      -8.6      1.753      2.802
REMARK  11 active torsions:
REMARK  status: ('A' for Active; 'I' for Inactive)
REMARK    1  A    between atoms: C_4  and  O_30 
REMARK    2  A    between atoms: C_7  and  C_8 
REMARK    3  A    between atoms: C_12  and  C_14 
REMARK    4  A    between atoms: C_14  and  O_15 
REMARK    5  A    between atoms: O_15  and  C_16 
REMARK    6  A    between atoms: C_24  and  C_25 
REMARK    7  A    between atoms: C_25  and  C_26 
REMARK    8  A    between atoms: C_26  and  O_28 
REMARK    9  A    between atoms: O_30  and  C_31 
REMARK   10  A    between atoms: C_31  and  C_32 
REMARK   11  A    between atoms: C_32  and  C_33 
ROOT
HETATM    1  C   UNK N   1      25.105  19.037   3.915  0.00  0.00    -0.024 A 
HETATM    2  C   UNK N   1      24.881  20.151   3.084  0.00  0.00     0.012 A 
HETATM    3  C   UNK N   1      23.585  20.561   2.751  0.00  0.00     0.002 A 
HETATM    4  C   UNK N   1      22.480  19.855   3.232  0.00  0.00     0.009 A 
HETATM    5  C   UNK N   1      22.677  18.755   4.064  0.00  0.00    -0.033 A 
HETATM    6  C   UNK N   1      23.979  18.361   4.391  0.00  0.00     0.021 A 
ENDROOT
BRANCH   1   7
HETATM    7  C   UNK N   1      26.507  18.527   4.221  0.00  0.00    -0.014 A 
HETATM    8  C   UNK N   1      27.393  19.255   5.079  0.00  0.00    -0.048 A 
HETATM    9  C   UNK N   1      28.696  18.808   5.287  0.00  0.00     0.044 A 
HETATM   10  C   UNK N   1      27.014  20.509   5.791  0.00  0.00     0.049 C 
HETATM   11  C   UNK N   1      29.168  17.643   4.689  0.00  0.00     0.069 A 
HETATM   12  C   UNK N   1      28.317  16.893   3.893  0.00  0.00     0.044 A 
HETATM   13  C   UNK N   1      27.009  17.310   3.641  0.00  0.00    -0.048 A 
HETATM   14  C   UNK N   1      26.225  16.437   2.719  0.00  0.00     0.049 C 
BRANCH  11  15
HETATM   15  O   UNK N   1      30.447  17.233   4.862  0.00  0.00    -0.351 OA
BRANCH  15  16
HETATM   16  C   UNK N   1      30.793  15.947   5.248  0.00  0.00     0.176 C 
BRANCH  16  17
HETATM   17  C   UNK N   1      31.748  15.885   6.434  0.00  0.00     0.041 C 
BRANCH  17  18
HETATM   18  C   UNK N   1      32.309  17.267   6.754  0.00  0.00     0.142 A 
HETATM   19  S   UNK N   1      34.083  17.142   7.128  0.00  0.00     0.140 S 
HETATM   20  O   UNK N   1      34.683  18.497   7.524  0.00  0.00    -0.228 OA
HETATM   21  O   UNK N   1      34.054  17.730   5.708  0.00  0.00    -0.228 OA
HETATM   22  C   UNK N   1      32.849  18.016   8.139  0.00  0.00     0.161 A 
ENDBRANCH  17  18
ENDBRANCH  16  17
ENDBRANCH  15  16
ENDBRANCH  11  15
ENDBRANCH   1   7
BRANCH   5  23
HETATM   23  C   UNK N   1      21.517  17.934   4.532  0.00  0.00     0.214 C 
BRANCH  23  24
HETATM   24  O   UNK N   1      21.558  17.895   5.907  0.00  0.00    -0.347 OA
BRANCH  24  25
HETATM   25  C   UNK N   1      21.628  16.771   6.645  0.00  0.00     0.071 A 
HETATM   26  C   UNK N   1      22.618  15.787   6.416  0.00  0.00     0.037 A 
HETATM   27  C   UNK N   1      22.653  14.629   7.216  0.00  0.00     0.013 A 
HETATM   28  C   UNK N   1      21.681  14.480   8.206  0.00  0.00    -0.018 A 
HETATM   29  C   UNK N   1      20.728  15.417   8.410  0.00  0.00     0.078 A 
HETATM   30  C   UNK N   1      21.498  13.366   9.164  0.00  0.00     0.055 A 
HETATM   31  C   UNK N   1      20.676  16.584   7.657  0.00  0.00     0.074 A 
HETATM   32  O   UNK N   1      19.890  15.081   9.382  0.00  0.00    -0.350 OA
HETATM   33  C   UNK N   1      20.218  13.843   9.918  0.00  0.00     0.185 A 
BRANCH  30  34
HETATM   34  C   UNK N   1      22.678  13.327  10.125  0.00  0.00     0.121 C 
BRANCH  34  35
HETATM   35  C   UNK N   1      22.661  12.088  10.958  0.00  0.00     0.140 C 
HETATM   36  O   UNK N   1      22.505  12.176  12.163  0.00  0.00    -0.650 OA
BRANCH  35  37
HETATM   37  O   UNK N   1      22.804  10.878  10.386  0.00  0.00    -0.776 OA
HETATM   38  H   UNK N   1      23.481  10.299  10.676  0.00  0.00     0.167 HD
ENDBRANCH  35  37
ENDBRANCH  34  35
ENDBRANCH  30  34
ENDBRANCH  24  25
ENDBRANCH  23  24
ENDBRANCH   5  23
TORSDOF 11
ENDMDL
MODEL 3
REMARK VINA RESULT:      -8.5      3.366      6.013
REMARK  11 active torsions:
REMARK  status: ('A' for Active; 'I' for Inactive)
REMARK    1  A    between atoms: C_4  and  O_30 
REMARK    2  A    between atoms: C_7  and  C_8 
REMARK    3  A    between atoms: C_12  and  C_14 
REMARK    4  A    between atoms: C_14  and  O_15 
REMARK    5  A    between atoms: O_15  and  C_16 
REMARK    6  A    between atoms: C_24  and  C_25 
REMARK    7  A    between atoms: C_25  and  C_26 
REMARK    8  A    between atoms: C_26  and  O_28 
REMARK    9  A    between atoms: O_30  and  C_31 
REMARK   10  A    between atoms: C_31  and  C_32 
REMARK   11  A    between atoms: C_32  and  C_33 
ROOT
HETATM    1  C   UNK N   1      30.464  16.980   5.374  0.00  0.00    -0.024 A 
HETATM    2  C   UNK N   1      30.262  15.726   4.765  0.00  0.00     0.012 A 
HETATM    3  C   UNK N   1      29.181  15.501   3.904  0.00  0.00     0.002 A 
HETATM    4  C   UNK N   1      28.267  16.524   3.644  0.00  0.00     0.009 A 
HETATM    5  C   UNK N   1      28.451  17.776   4.226  0.00  0.00    -0.033 A 
HETATM    6  C   UNK N   1      29.540  17.986   5.080  0.00  0.00     0.021 A 
ENDROOT
BRANCH   1   7
HETATM    7  C   UNK N   1      31.585  17.220   6.375  0.00  0.00    -0.014 A 
HETATM    8  C   UNK N   1      32.946  17.351   5.952  0.00  0.00    -0.048 A 
HETATM    9  C   UNK N   1      33.964  17.497   6.891  0.00  0.00     0.044 A 
HETATM   10  C   UNK N   1      33.376  17.337   4.524  0.00  0.00     0.049 C 
HETATM   11  C   UNK N   1      33.693  17.538   8.256  0.00  0.00     0.069 A 
HETATM   12  C   UNK N   1      32.380  17.463   8.691  0.00  0.00     0.044 A 
HETATM   13  C   UNK N   1      31.328  17.297   7.789  0.00  0.00    -0.048 A 
HETATM   14  C   UNK N   1      29.973  17.171   8.401  0.00  0.00     0.049 C 
BRANCH  11  15
HETATM   15  O   UNK N   1      34.689  17.640   9.167  0.00  0.00    -0.351 OA
BRANCH  15  16
HETATM   16  C   UNK N   1      34.966  16.663  10.111  0.00  0.00     0.176 C 
BRANCH  16  17
HETATM   17  C   UNK N   1      34.597  15.249   9.676  0.00  0.00     0.041 C 
BRANCH  17  18
HETATM   18  C   UNK N   1      35.366  14.212  10.488  0.00  0.00     0.142 A 
HETATM   19  S   UNK N   1      35.811  14.904  12.109  0.00  0.00     0.140 S 
HETATM   20  O   UNK N   1      36.649  13.924  12.941  0.00  0.00    -0.228 OA
HETATM   21  O   UNK N   1      34.644  13.958  12.429  0.00  0.00    -0.228 OA
HETATM   22  C   UNK N   1      36.951  14.051  10.976  0.00  0.00     0.161 A 
ENDBRANCH  17  18
ENDBRANCH  16  17
ENDBRANCH  15  16
ENDBRANCH  11  15
ENDBRANCH   1   7
BRANCH   5  23
HETATM   23  C   UNK N   1      27.447  18.866   4.026  0.00  0.00     0.214 C 
BRANCH  23  24
HETATM   24  O   UNK N   1      26.287  18.491   4.665  0.00  0.00    -0.347 OA
BRANCH  24  25
HETATM   25  C   UNK N   1      25.046  18.838   4.276  0.00  0.00     0.071 A 
HETATM   26  C   UNK N   1      24.798  20.011   3.525  0.00  0.00     0.037 A 
HETATM   27  C   UNK N   1      23.483  20.330   3.138  0.00  0.00     0.013 A 
HETATM   28  C   UNK N   1      22.452  19.478   3.536  0.00  0.00    -0.018 A 
HETATM   29  C   UNK N   1      22.693  18.367   4.267  0.00  0.00     0.078 A 
HETATM   30  C   UNK N   1      21.000  19.592   3.266  0.00  0.00     0.055 A 
HETATM   31  C   UNK N   1      23.980  18.006   4.647  0.00  0.00     0.074 A 
HETATM   32  O   UNK N   1      21.581  17.702   4.558  0.00  0.00    -0.350 OA
HETATM   33  C   UNK N   1      20.466  18.345   4.037  0.00  0.00     0.185 A 
BRANCH  30  34
HETATM   34  C   UNK N   1      20.748  19.424   1.775  0.00  0.00     0.121 C 
BRANCH  34  35
HETATM   35  C   UNK N   1      20.870  20.725   1.053  0.00  0.00     0.140 C 
HETATM   36  O   UNK N   1      21.074  20.729  -0.149  0.00  0.00    -0.650 OA
BRANCH  35  37
HETATM   37  O   UNK N   1      20.745  21.889   1.716  0.00  0.00    -0.776 OA
HETATM   38  H   UNK N   1      21.487  22.452   1.820  0.00  0.00     0.167 HD
ENDBRANCH  35  37
ENDBRANCH  34  35
ENDBRANCH  30  34
ENDBRANCH  24  25
ENDBRANCH  23  24
ENDBRANCH   5  23
TORSDOF 11
ENDMDL
MODEL 4
REMARK VINA RESULT:      -8.2      5.690     12.356
REMARK  11 active torsions:
REMARK  status: ('A' for Active; 'I' for Inactive)
REMARK    1  A    between atoms: C_4  and  O_30 
REMARK    2  A    between atoms: C_7  and  C_8 
REMARK    3  A    between atoms: C_12  and  C_14 
REMARK    4  A    between atoms: C_14  and  O_15 
REMARK    5  A    between atoms: O_15  and  C_16 
REMARK    6  A    between atoms: C_24  and  C_25 
REMARK    7  A    between atoms: C_25  and  C_26 
REMARK    8  A    between atoms: C_26  and  O_28 
REMARK    9  A    between atoms: O_30  and  C_31 
REMARK   10  A    between atoms: C_31  and  C_32 
REMARK   11  A    between atoms: C_32  and  C_33 
ROOT
HETATM    1  C   UNK N   1      32.486  17.049   7.917  0.00  0.00    -0.024 A 
HETATM    2  C   UNK N   1      33.402  18.111   8.040  0.00  0.00     0.012 A 
HETATM    3  C   UNK N   1      34.601  17.959   8.746  0.00  0.00     0.002 A 
HETATM    4  C   UNK N   1      34.905  16.742   9.359  0.00  0.00     0.009 A 
HETATM    5  C   UNK N   1      34.018  15.673   9.243  0.00  0.00    -0.033 A 
HETATM    6  C   UNK N   1      32.826  15.840   8.529  0.00  0.00     0.021 A 
ENDROOT
BRANCH   1   7
HETATM    7  C   UNK N   1      31.141  17.219   7.223  0.00  0.00    -0.014 A 
HETATM    8  C   UNK N   1      30.979  16.930   5.831  0.00  0.00    -0.048 A 
HETATM    9  C   UNK N   1      29.759  17.162   5.201  0.00  0.00     0.044 A 
HETATM   10  C   UNK N   1      32.064  16.380   4.966  0.00  0.00     0.049 C 
HETATM   11  C   UNK N   1      28.664  17.661   5.900  0.00  0.00     0.069 A 
HETATM   12  C   UNK N   1      28.778  17.905   7.259  0.00  0.00     0.044 A 
HETATM   13  C   UNK N   1      29.985  17.705   7.930  0.00  0.00    -0.048 A 
HETATM   14  C   UNK N   1      29.980  18.065   9.378  0.00  0.00     0.049 C 
BRANCH  11  15
HETATM   15  O   UNK N   1      27.492  17.923   5.275  0.00  0.00    -0.351 OA
BRANCH  15  16
HETATM   16  C   UNK N   1      27.392  18.694   4.127  0.00  0.00     0.176 C 
BRANCH  16  17
HETATM   17  C   UNK N   1      26.337  19.792   4.199  0.00  0.00     0.041 C 
BRANCH  17  18
HETATM   18  C   UNK N   1      25.113  19.426   3.367  0.00  0.00     0.142 A 
HETATM   19  S   UNK N   1      24.131  20.916   3.025  0.00  0.00     0.140 S 
HETATM   20  O   UNK N   1      22.848  20.592   2.248  0.00  0.00    -0.228 OA
HETATM   21  O   UNK N   1      24.841  20.639   1.691  0.00  0.00    -0.228 OA
HETATM   22  C   UNK N   1      23.477  19.345   3.668  0.00  0.00     0.161 A 
ENDBRANCH  17  18
ENDBRANCH  16  17
ENDBRANCH  15  16
ENDBRANCH  11  15
ENDBRANCH   1   7
BRANCH   5  23
HETATM   23  C   UNK N   1      34.281  14.383   9.953  0.00  0.00     0.214 C 
BRANCH  23  24
HETATM   24  O   UNK N   1      35.381  14.565  10.761  0.00  0.00    -0.347 OA
BRANCH  24  25
HETATM   25  C   UNK N   1      35.492  14.112  12.024  0.00  0.00     0.071 A 
HETATM   26  C   UNK N   1      36.214  14.822  13.012  0.00  0.00     0.037 A 
HETATM   27  C   UNK N   1      36.299  14.310  14.320  0.00  0.00     0.013 A 
HETATM   28  C   UNK N   1      35.679  13.090  14.594  0.00  0.00    -0.018 A 
HETATM   29  C   UNK N   1      35.004  12.409  13.642  0.00  0.00     0.078 A 
HETATM   30  C   UNK N   1      35.627  12.345  15.873  0.00  0.00     0.055 A 
HETATM   31  C   UNK N   1      34.877  12.894  12.345  0.00  0.00     0.074 A 
HETATM   32  O   UNK N   1      34.504  11.267  14.097  0.00  0.00    -0.350 OA
HETATM   33  C   UNK N   1      34.827  11.079  15.434  0.00  0.00     0.185 A 
BRANCH  30  34
HETATM   34  C   UNK N   1      34.820  13.139  16.889  0.00  0.00     0.121 C 
BRANCH  34  35
HETATM   35  C   UNK N   1      35.184  12.762  18.287  0.00  0.00     0.140 C 
HETATM   36  O   UNK N   1      35.230  11.585  18.600  0.00  0.00    -0.650 OA
BRANCH  35  37
HETATM   37  O   UNK N   1      35.473  13.710  19.198  0.00  0.00    -0.776 OA
HETATM   38  H   UNK N   1      35.144  14.581  19.089  0.00  0.00     0.167 HD
ENDBRANCH  35  37
ENDBRANCH  34  35
ENDBRANCH  30  34
ENDBRANCH  24  25
ENDBRANCH  23  24
ENDBRANCH   5  23
TORSDOF 11
ENDMDL
MODEL 5
REMARK VINA RESULT:      -8.2     11.305     15.988
REMARK  11 active torsions:
REMARK  status: ('A' for Active; 'I' for Inactive)
REMARK    1  A    between atoms: C_4  and  O_30 
REMARK    2  A    between atoms: C_7  and  C_8 
REMARK    3  A    between atoms: C_12  and  C_14 
REMARK    4  A    between atoms: C_14  and  O_15 
REMARK    5  A    between atoms: O_15  and  C_16 
REMARK    6  A    between atoms: C_24  and  C_25 
REMARK    7  A    between atoms: C_25  and  C_26 
REMARK    8  A    between atoms: C_26  and  O_28 
REMARK    9  A    between atoms: O_30  and  C_31 
REMARK   10  A    between atoms: C_31  and  C_32 
REMARK   11  A    between atoms: C_32  and  C_33 
ROOT
HETATM    1  C   UNK N   1      35.554  12.577  16.736  0.00  0.00    -0.024 A 
HETATM    2  C   UNK N   1      35.011  13.458  17.691  0.00  0.00     0.012 A 
HETATM    3  C   UNK N   1      34.973  13.126  19.050  0.00  0.00     0.002 A 
HETATM    4  C   UNK N   1      35.467  11.894  19.484  0.00  0.00     0.009 A 
HETATM    5  C   UNK N   1      36.019  11.009  18.560  0.00  0.00    -0.033 A 
HETATM    6  C   UNK N   1      36.053  11.359  17.206  0.00  0.00     0.021 A 
ENDROOT
BRANCH   1   7
HETATM    7  C   UNK N   1      35.529  12.886  15.246  0.00  0.00    -0.014 A 
HETATM    8  C   UNK N   1      34.732  12.118  14.339  0.00  0.00    -0.048 A 
HETATM    9  C   UNK N   1      34.781  12.371  12.970  0.00  0.00     0.044 A 
HETATM   10  C   UNK N   1      33.818  11.018  14.764  0.00  0.00     0.049 C 
HETATM   11  C   UNK N   1      35.585  13.380  12.446  0.00  0.00     0.069 A 
HETATM   12  C   UNK N   1      36.330  14.170  13.306  0.00  0.00     0.044 A 
HETATM   13  C   UNK N   1      36.327  13.943  14.683  0.00  0.00    -0.048 A 
HETATM   14  C   UNK N   1      37.222  14.831  15.480  0.00  0.00     0.049 C 
BRANCH  11  15
HETATM   15  O   UNK N   1      35.660  13.596  11.112  0.00  0.00    -0.351 OA
BRANCH  15  16
HETATM   16  C   UNK N   1      34.549  13.787  10.304  0.00  0.00     0.176 C 
BRANCH  16  17
HETATM   17  C   UNK N   1      34.099  15.239  10.190  0.00  0.00     0.041 C 
BRANCH  17  18
HETATM   18  C   UNK N   1      34.843  15.952   9.066  0.00  0.00     0.142 A 
HETATM   19  S   UNK N   1      34.011  17.519   8.671  0.00  0.00     0.140 S 
HETATM   20  O   UNK N   1      34.680  18.244   7.497  0.00  0.00    -0.228 OA
HETATM   21  O   UNK N   1      35.251  17.959   9.465  0.00  0.00    -0.228 OA
HETATM   22  C   UNK N   1      34.519  16.259   7.461  0.00  0.00     0.161 A 
ENDBRANCH  17  18
ENDBRANCH  16  17
ENDBRANCH  15  16
ENDBRANCH  11  15
ENDBRANCH   1   7
BRANCH   5  23
HETATM   23  C   UNK N   1      36.485   9.653  18.985  0.00  0.00     0.214 C 
BRANCH  23  24
HETATM   24  O   UNK N   1      35.787   8.720  18.252  0.00  0.00    -0.347 OA
BRANCH  24  25
HETATM   25  C   UNK N   1      34.716   8.035  18.696  0.00  0.00     0.071 A 
HETATM   26  C   UNK N   1      34.680   6.622  18.698  0.00  0.00     0.037 A 
HETATM   27  C   UNK N   1      33.539   5.951  19.176  0.00  0.00     0.013 A 
HETATM   28  C   UNK N   1      32.458   6.716  19.615  0.00  0.00    -0.018 A 
HETATM   29  C   UNK N   1      32.491   8.067  19.596  0.00  0.00     0.078 A 
HETATM   30  C   UNK N   1      31.156   6.257  20.151  0.00  0.00     0.055 A 
HETATM   31  C   UNK N   1      33.609   8.765  19.154  0.00  0.00     0.074 A 
HETATM   32  O   UNK N   1      31.362   8.606  20.035  0.00  0.00    -0.350 OA
HETATM   33  C   UNK N   1      30.443   7.625  20.385  0.00  0.00     0.185 A 
BRANCH  30  34
HETATM   34  C   UNK N   1      31.377   5.556  21.484  0.00  0.00     0.121 C 
BRANCH  34  35
HETATM   35  C   UNK N   1      30.335   4.516  21.731  0.00  0.00     0.140 C 
HETATM   36  O   UNK N   1      29.760   4.483  22.805  0.00  0.00    -0.650 OA
BRANCH  35  37
HETATM   37  O   UNK N   1      30.020   3.624  20.774  0.00  0.00    -0.776 OA
HETATM   38  H   UNK N   1      30.698   3.155  20.327  0.00  0.00     0.167 HD
ENDBRANCH  35  37
ENDBRANCH  34  35
ENDBRANCH  30  34
ENDBRANCH  24  25
ENDBRANCH  23  24
ENDBRANCH   5  23
TORSDOF 11
ENDMDL
MODEL 6
REMARK VINA RESULT:      -8.1      1.428      2.590
REMARK  11 active torsions:
REMARK  status: ('A' for Active; 'I' for Inactive)
REMARK    1  A    between atoms: C_4  and  O_30 
REMARK    2  A    between atoms: C_7  and  C_8 
REMARK    3  A    between atoms: C_12  and  C_14 
REMARK    4  A    between atoms: C_14  and  O_15 
REMARK    5  A    between atoms: O_15  and  C_16 
REMARK    6  A    between atoms: C_24  and  C_25 
REMARK    7  A    between atoms: C_25  and  C_26 
REMARK    8  A    between atoms: C_26  and  O_28 
REMARK    9  A    between atoms: O_30  and  C_31 
REMARK   10  A    between atoms: C_31  and  C_32 
REMARK   11  A    between atoms: C_32  and  C_33 
ROOT
HETATM    1  C   UNK N   1      25.964  19.019   4.288  0.00  0.00    -0.024 A 
HETATM    2  C   UNK N   1      26.311  20.010   3.351  0.00  0.00     0.012 A 
HETATM    3  C   UNK N   1      25.332  20.694   2.619  0.00  0.00     0.002 A 
HETATM    4  C   UNK N   1      23.981  20.389   2.799  0.00  0.00     0.009 A 
HETATM    5  C   UNK N   1      23.613  19.419   3.729  0.00  0.00    -0.033 A 
HETATM    6  C   UNK N   1      24.603  18.749   4.456  0.00  0.00     0.021 A 
ENDROOT
BRANCH   1   7
HETATM    7  C   UNK N   1      27.016  18.209   5.033  0.00  0.00    -0.014 A 
HETATM    8  C   UNK N   1      27.731  18.760   6.145  0.00  0.00    -0.048 A 
HETATM    9  C   UNK N   1      28.740  18.027   6.765  0.00  0.00     0.044 A 
HETATM   10  C   UNK N   1      27.470  20.115   6.710  0.00  0.00     0.049 C 
HETATM   11  C   UNK N   1      29.072  16.743   6.341  0.00  0.00     0.069 A 
HETATM   12  C   UNK N   1      28.363  16.168   5.299  0.00  0.00     0.044 A 
HETATM   13  C   UNK N   1      27.357  16.869   4.635  0.00  0.00    -0.048 A 
HETATM   14  C   UNK N   1      26.719  16.149   3.494  0.00  0.00     0.049 C 
BRANCH  11  15
HETATM   15  O   UNK N   1      30.080  16.051   6.921  0.00  0.00    -0.351 OA
BRANCH  15  16
HETATM   16  C   UNK N   1      31.057  15.377   6.204  0.00  0.00     0.176 C 
BRANCH  16  17
HETATM   17  C   UNK N   1      32.481  15.655   6.672  0.00  0.00     0.041 C 
BRANCH  17  18
HETATM   18  C   UNK N   1      32.681  17.140   6.953  0.00  0.00     0.142 A 
HETATM   19  S   UNK N   1      34.244  17.395   7.845  0.00  0.00     0.140 S 
HETATM   20  O   UNK N   1      34.460  18.868   8.215  0.00  0.00    -0.228 OA
HETATM   21  O   UNK N   1      34.565  17.854   6.414  0.00  0.00    -0.228 OA
HETATM   22  C   UNK N   1      32.631  18.086   8.323  0.00  0.00     0.161 A 
ENDBRANCH  17  18
ENDBRANCH  16  17
ENDBRANCH  15  16
ENDBRANCH  11  15
ENDBRANCH   1   7
BRANCH   5  23
HETATM   23  C   UNK N   1      22.181  19.019   3.888  0.00  0.00     0.214 C 
BRANCH  23  24
HETATM   24  O   UNK N   1      22.116  17.647   3.793  0.00  0.00    -0.347 OA
BRANCH  24  25
HETATM   25  C   UNK N   1      22.155  16.799   4.838  0.00  0.00     0.071 A 
HETATM   26  C   UNK N   1      21.542  17.107   6.075  0.00  0.00     0.037 A 
HETATM   27  C   UNK N   1      21.608  16.187   7.138  0.00  0.00     0.013 A 
HETATM   28  C   UNK N   1      22.306  14.995   6.938  0.00  0.00    -0.018 A 
HETATM   29  C   UNK N   1      22.903  14.713   5.759  0.00  0.00     0.078 A 
HETATM   30  C   UNK N   1      22.524  13.879   7.887  0.00  0.00     0.055 A 
HETATM   31  C   UNK N   1      22.840  15.586   4.679  0.00  0.00     0.074 A 
HETATM   32  O   UNK N   1      23.529  13.543   5.777  0.00  0.00    -0.350 OA
HETATM   33  C   UNK N   1      23.407  12.931   7.017  0.00  0.00     0.185 A 
BRANCH  30  34
HETATM   34  C   UNK N   1      21.192  13.208   8.191  0.00  0.00     0.121 C 
BRANCH  34  35
HETATM   35  C   UNK N   1      20.721  13.535   9.570  0.00  0.00     0.140 C 
HETATM   36  O   UNK N   1      21.447  13.310  10.523  0.00  0.00    -0.650 OA
BRANCH  35  37
HETATM   37  O   UNK N   1      19.509  14.086   9.765  0.00  0.00    -0.776 OA
HETATM   38  H   UNK N   1      19.430  14.889  10.241  0.00  0.00     0.167 HD
ENDBRANCH  35  37
ENDBRANCH  34  35
ENDBRANCH  30  34
ENDBRANCH  24  25
ENDBRANCH  23  24
ENDBRANCH   5  23
TORSDOF 11
ENDMDL
MODEL 7
REMARK VINA RESULT:      -8.1      1.658      2.198
REMARK  11 active torsions:
REMARK  status: ('A' for Active; 'I' for Inactive)
REMARK    1  A    between atoms: C_4  and  O_30 
REMARK    2  A    between atoms: C_7  and  C_8 
REMARK    3  A    between atoms: C_12  and  C_14 
REMARK    4  A    between atoms: C_14  and  O_15 
REMARK    5  A    between atoms: O_15  and  C_16 
REMARK    6  A    between atoms: C_24  and  C_25 
REMARK    7  A    between atoms: C_25  and  C_26 
REMARK    8  A    between atoms: C_26  and  O_28 
REMARK    9  A    between atoms: O_30  and  C_31 
REMARK   10  A    between atoms: C_31  and  C_32 
REMARK   11  A    between atoms: C_32  and  C_33 
ROOT
HETATM    1  C   UNK N   1      24.740  19.378   4.278  0.00  0.00    -0.024 A 
HETATM    2  C   UNK N   1      24.618  20.354   3.271  0.00  0.00     0.012 A 
HETATM    3  C   UNK N   1      23.384  20.631   2.672  0.00  0.00     0.002 A 
HETATM    4  C   UNK N   1      22.243  19.925   3.058  0.00  0.00     0.009 A 
HETATM    5  C   UNK N   1      22.336  18.961   4.060  0.00  0.00    -0.033 A 
HETATM    6  C   UNK N   1      23.577  18.700   4.652  0.00  0.00     0.021 A 
ENDROOT
BRANCH   1   7
HETATM    7  C   UNK N   1      26.087  19.006   4.883  0.00  0.00    -0.014 A 
HETATM    8  C   UNK N   1      26.741  17.777   4.548  0.00  0.00    -0.048 A 
HETATM    9  C   UNK N   1      27.936  17.425   5.169  0.00  0.00     0.044 A 
HETATM   10  C   UNK N   1      26.215  16.805   3.547  0.00  0.00     0.049 C 
HETATM   11  C   UNK N   1      28.538  18.253   6.112  0.00  0.00     0.069 A 
HETATM   12  C   UNK N   1      27.952  19.470   6.420  0.00  0.00     0.044 A 
HETATM   13  C   UNK N   1      26.745  19.859   5.837  0.00  0.00    -0.048 A 
HETATM   14  C   UNK N   1      26.200  21.167   6.306  0.00  0.00     0.049 C 
BRANCH  11  15
HETATM   15  O   UNK N   1      29.679  17.888   6.742  0.00  0.00    -0.351 OA
BRANCH  15  16
HETATM   16  C   UNK N   1      29.830  16.684   7.414  0.00  0.00     0.176 C 
BRANCH  16  17
HETATM   17  C   UNK N   1      31.162  16.536   8.142  0.00  0.00     0.041 C 
BRANCH  17  18
HETATM   18  C   UNK N   1      32.149  17.608   7.692  0.00  0.00     0.142 A 
HETATM   19  S   UNK N   1      33.539  16.836   6.812  0.00  0.00     0.140 S 
HETATM   20  O   UNK N   1      34.599  17.865   6.398  0.00  0.00    -0.228 OA
HETATM   21  O   UNK N   1      32.700  17.456   5.685  0.00  0.00    -0.228 OA
HETATM   22  C   UNK N   1      33.685  18.051   8.159  0.00  0.00     0.161 A 
ENDBRANCH  17  18
ENDBRANCH  16  17
ENDBRANCH  15  16
ENDBRANCH  11  15
ENDBRANCH   1   7
BRANCH   5  23
HETATM   23  C   UNK N   1      21.148  18.137   4.440  0.00  0.00     0.214 C 
BRANCH  23  24
HETATM   24  O   UNK N   1      21.108  18.066   5.815  0.00  0.00    -0.347 OA
BRANCH  24  25
HETATM   25  C   UNK N   1      21.263  16.938   6.534  0.00  0.00     0.071 A 
HETATM   26  C   UNK N   1      22.294  16.011   6.257  0.00  0.00     0.037 A 
HETATM   27  C   UNK N   1      22.418  14.847   7.040  0.00  0.00     0.013 A 
HETATM   28  C   UNK N   1      21.490  14.635   8.060  0.00  0.00    -0.018 A 
HETATM   29  C   UNK N   1      20.497  15.517   8.309  0.00  0.00     0.078 A 
HETATM   30  C   UNK N   1      21.399  13.501   9.008  0.00  0.00     0.055 A 
HETATM   31  C   UNK N   1      20.357  16.689   7.575  0.00  0.00     0.074 A 
HETATM   32  O   UNK N   1      19.712  15.126   9.305  0.00  0.00    -0.350 OA
HETATM   33  C   UNK N   1      20.123  13.901   9.812  0.00  0.00     0.185 A 
BRANCH  30  34
HETATM   34  C   UNK N   1      22.612  13.513   9.928  0.00  0.00     0.121 C 
BRANCH  34  35
HETATM   35  C   UNK N   1      23.296  12.186   9.942  0.00  0.00     0.140 C 
HETATM   36  O   UNK N   1      22.718  11.216  10.402  0.00  0.00    -0.650 OA
BRANCH  35  37
HETATM   37  O   UNK N   1      24.538  12.052   9.442  0.00  0.00    -0.776 OA
HETATM   38  H   UNK N   1      24.765  12.467   8.632  0.00  0.00     0.167 HD
ENDBRANCH  35  37
ENDBRANCH  34  35
ENDBRANCH  30  34
ENDBRANCH  24  25
ENDBRANCH  23  24
ENDBRANCH   5  23
TORSDOF 11
ENDMDL
MODEL 8
REMARK VINA RESULT:      -8.0      1.848      2.377
REMARK  11 active torsions:
REMARK  status: ('A' for Active; 'I' for Inactive)
REMARK    1  A    between atoms: C_4  and  O_30 
REMARK    2  A    between atoms: C_7  and  C_8 
REMARK    3  A    between atoms: C_12  and  C_14 
REMARK    4  A    between atoms: C_14  and  O_15 
REMARK    5  A    between atoms: O_15  and  C_16 
REMARK    6  A    between atoms: C_24  and  C_25 
REMARK    7  A    between atoms: C_25  and  C_26 
REMARK    8  A    between atoms: C_26  and  O_28 
REMARK    9  A    between atoms: O_30  and  C_31 
REMARK   10  A    between atoms: C_31  and  C_32 
REMARK   11  A    between atoms: C_32  and  C_33 
ROOT
HETATM    1  C   UNK N   1      27.704  18.584   5.049  0.00  0.00    -0.024 A 
HETATM    2  C   UNK N   1      27.897  19.878   4.530  0.00  0.00     0.012 A 
HETATM    3  C   UNK N   1      26.887  20.535   3.818  0.00  0.00     0.002 A 
HETATM    4  C   UNK N   1      25.661  19.904   3.596  0.00  0.00     0.009 A 
HETATM    5  C   UNK N   1      25.442  18.627   4.108  0.00  0.00    -0.033 A 
HETATM    6  C   UNK N   1      26.461  17.986   4.822  0.00  0.00     0.021 A 
ENDROOT
BRANCH   1   7
HETATM    7  C   UNK N   1      28.817  17.822   5.755  0.00  0.00    -0.014 A 
HETATM    8  C   UNK N   1      29.671  16.921   5.043  0.00  0.00    -0.048 A 
HETATM    9  C   UNK N   1      30.635  16.180   5.722  0.00  0.00     0.044 A 
HETATM   10  C   UNK N   1      29.601  16.703   3.569  0.00  0.00     0.049 C 
HETATM   11  C   UNK N   1      30.810  16.302   7.097  0.00  0.00     0.069 A 
HETATM   12  C   UNK N   1      30.030  17.202   7.804  0.00  0.00     0.044 A 
HETATM   13  C   UNK N   1      29.039  17.953   7.171  0.00  0.00    -0.048 A 
HETATM   14  C   UNK N   1      28.235  18.838   8.065  0.00  0.00     0.049 C 
BRANCH  11  15
HETATM   15  O   UNK N   1      31.720  15.551   7.759  0.00  0.00    -0.351 OA
BRANCH  15  16
HETATM   16  C   UNK N   1      32.463  16.018   8.833  0.00  0.00     0.176 C 
BRANCH  16  17
HETATM   17  C   UNK N   1      33.753  15.246   9.086  0.00  0.00     0.041 C 
BRANCH  17  18
HETATM   18  C   UNK N   1      34.074  15.198  10.576  0.00  0.00     0.142 A 
HETATM   19  S   UNK N   1      35.859  15.426  10.830  0.00  0.00     0.140 S 
HETATM   20  O   UNK N   1      36.247  15.316  12.311  0.00  0.00    -0.228 OA
HETATM   21  O   UNK N   1      35.261  16.783  11.234  0.00  0.00    -0.228 OA
HETATM   22  C   UNK N   1      34.847  14.107  11.570  0.00  0.00     0.161 A 
ENDBRANCH  17  18
ENDBRANCH  16  17
ENDBRANCH  15  16
ENDBRANCH  11  15
ENDBRANCH   1   7
BRANCH   5  23
HETATM   23  C   UNK N   1      24.169  17.897   3.821  0.00  0.00     0.214 C 
BRANCH  23  24
HETATM   24  O   UNK N   1      23.234  18.305   4.745  0.00  0.00    -0.347 OA
BRANCH  24  25
HETATM   25  C   UNK N   1      22.556  17.484   5.569  0.00  0.00     0.071 A 
HETATM   26  C   UNK N   1      22.804  16.092   5.610  0.00  0.00     0.037 A 
HETATM   27  C   UNK N   1      22.072  15.276   6.492  0.00  0.00     0.013 A 
HETATM   28  C   UNK N   1      21.095  15.873   7.289  0.00  0.00    -0.018 A 
HETATM   29  C   UNK N   1      20.851  17.201   7.235  0.00  0.00     0.078 A 
HETATM   30  C   UNK N   1      20.196  15.241   8.281  0.00  0.00     0.055 A 
HETATM   31  C   UNK N   1      21.571  18.044   6.395  0.00  0.00     0.074 A 
HETATM   32  O   UNK N   1      19.876  17.570   8.056  0.00  0.00    -0.350 OA
HETATM   33  C   UNK N   1      19.361  16.477   8.741  0.00  0.00     0.185 A 
BRANCH  30  34
HETATM   34  C   UNK N   1      21.020  14.714   9.447  0.00  0.00     0.121 C 
BRANCH  34  35
HETATM   35  C   UNK N   1      20.739  13.270   9.703  0.00  0.00     0.140 C 
HETATM   36  O   UNK N   1      21.338  12.419   9.068  0.00  0.00    -0.650 OA
BRANCH  35  37
HETATM   37  O   UNK N   1      19.840  12.903  10.635  0.00  0.00    -0.776 OA
HETATM   38  H   UNK N   1      19.293  12.156  10.490  0.00  0.00     0.167 HD
ENDBRANCH  35  37
ENDBRANCH  34  35
ENDBRANCH  30  34
ENDBRANCH  24  25
ENDBRANCH  23  24
ENDBRANCH   5  23
TORSDOF 11
ENDMDL
MODEL 9
REMARK VINA RESULT:      -8.0     12.710     16.430
REMARK  11 active torsions:
REMARK  status: ('A' for Active; 'I' for Inactive)
REMARK    1  A    between atoms: C_4  and  O_30 
REMARK    2  A    between atoms: C_7  and  C_8 
REMARK    3  A    between atoms: C_12  and  C_14 
REMARK    4  A    between atoms: C_14  and  O_15 
REMARK    5  A    between atoms: O_15  and  C_16 
REMARK    6  A    between atoms: C_24  and  C_25 
REMARK    7  A    between atoms: C_25  and  C_26 
REMARK    8  A    between atoms: C_26  and  O_28 
REMARK    9  A    between atoms: O_30  and  C_31 
REMARK   10  A    between atoms: C_31  and  C_32 
REMARK   11  A    between atoms: C_32  and  C_33 
ROOT
HETATM    1  C   UNK N   1      26.231  26.788  -6.121  0.00  0.00    -0.024 A 
HETATM    2  C   UNK N   1      25.455  27.350  -5.090  0.00  0.00     0.012 A 
HETATM    3  C   UNK N   1      25.782  28.589  -4.525  0.00  0.00     0.002 A 
HETATM    4  C   UNK N   1      26.904  29.289  -4.973  0.00  0.00     0.009 A 
HETATM    5  C   UNK N   1      27.682  28.758  -6.000  0.00  0.00    -0.033 A 
HETATM    6  C   UNK N   1      27.339  27.521  -6.556  0.00  0.00     0.021 A 
ENDROOT
BRANCH   1   7
HETATM    7  C   UNK N   1      25.940  25.406  -6.690  0.00  0.00    -0.014 A 
HETATM    8  C   UNK N   1      25.967  24.238  -5.862  0.00  0.00    -0.048 A 
HETATM    9  C   UNK N   1      25.770  22.977  -6.418  0.00  0.00     0.044 A 
HETATM   10  C   UNK N   1      26.206  24.271  -4.390  0.00  0.00     0.049 C 
HETATM   11  C   UNK N   1      25.525  22.812  -7.779  0.00  0.00     0.069 A 
HETATM   12  C   UNK N   1      25.444  23.929  -8.595  0.00  0.00     0.044 A 
HETATM   13  C   UNK N   1      25.654  25.212  -8.087  0.00  0.00    -0.048 A 
HETATM   14  C   UNK N   1      25.596  26.315  -9.091  0.00  0.00     0.049 C 
BRANCH  11  15
HETATM   15  O   UNK N   1      25.373  21.582  -8.321  0.00  0.00    -0.351 OA
BRANCH  15  16
HETATM   16  C   UNK N   1      26.351  20.600  -8.276  0.00  0.00     0.176 C 
BRANCH  16  17
HETATM   17  C   UNK N   1      27.518  20.833  -9.229  0.00  0.00     0.041 C 
BRANCH  17  18
HETATM   18  C   UNK N   1      28.770  21.247  -8.464  0.00  0.00     0.142 A 
HETATM   19  S   UNK N   1      29.450  19.816  -7.573  0.00  0.00     0.140 S 
HETATM   20  O   UNK N   1      30.674  20.195  -6.729  0.00  0.00    -0.228 OA
HETATM   21  O   UNK N   1      30.401  19.982  -8.769  0.00  0.00    -0.228 OA
HETATM   22  C   UNK N   1      29.138  21.458  -6.853  0.00  0.00     0.161 A 
ENDBRANCH  17  18
ENDBRANCH  16  17
ENDBRANCH  15  16
ENDBRANCH  11  15
ENDBRANCH   1   7
BRANCH   5  23
HETATM   23  C   UNK N   1      28.931  29.449  -6.446  0.00  0.00     0.214 C 
BRANCH  23  24
HETATM   24  O   UNK N   1      29.895  29.232  -5.487  0.00  0.00    -0.347 OA
BRANCH  24  25
HETATM   25  C   UNK N   1      30.354  28.022  -5.115  0.00  0.00     0.071 A 
HETATM   26  C   UNK N   1      30.378  27.616  -3.760  0.00  0.00     0.037 A 
HETATM   27  C   UNK N   1      30.863  26.340  -3.420  0.00  0.00     0.013 A 
HETATM   28  C   UNK N   1      31.333  25.516  -4.445  0.00  0.00    -0.018 A 
HETATM   29  C   UNK N   1      31.321  25.916  -5.736  0.00  0.00     0.078 A 
HETATM   30  C   UNK N   1      31.892  24.149  -4.351  0.00  0.00     0.055 A 
HETATM   31  C   UNK N   1      30.827  27.159  -6.113  0.00  0.00     0.074 A 
HETATM   32  O   UNK N   1      31.824  24.999  -6.553  0.00  0.00    -0.350 OA
HETATM   33  C   UNK N   1      32.240  23.877  -5.848  0.00  0.00     0.185 A 
BRANCH  30  34
HETATM   34  C   UNK N   1      30.805  23.188  -3.892  0.00  0.00     0.121 C 
BRANCH  34  35
HETATM   35  C   UNK N   1      31.069  22.688  -2.510  0.00  0.00     0.140 C 
HETATM   36  O   UNK N   1      30.390  23.095  -1.583  0.00  0.00    -0.650 OA
BRANCH  35  37
HETATM   37  O   UNK N   1      32.040  21.785  -2.284  0.00  0.00    -0.776 OA
HETATM   38  H   UNK N   1      32.726  21.975  -1.674  0.00  0.00     0.167 HD
ENDBRANCH  35  37
ENDBRANCH  34  35
ENDBRANCH  30  34
ENDBRANCH  24  25
ENDBRANCH  23  24
ENDBRANCH   5  23
TORSDOF 11
ENDMDL
