MODEL 1
REMARK VINA RESULT:      -6.3      0.000      0.000
REMARK  6 active torsions:
REMARK  status: ('A' for Active; 'I' for Inactive)
REMARK    1  A    between atoms: C_3  and  C_4 
REMARK    2  A    between atoms: C_12  and  N_6 
REMARK    3  A    between atoms: C_13  and  O_20 
REMARK    4  A    between atoms: C_14  and  O_19 
REMARK    5  A    between atoms: C_15  and  C_17 
REMARK    6  A    between atoms: C_17  and  O_18 
ROOT
HETATM    1  C   UNK N   1      33.055  16.706   3.616  0.00  0.00     0.112 C 
HETATM    2  C   UNK N   1      33.512  16.805   5.003  0.00  0.00    -0.105 C 
HETATM    3  C   UNK N   1      33.877  16.835   6.150  0.00  0.00    -0.060 C 
ENDROOT
BRANCH   3   4
HETATM    4  C   UNK N   1      34.289  16.745   7.526  0.00  0.00     0.101 A 
HETATM    5  C   UNK N   1      34.806  15.541   7.969  0.00  0.00     0.124 A 
HETATM    6  N   UNK N   1      35.222  15.358   9.252  0.00  0.00    -0.278 N 
HETATM    7  C   UNK N   1      35.075  16.405  10.152  0.00  0.00     0.331 A 
HETATM    8  O   UNK N   1      35.378  16.268  11.325  0.00  0.00    -0.246 OA
HETATM    9  N   UNK N   1      34.563  17.609   9.733  0.00  0.00    -0.274 N 
HETATM   10  C   UNK N   1      34.169  17.797   8.434  0.00  0.00     0.269 A 
HETATM   11  H   UNK N   1      34.478  18.350  10.376  0.00  0.00     0.173 HD
HETATM   12  O   UNK N   1      33.707  18.872   8.089  0.00  0.00    -0.266 OA
BRANCH   6  13
HETATM   13  C   UNK N   1      35.674  14.003   9.672  0.00  0.00     0.264 C 
HETATM   14  C   UNK N   1      37.105  13.850  10.251  0.00  0.00     0.198 C 
HETATM   15  C   UNK N   1      36.833  13.486  11.663  0.00  0.00     0.182 C 
HETATM   16  C   UNK N   1      35.619  12.640  11.440  0.00  0.00     0.179 C 
HETATM   17  O   UNK N   1      34.783  13.375  10.579  0.00  0.00    -0.353 OA
BRANCH  14  18
HETATM   18  O   UNK N   1      37.952  14.958  10.184  0.00  0.00    -0.388 OA
HETATM   19  H   UNK N   1      38.685  15.112  10.798  0.00  0.00     0.210 HD
ENDBRANCH  14  18
BRANCH  15  20
HETATM   20  O   UNK N   1      37.886  12.740  12.192  0.00  0.00    -0.390 OA
HETATM   21  H   UNK N   1      38.802  13.034  12.063  0.00  0.00     0.210 HD
ENDBRANCH  15  20
BRANCH  16  22
HETATM   22  C   UNK N   1      34.929  12.296  12.745  0.00  0.00     0.198 C 
BRANCH  22  23
HETATM   23  O   UNK N   1      35.001  13.389  13.608  0.00  0.00    -0.398 OA
HETATM   24  H   UNK N   1      34.921  13.391  14.575  0.00  0.00     0.209 HD
ENDBRANCH  22  23
ENDBRANCH  16  22
ENDBRANCH   6  13
ENDBRANCH   3   4
TORSDOF 6
ENDMDL
MODEL 2
REMARK VINA RESULT:      -5.9     14.933     17.385
REMARK  6 active torsions:
REMARK  status: ('A' for Active; 'I' for Inactive)
REMARK    1  A    between atoms: C_3  and  C_4 
REMARK    2  A    between atoms: C_12  and  N_6 
REMARK    3  A    between atoms: C_13  and  O_20 
REMARK    4  A    between atoms: C_14  and  O_19 
REMARK    5  A    between atoms: C_15  and  C_17 
REMARK    6  A    between atoms: C_17  and  O_18 
ROOT
HETATM    1  C   UNK N   1      24.662  21.466  -7.281  0.00  0.00     0.112 C 
HETATM    2  C   UNK N   1      25.666  22.388  -6.750  0.00  0.00    -0.105 C 
HETATM    3  C   UNK N   1      26.480  23.132  -6.264  0.00  0.00    -0.060 C 
ENDROOT
BRANCH   3   4
HETATM    4  C   UNK N   1      27.417  23.974  -5.569  0.00  0.00     0.101 A 
HETATM    5  C   UNK N   1      28.702  23.495  -5.382  0.00  0.00     0.124 A 
HETATM    6  N   UNK N   1      29.659  24.216  -4.737  0.00  0.00    -0.278 N 
HETATM    7  C   UNK N   1      29.313  25.453  -4.210  0.00  0.00     0.331 A 
HETATM    8  O   UNK N   1      30.120  26.109  -3.573  0.00  0.00    -0.246 OA
HETATM    9  N   UNK N   1      28.042  25.947  -4.384  0.00  0.00    -0.274 N 
HETATM   10  C   UNK N   1      27.089  25.229  -5.056  0.00  0.00     0.269 A 
HETATM   11  H   UNK N   1      27.813  26.833  -4.020  0.00  0.00     0.173 HD
HETATM   12  O   UNK N   1      25.966  25.683  -5.188  0.00  0.00    -0.266 OA
BRANCH   6  13
HETATM   13  C   UNK N   1      30.986  23.588  -4.493  0.00  0.00     0.264 C 
HETATM   14  C   UNK N   1      31.360  23.196  -3.039  0.00  0.00     0.198 C 
HETATM   15  C   UNK N   1      31.399  21.715  -3.116  0.00  0.00     0.182 C 
HETATM   16  C   UNK N   1      31.969  21.583  -4.493  0.00  0.00     0.179 C 
HETATM   17  O   UNK N   1      31.224  22.453  -5.310  0.00  0.00    -0.353 OA
BRANCH  14  18
HETATM   18  O   UNK N   1      30.506  23.613  -2.017  0.00  0.00    -0.388 OA
HETATM   19  H   UNK N   1      29.987  23.005  -1.468  0.00  0.00     0.210 HD
ENDBRANCH  14  18
BRANCH  15  20
HETATM   20  O   UNK N   1      32.264  21.194  -2.152  0.00  0.00    -0.390 OA
HETATM   21  H   UNK N   1      32.197  20.261  -1.894  0.00  0.00     0.210 HD
ENDBRANCH  15  20
BRANCH  16  22
HETATM   22  C   UNK N   1      31.911  20.151  -4.987  0.00  0.00     0.198 C 
BRANCH  22  23
HETATM   23  O   UNK N   1      32.599  19.327  -4.098  0.00  0.00    -0.398 OA
HETATM   24  H   UNK N   1      32.227  18.723  -3.436  0.00  0.00     0.209 HD
ENDBRANCH  22  23
ENDBRANCH  16  22
ENDBRANCH   6  13
ENDBRANCH   3   4
TORSDOF 6
ENDMDL
MODEL 3
REMARK VINA RESULT:      -5.9     14.968     17.913
REMARK  6 active torsions:
REMARK  status: ('A' for Active; 'I' for Inactive)
REMARK    1  A    between atoms: C_3  and  C_4 
REMARK    2  A    between atoms: C_12  and  N_6 
REMARK    3  A    between atoms: C_13  and  O_20 
REMARK    4  A    between atoms: C_14  and  O_19 
REMARK    5  A    between atoms: C_15  and  C_17 
REMARK    6  A    between atoms: C_17  and  O_18 
ROOT
HETATM    1  C   UNK N   1      29.678  19.180  -8.658  0.00  0.00     0.112 C 
HETATM    2  C   UNK N   1      29.954  19.938  -7.437  0.00  0.00    -0.105 C 
HETATM    3  C   UNK N   1      30.158  20.525  -6.405  0.00  0.00    -0.060 C 
ENDROOT
BRANCH   3   4
HETATM    4  C   UNK N   1      30.344  21.127  -5.112  0.00  0.00     0.101 A 
HETATM    5  C   UNK N   1      29.567  22.226  -4.792  0.00  0.00     0.124 A 
HETATM    6  N   UNK N   1      29.670  22.865  -3.595  0.00  0.00    -0.278 N 
HETATM    7  C   UNK N   1      30.624  22.421  -2.687  0.00  0.00     0.331 A 
HETATM    8  O   UNK N   1      30.793  22.998  -1.626  0.00  0.00    -0.246 OA
HETATM    9  N   UNK N   1      31.406  21.331  -2.985  0.00  0.00    -0.274 N 
HETATM   10  C   UNK N   1      31.281  20.676  -4.182  0.00  0.00     0.269 A 
HETATM   11  H   UNK N   1      32.067  21.016  -2.328  0.00  0.00     0.173 HD
HETATM   12  O   UNK N   1      31.995  19.718  -4.428  0.00  0.00    -0.266 OA
BRANCH   6  13
HETATM   13  C   UNK N   1      28.867  24.098  -3.368  0.00  0.00     0.264 C 
HETATM   14  C   UNK N   1      29.347  25.420  -4.021  0.00  0.00     0.198 C 
HETATM   15  C   UNK N   1      28.276  25.685  -5.013  0.00  0.00     0.182 C 
HETATM   16  C   UNK N   1      27.112  25.189  -4.214  0.00  0.00     0.179 C 
HETATM   17  O   UNK N   1      27.497  23.938  -3.698  0.00  0.00    -0.353 OA
BRANCH  14  18
HETATM   18  O   UNK N   1      30.599  25.420  -4.639  0.00  0.00    -0.388 OA
HETATM   19  H   UNK N   1      31.372  24.954  -4.286  0.00  0.00     0.210 HD
ENDBRANCH  14  18
BRANCH  15  20
HETATM   20  O   UNK N   1      28.172  27.052  -5.272  0.00  0.00    -0.390 OA
HETATM   21  H   UNK N   1      28.685  27.686  -4.747  0.00  0.00     0.210 HD
ENDBRANCH  15  20
BRANCH  16  22
HETATM   22  C   UNK N   1      25.855  25.094  -5.056  0.00  0.00     0.198 C 
BRANCH  22  23
HETATM   23  O   UNK N   1      26.188  25.244  -6.402  0.00  0.00    -0.398 OA
HETATM   24  H   UNK N   1      26.662  24.618  -6.971  0.00  0.00     0.209 HD
ENDBRANCH  22  23
ENDBRANCH  16  22
ENDBRANCH   6  13
ENDBRANCH   3   4
TORSDOF 6
ENDMDL
MODEL 4
REMARK VINA RESULT:      -5.8      1.961      2.845
REMARK  6 active torsions:
REMARK  status: ('A' for Active; 'I' for Inactive)
REMARK    1  A    between atoms: C_3  and  C_4 
REMARK    2  A    between atoms: C_12  and  N_6 
REMARK    3  A    between atoms: C_13  and  O_20 
REMARK    4  A    between atoms: C_14  and  O_19 
REMARK    5  A    between atoms: C_15  and  C_17 
REMARK    6  A    between atoms: C_17  and  O_18 
ROOT
HETATM    1  C   UNK N   1      31.017  13.220   4.917  0.00  0.00     0.112 C 
HETATM    2  C   UNK N   1      31.878  14.122   5.684  0.00  0.00    -0.105 C 
HETATM    3  C   UNK N   1      32.558  14.905   6.296  0.00  0.00    -0.060 C 
ENDROOT
BRANCH   3   4
HETATM    4  C   UNK N   1      33.295  15.932   6.983  0.00  0.00     0.101 A 
HETATM    5  C   UNK N   1      33.905  15.601   8.180  0.00  0.00     0.124 A 
HETATM    6  N   UNK N   1      34.622  16.503   8.903  0.00  0.00    -0.278 N 
HETATM    7  C   UNK N   1      34.701  17.811   8.440  0.00  0.00     0.331 A 
HETATM    8  O   UNK N   1      35.283  18.667   9.085  0.00  0.00    -0.246 OA
HETATM    9  N   UNK N   1      34.102  18.160   7.254  0.00  0.00    -0.274 N 
HETATM   10  C   UNK N   1      33.402  17.243   6.517  0.00  0.00     0.269 A 
HETATM   11  H   UNK N   1      34.178  19.086   6.929  0.00  0.00     0.173 HD
HETATM   12  O   UNK N   1      32.869  17.580   5.473  0.00  0.00    -0.266 OA
BRANCH   6  13
HETATM   13  C   UNK N   1      35.163  16.092  10.228  0.00  0.00     0.264 C 
HETATM   14  C   UNK N   1      34.249  15.273  11.175  0.00  0.00     0.198 C 
HETATM   15  C   UNK N   1      34.937  13.959  11.213  0.00  0.00     0.182 C 
HETATM   16  C   UNK N   1      36.349  14.450  11.169  0.00  0.00     0.179 C 
HETATM   17  O   UNK N   1      36.399  15.402  10.134  0.00  0.00    -0.353 OA
BRANCH  14  18
HETATM   18  O   UNK N   1      32.911  15.117  10.809  0.00  0.00    -0.388 OA
HETATM   19  H   UNK N   1      32.421  14.286  10.904  0.00  0.00     0.210 HD
ENDBRANCH  14  18
BRANCH  15  20
HETATM   20  O   UNK N   1      34.664  13.294  12.410  0.00  0.00    -0.390 OA
HETATM   21  H   UNK N   1      35.376  12.836  12.883  0.00  0.00     0.210 HD
ENDBRANCH  15  20
BRANCH  16  22
HETATM   22  C   UNK N   1      37.329  13.316  10.946  0.00  0.00     0.198 C 
BRANCH  22  23
HETATM   23  O   UNK N   1      37.715  12.788  12.177  0.00  0.00    -0.398 OA
HETATM   24  H   UNK N   1      37.287  12.079  12.681  0.00  0.00     0.209 HD
ENDBRANCH  22  23
ENDBRANCH  16  22
ENDBRANCH   6  13
ENDBRANCH   3   4
TORSDOF 6
ENDMDL
MODEL 5
REMARK VINA RESULT:      -5.8     14.494     16.601
REMARK  6 active torsions:
REMARK  status: ('A' for Active; 'I' for Inactive)
REMARK    1  A    between atoms: C_3  and  C_4 
REMARK    2  A    between atoms: C_12  and  N_6 
REMARK    3  A    between atoms: C_13  and  O_20 
REMARK    4  A    between atoms: C_14  and  O_19 
REMARK    5  A    between atoms: C_15  and  C_17 
REMARK    6  A    between atoms: C_17  and  O_18 
ROOT
HETATM    1  C   UNK N   1      17.406  18.084  10.185  0.00  0.00     0.112 C 
HETATM    2  C   UNK N   1      18.348  17.397   9.302  0.00  0.00    -0.105 C 
HETATM    3  C   UNK N   1      19.096  16.786   8.580  0.00  0.00    -0.060 C 
ENDROOT
BRANCH   3   4
HETATM    4  C   UNK N   1      19.910  15.957   7.733  0.00  0.00     0.101 A 
HETATM    5  C   UNK N   1      20.298  16.468   6.507  0.00  0.00     0.124 A 
HETATM    6  N   UNK N   1      21.068  15.761   5.636  0.00  0.00    -0.278 N 
HETATM    7  C   UNK N   1      21.433  14.465   5.977  0.00  0.00     0.331 A 
HETATM    8  O   UNK N   1      22.072  13.772   5.203  0.00  0.00    -0.246 OA
HETATM    9  N   UNK N   1      21.058  13.938   7.189  0.00  0.00    -0.274 N 
HETATM   10  C   UNK N   1      20.304  14.663   8.074  0.00  0.00     0.269 A 
HETATM   11  H   UNK N   1      21.336  13.024   7.427  0.00  0.00     0.173 HD
HETATM   12  O   UNK N   1      19.974  14.169   9.139  0.00  0.00    -0.266 OA
BRANCH   6  13
HETATM   13  C   UNK N   1      21.359  16.346   4.299  0.00  0.00     0.264 C 
HETATM   14  C   UNK N   1      20.249  16.296   3.216  0.00  0.00     0.198 C 
HETATM   15  C   UNK N   1      19.912  17.732   3.050  0.00  0.00     0.182 C 
HETATM   16  C   UNK N   1      21.285  18.300   3.220  0.00  0.00     0.179 C 
HETATM   17  O   UNK N   1      21.824  17.684   4.366  0.00  0.00    -0.353 OA
BRANCH  14  18
HETATM   18  O   UNK N   1      19.103  15.551   3.497  0.00  0.00    -0.388 OA
HETATM   19  H   UNK N   1      18.224  15.941   3.616  0.00  0.00     0.210 HD
ENDBRANCH  14  18
BRANCH  15  20
HETATM   20  O   UNK N   1      19.413  17.976   1.770  0.00  0.00    -0.390 OA
HETATM   21  H   UNK N   1      19.832  18.645   1.205  0.00  0.00     0.210 HD
ENDBRANCH  15  20
BRANCH  16  22
HETATM   22  C   UNK N   1      21.253  19.810   3.349  0.00  0.00     0.198 C 
BRANCH  22  23
HETATM   23  O   UNK N   1      19.952  20.223   3.631  0.00  0.00    -0.398 OA
HETATM   24  H   UNK N   1      19.164  19.669   3.750  0.00  0.00     0.209 HD
ENDBRANCH  22  23
ENDBRANCH  16  22
ENDBRANCH   6  13
ENDBRANCH   3   4
TORSDOF 6
ENDMDL
MODEL 6
REMARK VINA RESULT:      -5.8     15.209     16.793
REMARK  6 active torsions:
REMARK  status: ('A' for Active; 'I' for Inactive)
REMARK    1  A    between atoms: C_3  and  C_4 
REMARK    2  A    between atoms: C_12  and  N_6 
REMARK    3  A    between atoms: C_13  and  O_20 
REMARK    4  A    between atoms: C_14  and  O_19 
REMARK    5  A    between atoms: C_15  and  C_17 
REMARK    6  A    between atoms: C_17  and  O_18 
ROOT
HETATM    1  C   UNK N   1      23.496  13.136  -0.256  0.00  0.00     0.112 C 
HETATM    2  C   UNK N   1      22.470  13.651   0.652  0.00  0.00    -0.105 C 
HETATM    3  C   UNK N   1      21.665  14.091   1.432  0.00  0.00    -0.060 C 
ENDROOT
BRANCH   3   4
HETATM    4  C   UNK N   1      20.801  14.656   2.434  0.00  0.00     0.101 A 
HETATM    5  C   UNK N   1      20.757  16.035   2.547  0.00  0.00     0.124 A 
HETATM    6  N   UNK N   1      19.973  16.663   3.464  0.00  0.00    -0.278 N 
HETATM    7  C   UNK N   1      19.230  15.887   4.344  0.00  0.00     0.331 A 
HETATM    8  O   UNK N   1      18.559  16.405   5.221  0.00  0.00    -0.246 OA
HETATM    9  N   UNK N   1      19.260  14.516   4.249  0.00  0.00    -0.274 N 
HETATM   10  C   UNK N   1      20.032  13.888   3.308  0.00  0.00     0.269 A 
HETATM   11  H   UNK N   1      18.717  13.977   4.868  0.00  0.00     0.173 HD
HETATM   12  O   UNK N   1      20.051  12.670   3.251  0.00  0.00    -0.266 OA
BRANCH   6  13
HETATM   13  C   UNK N   1      20.058  18.145   3.584  0.00  0.00     0.264 C 
HETATM   14  C   UNK N   1      21.366  18.765   4.142  0.00  0.00     0.198 C 
HETATM   15  C   UNK N   1      21.900  19.481   2.958  0.00  0.00     0.182 C 
HETATM   16  C   UNK N   1      20.601  19.943   2.376  0.00  0.00     0.179 C 
HETATM   17  O   UNK N   1      19.753  18.820   2.375  0.00  0.00    -0.353 OA
BRANCH  14  18
HETATM   18  O   UNK N   1      22.323  17.895   4.664  0.00  0.00    -0.388 OA
HETATM   19  H   UNK N   1      22.381  16.956   4.430  0.00  0.00     0.210 HD
ENDBRANCH  14  18
BRANCH  15  20
HETATM   20  O   UNK N   1      22.696  20.558   3.350  0.00  0.00    -0.390 OA
HETATM   21  H   UNK N   1      23.281  20.473   4.120  0.00  0.00     0.210 HD
ENDBRANCH  15  20
BRANCH  16  22
HETATM   22  C   UNK N   1      20.784  20.519   0.986  0.00  0.00     0.198 C 
BRANCH  22  23
HETATM   23  O   UNK N   1      20.562  19.521   0.039  0.00  0.00    -0.398 OA
HETATM   24  H   UNK N   1      19.806  19.428  -0.563  0.00  0.00     0.209 HD
ENDBRANCH  22  23
ENDBRANCH  16  22
ENDBRANCH   6  13
ENDBRANCH   3   4
TORSDOF 6
ENDMDL
MODEL 7
REMARK VINA RESULT:      -5.8      5.125      9.011
REMARK  6 active torsions:
REMARK  status: ('A' for Active; 'I' for Inactive)
REMARK    1  A    between atoms: C_3  and  C_4 
REMARK    2  A    between atoms: C_12  and  N_6 
REMARK    3  A    between atoms: C_13  and  O_20 
REMARK    4  A    between atoms: C_14  and  O_19 
REMARK    5  A    between atoms: C_15  and  C_17 
REMARK    6  A    between atoms: C_17  and  O_18 
ROOT
HETATM    1  C   UNK N   1      36.044   6.191  15.890  0.00  0.00     0.112 C 
HETATM    2  C   UNK N   1      35.792   7.556  16.353  0.00  0.00    -0.105 C 
HETATM    3  C   UNK N   1      35.608   8.698  16.690  0.00  0.00    -0.060 C 
ENDROOT
BRANCH   3   4
HETATM    4  C   UNK N   1      35.443  10.097  16.983  0.00  0.00     0.101 A 
HETATM    5  C   UNK N   1      35.302  10.969  15.918  0.00  0.00     0.124 A 
HETATM    6  N   UNK N   1      35.142  12.309  16.092  0.00  0.00    -0.278 N 
HETATM    7  C   UNK N   1      35.169  12.816  17.385  0.00  0.00     0.331 A 
HETATM    8  O   UNK N   1      35.089  14.016  17.587  0.00  0.00    -0.246 OA
HETATM    9  N   UNK N   1      35.308  11.968  18.457  0.00  0.00    -0.274 N 
HETATM   10  C   UNK N   1      35.444  10.617  18.278  0.00  0.00     0.269 A 
HETATM   11  H   UNK N   1      35.310  12.337  19.369  0.00  0.00     0.173 HD
HETATM   12  O   UNK N   1      35.578   9.886  19.244  0.00  0.00    -0.266 OA
BRANCH   6  13
HETATM   13  C   UNK N   1      35.095  13.187  14.891  0.00  0.00     0.264 C 
HETATM   14  C   UNK N   1      36.426  13.781  14.361  0.00  0.00     0.198 C 
HETATM   15  C   UNK N   1      36.573  13.097  13.053  0.00  0.00     0.182 C 
HETATM   16  C   UNK N   1      35.129  13.060  12.662  0.00  0.00     0.179 C 
HETATM   17  O   UNK N   1      34.432  12.589  13.790  0.00  0.00    -0.353 OA
BRANCH  14  18
HETATM   18  O   UNK N   1      37.570  13.603  15.140  0.00  0.00    -0.388 OA
HETATM   19  H   UNK N   1      38.369  14.146  15.054  0.00  0.00     0.210 HD
ENDBRANCH  14  18
BRANCH  15  20
HETATM   20  O   UNK N   1      37.322  13.877  12.170  0.00  0.00    -0.390 OA
HETATM   21  H   UNK N   1      37.243  14.844  12.190  0.00  0.00     0.210 HD
ENDBRANCH  15  20
BRANCH  16  22
HETATM   22  C   UNK N   1      34.902  12.185  11.446  0.00  0.00     0.198 C 
BRANCH  22  23
HETATM   23  O   UNK N   1      35.251  12.890  10.296  0.00  0.00    -0.398 OA
HETATM   24  H   UNK N   1      35.039  12.670   9.375  0.00  0.00     0.209 HD
ENDBRANCH  22  23
ENDBRANCH  16  22
ENDBRANCH   6  13
ENDBRANCH   3   4
TORSDOF 6
ENDMDL
MODEL 8
REMARK VINA RESULT:      -5.7      2.775      6.978
REMARK  6 active torsions:
REMARK  status: ('A' for Active; 'I' for Inactive)
REMARK    1  A    between atoms: C_3  and  C_4 
REMARK    2  A    between atoms: C_12  and  N_6 
REMARK    3  A    between atoms: C_13  and  O_20 
REMARK    4  A    between atoms: C_14  and  O_19 
REMARK    5  A    between atoms: C_15  and  C_17 
REMARK    6  A    between atoms: C_17  and  O_18 
ROOT
HETATM    1  C   UNK N   1      35.481  11.935  12.486  0.00  0.00     0.112 C 
HETATM    2  C   UNK N   1      35.238  13.124  11.668  0.00  0.00    -0.105 C 
HETATM    3  C   UNK N   1      34.987  14.102  11.011  0.00  0.00    -0.060 C 
ENDROOT
BRANCH   3   4
HETATM    4  C   UNK N   1      34.569  15.264  10.274  0.00  0.00     0.101 A 
HETATM    5  C   UNK N   1      33.374  15.195   9.580  0.00  0.00     0.124 A 
HETATM    6  N   UNK N   1      32.895  16.241   8.853  0.00  0.00    -0.278 N 
HETATM    7  C   UNK N   1      33.660  17.397   8.772  0.00  0.00     0.331 A 
HETATM    8  O   UNK N   1      33.299  18.338   8.085  0.00  0.00    -0.246 OA
HETATM    9  N   UNK N   1      34.850  17.487   9.454  0.00  0.00    -0.274 N 
HETATM   10  C   UNK N   1      35.316  16.440  10.204  0.00  0.00     0.269 A 
HETATM   11  H   UNK N   1      35.376  18.317   9.402  0.00  0.00     0.173 HD
HETATM   12  O   UNK N   1      36.381  16.540  10.791  0.00  0.00    -0.266 OA
BRANCH   6  13
HETATM   13  C   UNK N   1      31.651  16.050   8.057  0.00  0.00     0.264 C 
HETATM   14  C   UNK N   1      30.417  16.927   8.397  0.00  0.00     0.198 C 
HETATM   15  C   UNK N   1      30.291  17.770   7.183  0.00  0.00     0.182 C 
HETATM   16  C   UNK N   1      30.693  16.750   6.165  0.00  0.00     0.179 C 
HETATM   17  O   UNK N   1      31.865  16.147   6.658  0.00  0.00    -0.353 OA
BRANCH  14  18
HETATM   18  O   UNK N   1      30.484  17.721   9.542  0.00  0.00    -0.388 OA
HETATM   19  H   UNK N   1      29.750  17.826  10.167  0.00  0.00     0.210 HD
ENDBRANCH  14  18
BRANCH  15  20
HETATM   20  O   UNK N   1      28.969  18.179   7.002  0.00  0.00    -0.390 OA
HETATM   21  H   UNK N   1      28.753  19.124   6.973  0.00  0.00     0.210 HD
ENDBRANCH  15  20
BRANCH  16  22
HETATM   22  C   UNK N   1      30.906  17.375   4.801  0.00  0.00     0.198 C 
BRANCH  22  23
HETATM   23  O   UNK N   1      29.670  17.681   4.234  0.00  0.00    -0.398 OA
HETATM   24  H   UNK N   1      29.245  18.550   4.166  0.00  0.00     0.209 HD
ENDBRANCH  22  23
ENDBRANCH  16  22
ENDBRANCH   6  13
ENDBRANCH   3   4
TORSDOF 6
ENDMDL
MODEL 9
REMARK VINA RESULT:      -5.7      5.186      7.388
REMARK  6 active torsions:
REMARK  status: ('A' for Active; 'I' for Inactive)
REMARK    1  A    between atoms: C_3  and  C_4 
REMARK    2  A    between atoms: C_12  and  N_6 
REMARK    3  A    between atoms: C_13  and  O_20 
REMARK    4  A    between atoms: C_14  and  O_19 
REMARK    5  A    between atoms: C_15  and  C_17 
REMARK    6  A    between atoms: C_17  and  O_18 
ROOT
HETATM    1  C   UNK N   1      26.705  21.689   6.395  0.00  0.00     0.112 C 
HETATM    2  C   UNK N   1      27.324  20.426   5.994  0.00  0.00    -0.105 C 
HETATM    3  C   UNK N   1      27.822  19.397   5.613  0.00  0.00    -0.060 C 
ENDROOT
BRANCH   3   4
HETATM    4  C   UNK N   1      28.386  18.204   5.039  0.00  0.00     0.101 A 
HETATM    5  C   UNK N   1      29.543  17.698   5.606  0.00  0.00     0.124 A 
HETATM    6  N   UNK N   1      30.152  16.577   5.135  0.00  0.00    -0.278 N 
HETATM    7  C   UNK N   1      29.614  15.951   4.017  0.00  0.00     0.331 A 
HETATM    8  O   UNK N   1      30.159  14.978   3.523  0.00  0.00    -0.246 OA
HETATM    9  N   UNK N   1      28.467  16.438   3.439  0.00  0.00    -0.274 N 
HETATM   10  C   UNK N   1      27.843  17.553   3.932  0.00  0.00     0.269 A 
HETATM   11  H   UNK N   1      28.086  15.977   2.656  0.00  0.00     0.173 HD
HETATM   12  O   UNK N   1      26.832  17.972   3.394  0.00  0.00    -0.266 OA
BRANCH   6  13
HETATM   13  C   UNK N   1      31.445  16.155   5.740  0.00  0.00     0.264 C 
HETATM   14  C   UNK N   1      32.741  16.878   5.287  0.00  0.00     0.198 C 
HETATM   15  C   UNK N   1      33.143  17.598   6.520  0.00  0.00     0.182 C 
HETATM   16  C   UNK N   1      32.728  16.566   7.521  0.00  0.00     0.179 C 
HETATM   17  O   UNK N   1      31.427  16.170   7.158  0.00  0.00    -0.353 OA
BRANCH  14  18
HETATM   18  O   UNK N   1      32.647  17.761   4.211  0.00  0.00    -0.388 OA
HETATM   19  H   UNK N   1      32.886  17.528   3.301  0.00  0.00     0.210 HD
ENDBRANCH  14  18
BRANCH  15  20
HETATM   20  O   UNK N   1      34.523  17.805   6.542  0.00  0.00    -0.390 OA
HETATM   21  H   UNK N   1      35.121  17.070   6.751  0.00  0.00     0.210 HD
ENDBRANCH  15  20
BRANCH  16  22
HETATM   22  C   UNK N   1      32.784  17.105   8.937  0.00  0.00     0.198 C 
BRANCH  22  23
HETATM   23  O   UNK N   1      34.082  16.979   9.429  0.00  0.00    -0.398 OA
HETATM   24  H   UNK N   1      34.522  16.176   9.751  0.00  0.00     0.209 HD
ENDBRANCH  22  23
ENDBRANCH  16  22
ENDBRANCH   6  13
ENDBRANCH   3   4
TORSDOF 6
ENDMDL
