REMARK  4 active torsions:
REMARK  status: ('A' for Active; 'I' for Inactive)
REMARK    1  A    between atoms: C_17  and  C_16 
REMARK    2  A    between atoms: N_34  and  C_16 
REMARK    3  A    between atoms: N_32  and  C_19 
REMARK    4  A    between atoms: O_35  and  C_22 
REMARK       I    between atoms: N_32  and  C_23 
REMARK       I    between atoms: N_33  and  C_24 
ROOT
HETATM    1  C   UNK N   1       5.511   0.008   0.493  0.00  0.00     0.002 A 
HETATM    2  C   UNK N   1       5.417   1.301   1.062  0.00  0.00     0.002 A 
HETATM    3  C   UNK N   1       4.395  -0.578  -0.135  0.00  0.00     0.032 A 
HETATM    4  C   UNK N   1       4.209   2.022   1.001  0.00  0.00     0.032 A 
HETATM    5  C   UNK N   1      -1.791   1.034   1.024  0.00  0.00     0.046 C 
HETATM    6  C   UNK N   1      -1.616   2.847  -0.839  0.00  0.00     0.046 C 
HETATM    7  C   UNK N   1      -1.001   0.093   0.113  0.00  0.00     0.143 C 
HETATM    8  C   UNK N   1      -0.738   1.869  -1.615  0.00  0.00     0.143 C 
HETATM    9  C   UNK N   1      -2.478   2.133   0.202  0.00  0.00     0.104 C 
HETATM   10  C   UNK N   1       3.223   0.168  -0.186  0.00  0.00     0.076 A 
HETATM   11  C   UNK N   1       3.133   1.421   0.352  0.00  0.00     0.079 A 
HETATM   12  C   UNK N   1       1.239   0.878  -0.473  0.00  0.00     0.683 A 
HETATM   13  N   UNK N   1       2.032  -0.202  -0.692  0.00  0.00    -0.189 N 
ATOM     14  HN  UNK N   1       1.784  -1.086  -1.136  1.00  0.00     0.184 HD
HETATM   15  N   UNK N   1      -0.148   0.882  -0.735  0.00  0.00    -0.217 N 
HETATM   16  N   UNK N   1       1.882   1.880   0.174  0.00  0.00    -0.177 N 
ENDROOT
BRANCH  16  17
HETATM   17  C   UNK N   1       1.261   3.098   0.698  0.00  0.00     0.186 C 
BRANCH  17  18
HETATM   18  C   UNK N   1       1.927   4.395   0.349  0.00  0.00    -0.039 A 
HETATM   19  C   UNK N   1       3.073   4.469  -0.457  0.00  0.00     0.012 A 
HETATM   20  C   UNK N   1       3.689   5.703  -0.687  0.00  0.00     0.043 A 
HETATM   21  C   UNK N   1       3.162   6.866  -0.116  0.00  0.00     0.116 A 
HETATM   22  C   UNK N   1       2.012   6.797   0.672  0.00  0.00     0.043 A 
HETATM   23  F   UNK N   1       3.768   8.060  -0.322  0.00  0.00    -0.206 F 
HETATM   24  C   UNK N   1       1.399   5.565   0.904  0.00  0.00     0.012 A 
ENDBRANCH  17  18
ENDBRANCH  16  17
BRANCH   9  25
HETATM   25  N   UNK N   1      -3.875   1.931  -0.151  0.00  0.00    -0.217 N 
HETATM   26  C   UNK N   1      -4.758   3.064  -0.032  0.00  0.00     0.169 C 
HETATM   27  C   UNK N   1      -4.437   0.632  -0.354  0.00  0.00     0.682 A 
HETATM   28  N   UNK N   1      -3.639  -0.437  -0.625  0.00  0.00    -0.202 N 
HETATM   29  N   UNK N   1      -5.781   0.446  -0.233  0.00  0.00    -0.171 N 
HETATM   30  C   UNK N   1      -4.152  -1.684  -0.771  0.00  0.00     0.110 A 
ATOM     31  HN  UNK N   1      -2.633  -0.297  -0.720  1.00  0.00     0.183 HD
HETATM   32  C   UNK N   1      -5.520  -1.890  -0.628  0.00  0.00     0.074 A 
HETATM   33  C   UNK N   1      -6.330  -0.792  -0.354  0.00  0.00     0.156 A 
ATOM     34  HN  UNK N   1      -6.385   1.247  -0.048  1.00  0.00     0.186 HD
BRANCH  33  35
HETATM   35  O   UNK N   1      -7.652  -0.958  -0.193  0.00  0.00    -0.346 OA
HETATM   36  H   UNK N   1      -8.214  -0.216  -0.082  0.00  0.00     0.219 HD
ENDBRANCH  33  35
ENDBRANCH   9  25
TORSDOF 4
