REMARK  10 active torsions:
REMARK  status: ('A' for Active; 'I' for Inactive)
REMARK    1  A    between atoms: C_6  and  O_10 
REMARK    2  A    between atoms: C_7  and  O_8 
REMARK    3  A    between atoms: C_19  and  O_20 
REMARK    4  A    between atoms: O_20  and  C_21 
REMARK    5  A    between atoms: C_28  and  C_36 
REMARK    6  A    between atoms: C_30  and  O_35 
REMARK    7  A    between atoms: C_36  and  N_37 
REMARK       I    between atoms: N_37  and  C_38 
REMARK    8  A    between atoms: C_38  and  C_40 
REMARK    9  A    between atoms: C_41  and  C_42 
REMARK   10  A    between atoms: C_46  and  C_48 
ROOT
HETATM    1  C   UNK N   1      -4.542  -1.514   1.055  0.00  0.00     0.051 C 
HETATM    2  C   UNK N   1      -3.108  -1.432   0.655  0.00  0.00    -0.025 A 
HETATM    3  C   UNK N   1      -2.445  -0.233   0.922  0.00  0.00     0.017 A 
HETATM    4  C   UNK N   1      -1.112  -0.055   0.561  0.00  0.00    -0.044 A 
HETATM    5  C   UNK N   1      -0.421  -1.091  -0.087  0.00  0.00     0.019 A 
HETATM    6  C   UNK N   1      -1.066  -2.307  -0.352  0.00  0.00     0.108 A 
HETATM    7  C   UNK N   1      -2.412  -2.498   0.012  0.00  0.00     0.107 A 
HETATM    8  C   UNK N   1       1.005  -0.853  -0.519  0.00  0.00     0.293 C 
HETATM    9  C   UNK N   1       1.910  -1.124   0.698  0.00  0.00     0.269 C 
HETATM   10  C   UNK N   1       2.567  -2.497   0.690  0.00  0.00     0.081 C 
HETATM   11  C   UNK N   1       4.048  -2.497   0.414  0.00  0.00    -0.010 A 
HETATM   12  C   UNK N   1       4.770  -1.290   0.223  0.00  0.00     0.022 A 
HETATM   13  C   UNK N   1       6.149  -1.392   0.009  0.00  0.00     0.114 A 
HETATM   14  C   UNK N   1       6.787  -2.567  -0.027  0.00  0.00     0.114 A 
HETATM   15  C   UNK N   1       6.124  -3.781   0.133  0.00  0.00     0.009 A 
HETATM   16  C   UNK N   1       4.719  -3.745   0.347  0.00  0.00     0.095 A 
HETATM   17  C   UNK N   1       6.904  -5.053   0.113  0.00  0.00     0.054 C 
HETATM   18  O   UNK N   1       8.088  -2.361  -0.223  0.00  0.00    -0.322 OA
HETATM   19  C   UNK N   1       8.309  -0.985  -0.320  0.00  0.00     0.352 A 
HETATM   20  O   UNK N   1       7.043  -0.417  -0.164  0.00  0.00    -0.322 OA
HETATM   21  C   UNK N   1       4.068   0.045   0.285  0.00  0.00     0.281 C 
HETATM   22  N   UNK N   1       2.818  -0.030   1.079  0.00  0.00     0.137 N 
HETATM   23  C   UNK N   1       2.123   1.268   1.172  0.00  0.00     0.392 C 
HETATM   24  C   UNK N   1       0.945   1.445   0.176  0.00  0.00     0.286 C 
HETATM   25  C   UNK N   1      -0.462   1.281   0.806  0.00  0.00     0.079 C 
HETATM   26  N   UNK N   1       1.155   0.544  -0.965  0.00  0.00     0.104 N 
HETATM   27  C   UNK N   1       0.288   0.871  -2.094  0.00  0.00     0.311 C 
ENDROOT
BRANCH  21  28
HETATM   28  C   UNK N   1       3.894   0.739  -1.089  0.00  0.00     0.164 C 
BRANCH  28  29
HETATM   29  N   UNK N   1       5.093   1.297  -1.690  0.00  0.00    -0.355 N 
HETATM   30  C   UNK N   1       6.011   2.061  -1.041  0.00  0.00     0.241 C 
HETATM   31  O   UNK N   1       6.984   2.469  -1.652  0.00  0.00    -0.269 OA
HETATM   32  H   UNK N   1       5.253   1.106  -2.643  0.00  0.00     0.162 HD
BRANCH  30  33
HETATM   33  C   UNK N   1       5.958   2.230   0.425  0.00  0.00     0.075 C 
HETATM   34  C   UNK N   1       5.101   3.016   1.083  0.00  0.00     0.017 C 
BRANCH  34  35
HETATM   35  C   UNK N   1       4.336   4.110   0.482  0.00  0.00    -0.035 A 
HETATM   36  C   UNK N   1       2.953   4.026   0.295  0.00  0.00     0.011 A 
HETATM   37  C   UNK N   1       2.230   5.152  -0.112  0.00  0.00     0.002 A 
HETATM   38  C   UNK N   1       2.884   6.379  -0.273  0.00  0.00     0.016 A 
HETATM   39  C   UNK N   1       4.267   6.470  -0.059  0.00  0.00     0.048 A 
HETATM   40  C   UNK N   1       4.982   5.330   0.312  0.00  0.00     0.027 A 
BRANCH  39  41
HETATM   41  C   UNK N   1       4.968   7.790  -0.154  0.00  0.00     0.417 C 
HETATM   42  F   UNK N   1       4.452   8.645   0.804  0.00  0.00    -0.166 F 
HETATM   43  F   UNK N   1       6.328   7.645   0.071  0.00  0.00    -0.166 F 
HETATM   44  F   UNK N   1       4.777   8.337  -1.408  0.00  0.00    -0.166 F 
ENDBRANCH  39  41
ENDBRANCH  34  35
ENDBRANCH  30  33
ENDBRANCH  28  29
ENDBRANCH  21  28
BRANCH  23  45
HETATM   45  O   UNK N   1       1.760   1.553   2.489  0.00  0.00    -0.366 OA
HETATM   46  H   UNK N   1       1.806   1.871   3.405  0.00  0.00     0.212 HD
ENDBRANCH  23  45
BRANCH  16  47
HETATM   47  O   UNK N   1       3.980  -4.876   0.500  0.00  0.00    -0.278 OA
BRANCH  47  48
HETATM   48  C   UNK N   1       3.995  -5.937  -0.347  0.00  0.00     0.260 C 
HETATM   49  O   UNK N   1       4.632  -5.904  -1.390  0.00  0.00    -0.265 OA
HETATM   50  C   UNK N   1       3.125  -7.109  -0.059  0.00  0.00     0.126 C 
ENDBRANCH  47  48
ENDBRANCH  16  47
BRANCH   6  51
HETATM   51  O   UNK N   1      -0.395  -3.300  -0.966  0.00  0.00    -0.357 OA
HETATM   52  H   UNK N   1      -0.760  -4.050  -1.393  0.00  0.00     0.217 HD
ENDBRANCH   6  51
BRANCH   7  53
HETATM   53  O   UNK N   1      -2.976  -3.703  -0.284  0.00  0.00    -0.353 OA
HETATM   54  C   UNK N   1      -4.267  -4.092  -0.015  0.00  0.00     0.210 C 
ENDBRANCH   7  53
TORSDOF 10
