MODEL 1
REMARK VINA RESULT:      -6.0      0.000      0.000
REMARK  6 active torsions:
REMARK  status: ('A' for Active; 'I' for Inactive)
REMARK    1  A    between atoms: C_4  and  C_2 
REMARK    2  A    between atoms: N_8  and  C_2 
REMARK    3  A    between atoms: O_14  and  C_4 
REMARK    4  A    between atoms: C_6  and  C_5 
REMARK    5  A    between atoms: N_12  and  C_5 
REMARK    6  A    between atoms: O_15  and  C_6 
REMARK       I    between atoms: N_13  and  C_7 
ROOT
HETATM    1  C   UNK N   1      32.662  16.068   8.052  0.00  0.00     0.215 C 
ENDROOT
BRANCH   1   2
HETATM    2  C   UNK N   1      31.471  17.002   8.081  0.00  0.00     0.130 C 
HETATM    3  N   UNK N   1      30.982  17.393   9.203  0.00  0.00    -0.371 N 
ATOM      4  HN  UNK N   1      31.425  17.052  10.056  1.00  0.00     0.161 HD
BRANCH   3   5
HETATM    5  C   UNK N   1      29.859  18.274   9.342  0.00  0.00     0.147 C 
BRANCH   5   6
HETATM    6  C   UNK N   1      28.632  17.396   9.502  0.00  0.00     0.183 C 
BRANCH   6   7
HETATM    7  O   UNK N   1      27.474  18.159   9.391  0.00  0.00    -0.399 OA
HETATM    8  H   UNK N   1      27.504  19.115   9.557  0.00  0.00     0.209 HD
ENDBRANCH   6   7
ENDBRANCH   5   6
ENDBRANCH   3   5
BRANCH   2   9
HETATM    9  O   UNK N   1      30.932  17.416   6.915  0.00  0.00    -0.348 OA
HETATM   10  H   UNK N   1      30.028  17.249   6.732  0.00  0.00     0.219 HD
ENDBRANCH   2   9
ENDBRANCH   1   2
BRANCH   1  11
HETATM   11  N   UNK N   1      33.669  16.255   9.117  0.00  0.00    -0.315 N 
HETATM   12  C   UNK N   1      33.923  15.458  10.176  0.00  0.00     0.112 A 
HETATM   13  C   UNK N   1      34.948  16.021  10.911  0.00  0.00     0.108 A 
HETATM   14  N   UNK N   1      35.330  17.164  10.309  0.00  0.00    -0.332 N 
HETATM   15  C   UNK N   1      34.539  17.282   9.226  0.00  0.00     0.252 A 
ATOM     16  HN  UNK N   1      36.063  17.806  10.612  1.00  0.00     0.168 HD
HETATM   17  N   UNK N   1      34.633  18.373   8.320  0.00  0.00    -0.079 N 
HETATM   18  O   UNK N   1      35.441  19.232   8.510  0.00  0.00    -0.529 OA
HETATM   19  O   UNK N   1      33.915  18.442   7.371  0.00  0.00    -0.529 OA
ENDBRANCH   1  11
TORSDOF 6
ENDMDL
MODEL 2
REMARK VINA RESULT:      -5.6      2.405      2.649
REMARK  6 active torsions:
REMARK  status: ('A' for Active; 'I' for Inactive)
REMARK    1  A    between atoms: C_4  and  C_2 
REMARK    2  A    between atoms: N_8  and  C_2 
REMARK    3  A    between atoms: O_14  and  C_4 
REMARK    4  A    between atoms: C_6  and  C_5 
REMARK    5  A    between atoms: N_12  and  C_5 
REMARK    6  A    between atoms: O_15  and  C_6 
REMARK       I    between atoms: N_13  and  C_7 
ROOT
HETATM    1  C   UNK N   1      33.725  15.517   7.134  0.00  0.00     0.215 C 
ENDROOT
BRANCH   1   2
HETATM    2  C   UNK N   1      32.250  15.626   6.813  0.00  0.00     0.130 C 
HETATM    3  N   UNK N   1      31.739  16.760   6.492  0.00  0.00    -0.371 N 
ATOM      4  HN  UNK N   1      32.362  17.567   6.465  1.00  0.00     0.161 HD
BRANCH   3   5
HETATM    5  C   UNK N   1      30.358  16.972   6.171  0.00  0.00     0.147 C 
BRANCH   5   6
HETATM    6  C   UNK N   1      30.268  17.048   4.658  0.00  0.00     0.183 C 
BRANCH   6   7
HETATM    7  O   UNK N   1      31.180  17.977   4.165  0.00  0.00    -0.399 OA
HETATM    8  H   UNK N   1      31.554  17.866   3.277  0.00  0.00     0.209 HD
ENDBRANCH   6   7
ENDBRANCH   5   6
ENDBRANCH   3   5
BRANCH   2   9
HETATM    9  O   UNK N   1      31.481  14.517   6.868  0.00  0.00    -0.348 OA
HETATM   10  H   UNK N   1      30.983  14.332   7.640  0.00  0.00     0.219 HD
ENDBRANCH   2   9
ENDBRANCH   1   2
BRANCH   1  11
HETATM   11  N   UNK N   1      34.129  15.899   8.503  0.00  0.00    -0.315 N 
HETATM   12  C   UNK N   1      34.142  15.133   9.615  0.00  0.00     0.112 A 
HETATM   13  C   UNK N   1      34.592  15.902  10.670  0.00  0.00     0.108 A 
HETATM   14  N   UNK N   1      34.857  17.143  10.215  0.00  0.00    -0.332 N 
HETATM   15  C   UNK N   1      34.568  17.112   8.900  0.00  0.00     0.252 A 
ATOM     16  HN  UNK N   1      35.204  17.937  10.753  1.00  0.00     0.168 HD
HETATM   17  N   UNK N   1      34.718  18.244   8.053  0.00  0.00    -0.079 N 
HETATM   18  O   UNK N   1      35.116  19.274   8.508  0.00  0.00    -0.529 OA
HETATM   19  O   UNK N   1      34.451  18.178   6.893  0.00  0.00    -0.529 OA
ENDBRANCH   1  11
TORSDOF 6
ENDMDL
MODEL 3
REMARK VINA RESULT:      -5.5      3.807      5.310
REMARK  6 active torsions:
REMARK  status: ('A' for Active; 'I' for Inactive)
REMARK    1  A    between atoms: C_4  and  C_2 
REMARK    2  A    between atoms: N_8  and  C_2 
REMARK    3  A    between atoms: O_14  and  C_4 
REMARK    4  A    between atoms: C_6  and  C_5 
REMARK    5  A    between atoms: N_12  and  C_5 
REMARK    6  A    between atoms: O_15  and  C_6 
REMARK       I    between atoms: N_13  and  C_7 
ROOT
HETATM    1  C   UNK N   1      34.639  14.558  10.268  0.00  0.00     0.215 C 
ENDROOT
BRANCH   1   2
HETATM    2  C   UNK N   1      34.369  16.021   9.988  0.00  0.00     0.130 C 
HETATM    3  N   UNK N   1      33.636  16.365   8.992  0.00  0.00    -0.371 N 
ATOM      4  HN  UNK N   1      33.250  15.622   8.410  1.00  0.00     0.161 HD
BRANCH   3   5
HETATM    5  C   UNK N   1      33.319  17.718   8.640  0.00  0.00     0.147 C 
BRANCH   5   6
HETATM    6  C   UNK N   1      34.469  18.230   7.793  0.00  0.00     0.183 C 
BRANCH   6   7
HETATM    7  O   UNK N   1      35.240  19.133   8.519  0.00  0.00    -0.399 OA
HETATM    8  H   UNK N   1      36.086  18.851   8.902  0.00  0.00     0.209 HD
ENDBRANCH   6   7
ENDBRANCH   5   6
ENDBRANCH   3   5
BRANCH   2   9
HETATM    9  O   UNK N   1      34.910  16.955  10.799  0.00  0.00    -0.348 OA
HETATM   10  H   UNK N   1      34.355  17.494  11.326  0.00  0.00     0.219 HD
ENDBRANCH   2   9
ENDBRANCH   1   2
BRANCH   1  11
HETATM   11  N   UNK N   1      36.057  14.162  10.386  0.00  0.00    -0.315 N 
HETATM   12  C   UNK N   1      37.004  14.149   9.424  0.00  0.00     0.112 A 
HETATM   13  C   UNK N   1      38.188  13.708   9.982  0.00  0.00     0.108 A 
HETATM   14  N   UNK N   1      37.977  13.449  11.287  0.00  0.00    -0.332 N 
HETATM   15  C   UNK N   1      36.679  13.733  11.505  0.00  0.00     0.252 A 
ATOM     16  HN  UNK N   1      38.659  13.109  11.967  1.00  0.00     0.168 HD
HETATM   17  N   UNK N   1      36.063  13.586  12.778  0.00  0.00    -0.079 N 
HETATM   18  O   UNK N   1      36.707  13.197  13.705  0.00  0.00    -0.529 OA
HETATM   19  O   UNK N   1      34.910  13.848  12.931  0.00  0.00    -0.529 OA
ENDBRANCH   1  11
TORSDOF 6
ENDMDL
MODEL 4
REMARK VINA RESULT:      -5.4      2.555      4.690
REMARK  6 active torsions:
REMARK  status: ('A' for Active; 'I' for Inactive)
REMARK    1  A    between atoms: C_4  and  C_2 
REMARK    2  A    between atoms: N_8  and  C_2 
REMARK    3  A    between atoms: O_14  and  C_4 
REMARK    4  A    between atoms: C_6  and  C_5 
REMARK    5  A    between atoms: N_12  and  C_5 
REMARK    6  A    between atoms: O_15  and  C_6 
REMARK       I    between atoms: N_13  and  C_7 
ROOT
HETATM    1  C   UNK N   1      33.416  18.111   8.344  0.00  0.00     0.215 C 
ENDROOT
BRANCH   1   2
HETATM    2  C   UNK N   1      34.346  17.068   8.924  0.00  0.00     0.130 C 
HETATM    3  N   UNK N   1      34.491  16.965  10.196  0.00  0.00    -0.371 N 
ATOM      4  HN  UNK N   1      33.960  17.606  10.786  1.00  0.00     0.161 HD
BRANCH   3   5
HETATM    5  C   UNK N   1      35.344  16.014  10.847  0.00  0.00     0.147 C 
BRANCH   5   6
HETATM    6  C   UNK N   1      34.530  14.747  11.027  0.00  0.00     0.183 C 
BRANCH   6   7
HETATM    7  O   UNK N   1      33.184  15.057  11.195  0.00  0.00    -0.399 OA
HETATM    8  H   UNK N   1      32.747  15.670  10.583  0.00  0.00     0.209 HD
ENDBRANCH   6   7
ENDBRANCH   5   6
ENDBRANCH   3   5
BRANCH   2   9
HETATM    9  O   UNK N   1      35.020  16.250   8.088  0.00  0.00    -0.348 OA
HETATM   10  H   UNK N   1      35.790  15.808   8.386  0.00  0.00     0.219 HD
ENDBRANCH   2   9
ENDBRANCH   1   2
BRANCH   1  11
HETATM   11  N   UNK N   1      32.181  17.608   7.707  0.00  0.00    -0.315 N 
HETATM   12  C   UNK N   1      30.990  17.346   8.285  0.00  0.00     0.112 A 
HETATM   13  C   UNK N   1      30.122  16.893   7.310  0.00  0.00     0.108 A 
HETATM   14  N   UNK N   1      30.773  16.875   6.130  0.00  0.00    -0.332 N 
HETATM   15  C   UNK N   1      32.017  17.313   6.400  0.00  0.00     0.252 A 
ATOM     16  HN  UNK N   1      30.400  16.590   5.224  1.00  0.00     0.168 HD
HETATM   17  N   UNK N   1      33.022  17.438   5.401  0.00  0.00    -0.079 N 
HETATM   18  O   UNK N   1      32.770  17.148   4.270  0.00  0.00    -0.529 OA
HETATM   19  O   UNK N   1      34.113  17.829   5.679  0.00  0.00    -0.529 OA
ENDBRANCH   1  11
TORSDOF 6
ENDMDL
MODEL 5
REMARK VINA RESULT:      -5.4      4.046      6.392
REMARK  6 active torsions:
REMARK  status: ('A' for Active; 'I' for Inactive)
REMARK    1  A    between atoms: C_4  and  C_2 
REMARK    2  A    between atoms: N_8  and  C_2 
REMARK    3  A    between atoms: O_14  and  C_4 
REMARK    4  A    between atoms: C_6  and  C_5 
REMARK    5  A    between atoms: N_12  and  C_5 
REMARK    6  A    between atoms: O_15  and  C_6 
REMARK       I    between atoms: N_13  and  C_7 
ROOT
HETATM    1  C   UNK N   1      35.684  13.612  10.675  0.00  0.00     0.215 C 
ENDROOT
BRANCH   1   2
HETATM    2  C   UNK N   1      35.616  13.392  12.171  0.00  0.00     0.130 C 
HETATM    3  N   UNK N   1      36.668  13.530  12.894  0.00  0.00    -0.371 N 
ATOM      4  HN  UNK N   1      37.534  13.789  12.423  1.00  0.00     0.161 HD
BRANCH   3   5
HETATM    5  C   UNK N   1      36.712  13.345  14.315  0.00  0.00     0.147 C 
BRANCH   5   6
HETATM    6  C   UNK N   1      36.700  14.729  14.936  0.00  0.00     0.183 C 
BRANCH   6   7
HETATM    7  O   UNK N   1      37.820  14.907  15.743  0.00  0.00    -0.399 OA
HETATM    8  H   UNK N   1      37.924  15.724  16.256  0.00  0.00     0.209 HD
ENDBRANCH   6   7
ENDBRANCH   5   6
ENDBRANCH   3   5
BRANCH   2   9
HETATM    9  O   UNK N   1      34.436  13.049  12.731  0.00  0.00    -0.348 OA
HETATM   10  H   UNK N   1      34.246  13.305  13.612  0.00  0.00     0.219 HD
ENDBRANCH   2   9
ENDBRANCH   1   2
BRANCH   1  11
HETATM   11  N   UNK N   1      34.614  14.441  10.083  0.00  0.00    -0.315 N 
HETATM   12  C   UNK N   1      33.432  14.039   9.572  0.00  0.00     0.112 A 
HETATM   13  C   UNK N   1      32.745  15.154   9.130  0.00  0.00     0.108 A 
HETATM   14  N   UNK N   1      33.500  16.244   9.366  0.00  0.00    -0.332 N 
HETATM   15  C   UNK N   1      34.625  15.784   9.944  0.00  0.00     0.252 A 
ATOM     16  HN  UNK N   1      33.267  17.215   9.152  1.00  0.00     0.168 HD
HETATM   17  N   UNK N   1      35.687  16.639  10.350  0.00  0.00    -0.079 N 
HETATM   18  O   UNK N   1      35.595  17.817  10.179  0.00  0.00    -0.529 OA
HETATM   19  O   UNK N   1      36.669  16.194  10.858  0.00  0.00    -0.529 OA
ENDBRANCH   1  11
TORSDOF 6
ENDMDL
MODEL 6
REMARK VINA RESULT:      -5.4      3.222      4.164
REMARK  6 active torsions:
REMARK  status: ('A' for Active; 'I' for Inactive)
REMARK    1  A    between atoms: C_4  and  C_2 
REMARK    2  A    between atoms: N_8  and  C_2 
REMARK    3  A    between atoms: O_14  and  C_4 
REMARK    4  A    between atoms: C_6  and  C_5 
REMARK    5  A    between atoms: N_12  and  C_5 
REMARK    6  A    between atoms: O_15  and  C_6 
REMARK       I    between atoms: N_13  and  C_7 
ROOT
HETATM    1  C   UNK N   1      34.318  15.172   7.596  0.00  0.00     0.215 C 
ENDROOT
BRANCH   1   2
HETATM    2  C   UNK N   1      33.517  13.888   7.632  0.00  0.00     0.130 C 
HETATM    3  N   UNK N   1      34.114  12.752   7.626  0.00  0.00    -0.371 N 
ATOM      4  HN  UNK N   1      35.133  12.754   7.597  1.00  0.00     0.161 HD
BRANCH   3   5
HETATM    5  C   UNK N   1      33.451  11.480   7.658  0.00  0.00     0.147 C 
BRANCH   5   6
HETATM    6  C   UNK N   1      33.330  11.087   9.118  0.00  0.00     0.183 C 
BRANCH   6   7
HETATM    7  O   UNK N   1      32.055  11.379   9.593  0.00  0.00    -0.399 OA
HETATM    8  H   UNK N   1      31.925  11.611  10.526  0.00  0.00     0.209 HD
ENDBRANCH   6   7
ENDBRANCH   5   6
ENDBRANCH   3   5
BRANCH   2   9
HETATM    9  O   UNK N   1      32.169  13.956   7.670  0.00  0.00    -0.348 OA
HETATM   10  H   UNK N   1      31.712  13.741   8.460  0.00  0.00     0.219 HD
ENDBRANCH   2   9
ENDBRANCH   1   2
BRANCH   1  11
HETATM   11  N   UNK N   1      34.632  15.787   8.902  0.00  0.00    -0.315 N 
HETATM   12  C   UNK N   1      34.776  15.179  10.099  0.00  0.00     0.112 A 
HETATM   13  C   UNK N   1      35.067  16.142  11.046  0.00  0.00     0.108 A 
HETATM   14  N   UNK N   1      35.103  17.344  10.439  0.00  0.00    -0.332 N 
HETATM   15  C   UNK N   1      34.837  17.099   9.142  0.00  0.00     0.252 A 
ATOM     16  HN  UNK N   1      35.293  18.248  10.871  1.00  0.00     0.168 HD
HETATM   17  N   UNK N   1      34.784  18.127   8.161  0.00  0.00    -0.079 N 
HETATM   18  O   UNK N   1      34.982  19.261   8.481  0.00  0.00    -0.529 OA
HETATM   19  O   UNK N   1      34.545  17.871   7.021  0.00  0.00    -0.529 OA
ENDBRANCH   1  11
TORSDOF 6
ENDMDL
MODEL 7
REMARK VINA RESULT:      -5.4      3.249      4.698
REMARK  6 active torsions:
REMARK  status: ('A' for Active; 'I' for Inactive)
REMARK    1  A    between atoms: C_4  and  C_2 
REMARK    2  A    between atoms: N_8  and  C_2 
REMARK    3  A    between atoms: O_14  and  C_4 
REMARK    4  A    between atoms: C_6  and  C_5 
REMARK    5  A    between atoms: N_12  and  C_5 
REMARK    6  A    between atoms: O_15  and  C_6 
REMARK       I    between atoms: N_13  and  C_7 
ROOT
HETATM    1  C   UNK N   1      28.852  17.288   6.481  0.00  0.00     0.215 C 
ENDROOT
BRANCH   1   2
HETATM    2  C   UNK N   1      28.395  18.514   5.721  0.00  0.00     0.130 C 
HETATM    3  N   UNK N   1      27.581  19.347   6.265  0.00  0.00    -0.371 N 
ATOM      4  HN  UNK N   1      27.264  19.147   7.213  1.00  0.00     0.161 HD
BRANCH   3   5
HETATM    5  C   UNK N   1      27.087  20.536   5.634  0.00  0.00     0.147 C 
BRANCH   5   6
HETATM    6  C   UNK N   1      26.500  21.401   6.733  0.00  0.00     0.183 C 
BRANCH   6   7
HETATM    7  O   UNK N   1      26.318  20.654   7.893  0.00  0.00    -0.399 OA
HETATM    8  H   UNK N   1      25.521  20.111   8.000  0.00  0.00     0.209 HD
ENDBRANCH   6   7
ENDBRANCH   5   6
ENDBRANCH   3   5
BRANCH   2   9
HETATM    9  O   UNK N   1      28.852  18.720   4.468  0.00  0.00    -0.348 OA
HETATM   10  H   UNK N   1      28.471  18.256   3.749  0.00  0.00     0.219 HD
ENDBRANCH   2   9
ENDBRANCH   1   2
BRANCH   1  11
HETATM   11  N   UNK N   1      30.144  17.399   7.190  0.00  0.00    -0.315 N 
HETATM   12  C   UNK N   1      31.371  17.046   6.750  0.00  0.00     0.112 A 
HETATM   13  C   UNK N   1      32.288  17.327   7.744  0.00  0.00     0.108 A 
HETATM   14  N   UNK N   1      31.633  17.852   8.798  0.00  0.00    -0.332 N 
HETATM   15  C   UNK N   1      30.337  17.884   8.435  0.00  0.00     0.252 A 
ATOM     16  HN  UNK N   1      32.035  18.160   9.684  1.00  0.00     0.168 HD
HETATM   17  N   UNK N   1      29.311  18.378   9.287  0.00  0.00    -0.079 N 
HETATM   18  O   UNK N   1      29.591  18.786  10.374  0.00  0.00    -0.529 OA
HETATM   19  O   UNK N   1      28.174  18.390   8.930  0.00  0.00    -0.529 OA
ENDBRANCH   1  11
TORSDOF 6
ENDMDL
MODEL 8
REMARK VINA RESULT:      -5.2     14.240     15.282
REMARK  6 active torsions:
REMARK  status: ('A' for Active; 'I' for Inactive)
REMARK    1  A    between atoms: C_4  and  C_2 
REMARK    2  A    between atoms: N_8  and  C_2 
REMARK    3  A    between atoms: O_14  and  C_4 
REMARK    4  A    between atoms: C_6  and  C_5 
REMARK    5  A    between atoms: N_12  and  C_5 
REMARK    6  A    between atoms: O_15  and  C_6 
REMARK       I    between atoms: N_13  and  C_7 
ROOT
HETATM    1  C   UNK N   1      28.416  24.171  -3.156  0.00  0.00     0.215 C 
ENDROOT
BRANCH   1   2
HETATM    2  C   UNK N   1      27.139  24.763  -3.712  0.00  0.00     0.130 C 
HETATM    3  N   UNK N   1      27.141  25.939  -4.228  0.00  0.00    -0.371 N 
ATOM      4  HN  UNK N   1      28.026  26.445  -4.246  1.00  0.00     0.161 HD
BRANCH   3   5
HETATM    5  C   UNK N   1      25.989  26.590  -4.781  0.00  0.00     0.147 C 
BRANCH   5   6
HETATM    6  C   UNK N   1      25.891  27.948  -4.111  0.00  0.00     0.183 C 
BRANCH   6   7
HETATM    7  O   UNK N   1      25.519  27.803  -2.777  0.00  0.00    -0.399 OA
HETATM    8  H   UNK N   1      24.613  27.542  -2.552  0.00  0.00     0.209 HD
ENDBRANCH   6   7
ENDBRANCH   5   6
ENDBRANCH   3   5
BRANCH   2   9
HETATM    9  O   UNK N   1      26.001  24.039  -3.657  0.00  0.00    -0.348 OA
HETATM   10  H   UNK N   1      25.739  23.639  -2.850  0.00  0.00     0.219 HD
ENDBRANCH   2   9
ENDBRANCH   1   2
BRANCH   1  11
HETATM   11  N   UNK N   1      29.188  23.303  -4.068  0.00  0.00    -0.315 N 
HETATM   12  C   UNK N   1      28.972  23.067  -5.380  0.00  0.00     0.112 A 
HETATM   13  C   UNK N   1      29.940  22.190  -5.831  0.00  0.00     0.108 A 
HETATM   14  N   UNK N   1      30.754  21.883  -4.803  0.00  0.00    -0.332 N 
HETATM   15  C   UNK N   1      30.276  22.570  -3.749  0.00  0.00     0.252 A 
ATOM     16  HN  UNK N   1      31.563  21.261  -4.821  1.00  0.00     0.168 HD
HETATM   17  N   UNK N   1      30.871  22.511  -2.458  0.00  0.00    -0.079 N 
HETATM   18  O   UNK N   1      31.835  21.829  -2.283  0.00  0.00    -0.529 OA
HETATM   19  O   UNK N   1      30.419  23.134  -1.549  0.00  0.00    -0.529 OA
ENDBRANCH   1  11
TORSDOF 6
ENDMDL
MODEL 9
REMARK VINA RESULT:      -5.2      2.638      4.179
REMARK  6 active torsions:
REMARK  status: ('A' for Active; 'I' for Inactive)
REMARK    1  A    between atoms: C_4  and  C_2 
REMARK    2  A    between atoms: N_8  and  C_2 
REMARK    3  A    between atoms: O_14  and  C_4 
REMARK    4  A    between atoms: C_6  and  C_5 
REMARK    5  A    between atoms: N_12  and  C_5 
REMARK    6  A    between atoms: O_15  and  C_6 
REMARK       I    between atoms: N_13  and  C_7 
ROOT
HETATM    1  C   UNK N   1      32.769  15.939   8.023  0.00  0.00     0.215 C 
ENDROOT
BRANCH   1   2
HETATM    2  C   UNK N   1      33.247  15.158   6.818  0.00  0.00     0.130 C 
HETATM    3  N   UNK N   1      33.736  15.772   5.801  0.00  0.00    -0.371 N 
ATOM      4  HN  UNK N   1      33.786  16.789   5.843  1.00  0.00     0.161 HD
BRANCH   3   5
HETATM    5  C   UNK N   1      34.217  15.129   4.613  0.00  0.00     0.147 C 
BRANCH   5   6
HETATM    6  C   UNK N   1      33.364  15.638   3.466  0.00  0.00     0.183 C 
BRANCH   6   7
HETATM    7  O   UNK N   1      33.900  15.232   2.247  0.00  0.00    -0.399 OA
HETATM    8  H   UNK N   1      33.749  14.329   1.927  0.00  0.00     0.209 HD
ENDBRANCH   6   7
ENDBRANCH   5   6
ENDBRANCH   3   5
BRANCH   2   9
HETATM    9  O   UNK N   1      33.152  13.811   6.827  0.00  0.00    -0.348 OA
HETATM   10  H   UNK N   1      33.270  13.340   7.628  0.00  0.00     0.219 HD
ENDBRANCH   2   9
ENDBRANCH   1   2
BRANCH   1  11
HETATM   11  N   UNK N   1      33.762  16.169   9.092  0.00  0.00    -0.315 N 
HETATM   12  C   UNK N   1      34.058  15.374  10.143  0.00  0.00     0.112 A 
HETATM   13  C   UNK N   1      35.049  15.985  10.887  0.00  0.00     0.108 A 
HETATM   14  N   UNK N   1      35.367  17.155  10.300  0.00  0.00    -0.332 N 
HETATM   15  C   UNK N   1      34.573  17.241   9.216  0.00  0.00     0.252 A 
ATOM     16  HN  UNK N   1      36.063  17.833  10.612  1.00  0.00     0.168 HD
HETATM   17  N   UNK N   1      34.608  18.347   8.323  0.00  0.00    -0.079 N 
HETATM   18  O   UNK N   1      35.367  19.246   8.526  0.00  0.00    -0.529 OA
HETATM   19  O   UNK N   1      33.889  18.387   7.373  0.00  0.00    -0.529 OA
ENDBRANCH   1  11
TORSDOF 6
ENDMDL
