MODEL 1
REMARK VINA RESULT:      -7.1      0.000      0.000
REMARK  2 active torsions:
REMARK  status: ('A' for Active; 'I' for Inactive)
REMARK    1  A    between atoms: C_13  and  C_11 
REMARK    2  A    between atoms: N_21  and  C_11 
REMARK       I    between atoms: N_22  and  C_16 
ROOT
HETATM    1  C   UNK N   1      35.895  12.813  14.281  0.00  0.00     0.035 A 
HETATM    2  C   UNK N   1      34.981  12.335  13.347  0.00  0.00     0.107 A 
HETATM    3  C   UNK N   1      36.459  14.069  14.077  0.00  0.00     0.107 A 
HETATM    4  C   UNK N   1      34.937  17.188   9.527  0.00  0.00     0.293 C 
HETATM    5  C   UNK N   1      33.867  15.326   8.683  0.00  0.00     0.293 C 
HETATM    6  C   UNK N   1      35.369  16.462  10.812  0.00  0.00     0.171 C 
HETATM    7  C   UNK N   1      34.000  14.484   9.934  0.00  0.00     0.171 C 
HETATM    8  C   UNK N   1      35.219  14.320  12.075  0.00  0.00     0.679 A 
HETATM    9  N   UNK N   1      34.663  13.089  12.263  0.00  0.00    -0.202 N 
ATOM     10  HN  UNK N   1      33.998  12.729  11.579  1.00  0.00     0.183 HD
HETATM   11  N   UNK N   1      36.111  14.801  12.987  0.00  0.00    -0.202 N 
ATOM     12  HN  UNK N   1      36.523  15.724  12.848  1.00  0.00     0.183 HD
HETATM   13  N   UNK N   1      33.641  16.707   9.072  0.00  0.00     0.095 N 
HETATM   14  N   UNK N   1      34.876  15.088  10.928  0.00  0.00    -0.214 N 
ENDROOT
BRANCH  13  15
HETATM   15  C   UNK N   1      33.260  17.458   7.877  0.00  0.00     0.311 C 
BRANCH  15  16
HETATM   16  C   UNK N   1      31.763  17.575   7.724  0.00  0.00    -0.027 A 
HETATM   17  C   UNK N   1      30.964  18.189   8.728  0.00  0.00     0.012 A 
HETATM   18  C   UNK N   1      29.567  18.247   8.595  0.00  0.00     0.040 A 
HETATM   19  C   UNK N   1      29.009  17.687   7.453  0.00  0.00     0.105 A 
HETATM   20  C   UNK N   1      29.753  17.114   6.499  0.00  0.00     0.105 A 
HETATM   21  O   UNK N   1      27.724  17.613   7.113  0.00  0.00    -0.323 OA
HETATM   22  C   UNK N   1      31.142  17.030   6.583  0.00  0.00     0.048 A 
HETATM   23  O   UNK N   1      28.955  16.667   5.532  0.00  0.00    -0.323 OA
HETATM   24  C   UNK N   1      27.632  16.963   5.878  0.00  0.00     0.352 A 
ENDBRANCH  15  16
ENDBRANCH  13  15
TORSDOF 2
ENDMDL
MODEL 2
REMARK VINA RESULT:      -6.8      1.361      2.125
REMARK  2 active torsions:
REMARK  status: ('A' for Active; 'I' for Inactive)
REMARK    1  A    between atoms: C_13  and  C_11 
REMARK    2  A    between atoms: N_21  and  C_11 
REMARK       I    between atoms: N_22  and  C_16 
ROOT
HETATM    1  C   UNK N   1      34.892  11.139  13.801  0.00  0.00     0.035 A 
HETATM    2  C   UNK N   1      34.512  10.980  12.472  0.00  0.00     0.107 A 
HETATM    3  C   UNK N   1      35.314  12.396  14.226  0.00  0.00     0.107 A 
HETATM    4  C   UNK N   1      35.367  16.792  10.564  0.00  0.00     0.293 C 
HETATM    5  C   UNK N   1      34.998  15.293   8.850  0.00  0.00     0.293 C 
HETATM    6  C   UNK N   1      35.334  15.697  11.643  0.00  0.00     0.171 C 
HETATM    7  C   UNK N   1      34.724  14.098   9.739  0.00  0.00     0.171 C 
HETATM    8  C   UNK N   1      34.975  13.266  12.051  0.00  0.00     0.679 A 
HETATM    9  N   UNK N   1      34.564  12.038  11.622  0.00  0.00    -0.202 N 
ATOM     10  HN  UNK N   1      34.291  11.913  10.648  1.00  0.00     0.183 HD
HETATM   11  N   UNK N   1      35.344  13.435  13.352  0.00  0.00    -0.202 N 
ATOM     12  HN  UNK N   1      35.647  14.355  13.673  1.00  0.00     0.183 HD
HETATM   13  N   UNK N   1      34.448  16.479   9.481  0.00  0.00     0.095 N 
HETATM   14  N   UNK N   1      35.028  14.358  11.139  0.00  0.00    -0.214 N 
ENDROOT
BRANCH  13  15
HETATM   15  C   UNK N   1      34.488  17.569   8.507  0.00  0.00     0.311 C 
BRANCH  15  16
HETATM   16  C   UNK N   1      33.434  17.424   7.436  0.00  0.00    -0.027 A 
HETATM   17  C   UNK N   1      33.779  17.414   6.057  0.00  0.00     0.012 A 
HETATM   18  C   UNK N   1      32.783  17.328   5.071  0.00  0.00     0.040 A 
HETATM   19  C   UNK N   1      31.463  17.251   5.499  0.00  0.00     0.105 A 
HETATM   20  C   UNK N   1      31.129  17.251   6.795  0.00  0.00     0.105 A 
HETATM   21  O   UNK N   1      30.359  17.172   4.759  0.00  0.00    -0.323 OA
HETATM   22  C   UNK N   1      32.079  17.336   7.812  0.00  0.00     0.048 A 
HETATM   23  O   UNK N   1      29.805  17.169   6.905  0.00  0.00    -0.323 OA
HETATM   24  C   UNK N   1      29.257  17.117   5.618  0.00  0.00     0.352 A 
ENDBRANCH  15  16
ENDBRANCH  13  15
TORSDOF 2
ENDMDL
MODEL 3
REMARK VINA RESULT:      -6.5      9.773     11.109
REMARK  2 active torsions:
REMARK  status: ('A' for Active; 'I' for Inactive)
REMARK    1  A    between atoms: C_13  and  C_11 
REMARK    2  A    between atoms: N_21  and  C_11 
REMARK       I    between atoms: N_22  and  C_16 
ROOT
HETATM    1  C   UNK N   1      23.182  11.870  12.577  0.00  0.00     0.035 A 
HETATM    2  C   UNK N   1      21.952  12.045  11.951  0.00  0.00     0.107 A 
HETATM    3  C   UNK N   1      24.342  12.122  11.847  0.00  0.00     0.107 A 
HETATM    4  C   UNK N   1      23.981  13.931   6.431  0.00  0.00     0.293 C 
HETATM    5  C   UNK N   1      21.728  13.436   6.478  0.00  0.00     0.293 C 
HETATM    6  C   UNK N   1      24.191  13.509   7.895  0.00  0.00     0.171 C 
HETATM    7  C   UNK N   1      21.654  13.166   7.965  0.00  0.00     0.171 C 
HETATM    8  C   UNK N   1      23.045  12.696   9.952  0.00  0.00     0.679 A 
HETATM    9  N   UNK N   1      21.903  12.448  10.655  0.00  0.00    -0.202 N 
ATOM     10  HN  UNK N   1      20.998  12.567  10.201  1.00  0.00     0.183 HD
HETATM   11  N   UNK N   1      24.255  12.534  10.556  0.00  0.00    -0.202 N 
ATOM     12  HN  UNK N   1      25.109  12.725  10.030  1.00  0.00     0.183 HD
HETATM   13  N   UNK N   1      22.664  14.522   6.247  0.00  0.00     0.095 N 
HETATM   14  N   UNK N   1      22.967  13.111   8.593  0.00  0.00    -0.214 N 
ENDROOT
BRANCH  13  15
HETATM   15  C   UNK N   1      22.534  14.943   4.852  0.00  0.00     0.311 C 
BRANCH  15  16
HETATM   16  C   UNK N   1      22.076  16.375   4.724  0.00  0.00    -0.027 A 
HETATM   17  C   UNK N   1      21.911  17.203   5.867  0.00  0.00     0.012 A 
HETATM   18  C   UNK N   1      21.437  18.519   5.736  0.00  0.00     0.040 A 
HETATM   19  C   UNK N   1      21.141  18.968   4.456  0.00  0.00     0.105 A 
HETATM   20  C   UNK N   1      21.301  18.199   3.372  0.00  0.00     0.105 A 
HETATM   21  O   UNK N   1      20.675  20.158   4.086  0.00  0.00    -0.323 OA
HETATM   22  C   UNK N   1      21.767  16.887   3.448  0.00  0.00     0.048 A 
HETATM   23  O   UNK N   1      20.941  18.887   2.291  0.00  0.00    -0.323 OA
HETATM   24  C   UNK N   1      20.527  20.161   2.695  0.00  0.00     0.352 A 
ENDBRANCH  15  16
ENDBRANCH  13  15
TORSDOF 2
ENDMDL
MODEL 4
REMARK VINA RESULT:      -6.3      9.921     13.193
REMARK  2 active torsions:
REMARK  status: ('A' for Active; 'I' for Inactive)
REMARK    1  A    between atoms: C_13  and  C_11 
REMARK    2  A    between atoms: N_21  and  C_11 
REMARK       I    between atoms: N_22  and  C_16 
ROOT
HETATM    1  C   UNK N   1      20.401  19.345   2.605  0.00  0.00     0.035 A 
HETATM    2  C   UNK N   1      21.411  19.693   3.498  0.00  0.00     0.107 A 
HETATM    3  C   UNK N   1      20.129  17.995   2.403  0.00  0.00     0.107 A 
HETATM    4  C   UNK N   1      23.066  14.016   5.281  0.00  0.00     0.293 C 
HETATM    5  C   UNK N   1      24.518  15.671   5.969  0.00  0.00     0.293 C 
HETATM    6  C   UNK N   1      22.177  15.001   4.504  0.00  0.00     0.171 C 
HETATM    7  C   UNK N   1      23.694  16.832   5.455  0.00  0.00     0.171 C 
HETATM    8  C   UNK N   1      21.829  17.403   3.940  0.00  0.00     0.679 A 
HETATM    9  N   UNK N   1      22.108  18.722   4.143  0.00  0.00    -0.202 N 
ATOM     10  HN  UNK N   1      22.851  18.985   4.790  1.00  0.00     0.183 HD
HETATM   11  N   UNK N   1      20.839  17.050   3.073  0.00  0.00    -0.202 N 
ATOM     12  HN  UNK N   1      20.628  16.063   2.925  1.00  0.00     0.183 HD
HETATM   13  N   UNK N   1      23.620  14.646   6.469  0.00  0.00     0.095 N 
HETATM   14  N   UNK N   1      22.579  16.404   4.622  0.00  0.00    -0.214 N 
ENDROOT
BRANCH  13  15
HETATM   15  C   UNK N   1      24.418  13.656   7.191  0.00  0.00     0.311 C 
BRANCH  15  16
HETATM   16  C   UNK N   1      23.764  13.216   8.478  0.00  0.00    -0.027 A 
HETATM   17  C   UNK N   1      24.525  12.651   9.538  0.00  0.00     0.012 A 
HETATM   18  C   UNK N   1      23.895  12.200  10.709  0.00  0.00     0.040 A 
HETATM   19  C   UNK N   1      22.514  12.330  10.785  0.00  0.00     0.105 A 
HETATM   20  C   UNK N   1      21.791  12.868   9.796  0.00  0.00     0.105 A 
HETATM   21  O   UNK N   1      21.705  11.971  11.779  0.00  0.00    -0.323 OA
HETATM   22  C   UNK N   1      22.366  13.330   8.614  0.00  0.00     0.048 A 
HETATM   23  O   UNK N   1      20.505  12.864  10.144  0.00  0.00    -0.323 OA
HETATM   24  C   UNK N   1      20.393  12.294  11.417  0.00  0.00     0.352 A 
ENDBRANCH  15  16
ENDBRANCH  13  15
TORSDOF 2
ENDMDL
MODEL 5
REMARK VINA RESULT:      -6.0      2.070      3.045
REMARK  2 active torsions:
REMARK  status: ('A' for Active; 'I' for Inactive)
REMARK    1  A    between atoms: C_13  and  C_11 
REMARK    2  A    between atoms: N_21  and  C_11 
REMARK       I    between atoms: N_22  and  C_16 
ROOT
HETATM    1  C   UNK N   1      36.061  13.439  15.872  0.00  0.00     0.035 A 
HETATM    2  C   UNK N   1      35.251  12.562  15.159  0.00  0.00     0.107 A 
HETATM    3  C   UNK N   1      36.830  14.360  15.165  0.00  0.00     0.107 A 
HETATM    4  C   UNK N   1      36.545  14.540   9.453  0.00  0.00     0.293 C 
HETATM    5  C   UNK N   1      35.365  12.560   9.508  0.00  0.00     0.293 C 
HETATM    6  C   UNK N   1      36.651  14.619  10.985  0.00  0.00     0.171 C 
HETATM    7  C   UNK N   1      35.167  12.532  11.008  0.00  0.00     0.171 C 
HETATM    8  C   UNK N   1      35.983  13.521  13.119  0.00  0.00     0.679 A 
HETATM    9  N   UNK N   1      35.229  12.613  13.802  0.00  0.00    -0.202 N 
ATOM     10  HN  UNK N   1      34.638  11.962  13.285  1.00  0.00     0.183 HD
HETATM   11  N   UNK N   1      36.776  14.390  13.808  0.00  0.00    -0.202 N 
ATOM     12  HN  UNK N   1      37.336  15.072  13.297  1.00  0.00     0.183 HD
HETATM   13  N   UNK N   1      35.285  13.936   9.052  0.00  0.00     0.095 N 
HETATM   14  N   UNK N   1      35.948  13.550  11.697  0.00  0.00    -0.214 N 
ENDROOT
BRANCH  13  15
HETATM   15  C   UNK N   1      35.218  13.925   7.591  0.00  0.00     0.311 C 
BRANCH  15  16
HETATM   16  C   UNK N   1      34.199  14.902   7.054  0.00  0.00    -0.027 A 
HETATM   17  C   UNK N   1      34.498  15.749   5.953  0.00  0.00     0.012 A 
HETATM   18  C   UNK N   1      33.558  16.687   5.496  0.00  0.00     0.040 A 
HETATM   19  C   UNK N   1      32.338  16.747   6.159  0.00  0.00     0.105 A 
HETATM   20  C   UNK N   1      32.045  15.947   7.192  0.00  0.00     0.105 A 
HETATM   21  O   UNK N   1      31.306  17.551   5.917  0.00  0.00    -0.323 OA
HETATM   22  C   UNK N   1      32.942  15.001   7.684  0.00  0.00     0.048 A 
HETATM   23  O   UNK N   1      30.817  16.226   7.625  0.00  0.00    -0.323 OA
HETATM   24  C   UNK N   1      30.294  17.257   6.836  0.00  0.00     0.352 A 
ENDBRANCH  15  16
ENDBRANCH  13  15
TORSDOF 2
ENDMDL
MODEL 6
REMARK VINA RESULT:      -6.0      4.364      8.444
REMARK  2 active torsions:
REMARK  status: ('A' for Active; 'I' for Inactive)
REMARK    1  A    between atoms: C_13  and  C_11 
REMARK    2  A    between atoms: N_21  and  C_11 
REMARK       I    between atoms: N_22  and  C_16 
ROOT
HETATM    1  C   UNK N   1      31.095  16.053   3.145  0.00  0.00     0.035 A 
HETATM    2  C   UNK N   1      30.981  15.098   4.150  0.00  0.00     0.107 A 
HETATM    3  C   UNK N   1      31.852  17.195   3.395  0.00  0.00     0.107 A 
HETATM    4  C   UNK N   1      34.489  17.837   8.432  0.00  0.00     0.293 C 
HETATM    5  C   UNK N   1      33.288  16.034   9.224  0.00  0.00     0.293 C 
HETATM    6  C   UNK N   1      33.875  17.737   7.026  0.00  0.00     0.171 C 
HETATM    7  C   UNK N   1      32.717  15.621   7.884  0.00  0.00     0.171 C 
HETATM    8  C   UNK N   1      32.339  16.416   5.577  0.00  0.00     0.679 A 
HETATM    9  N   UNK N   1      31.596  15.295   5.345  0.00  0.00    -0.202 N 
ATOM     10  HN  UNK N   1      31.502  14.595   6.079  1.00  0.00     0.183 HD
HETATM   11  N   UNK N   1      32.463  17.355   4.598  0.00  0.00    -0.202 N 
ATOM     12  HN  UNK N   1      33.022  18.191   4.771  1.00  0.00     0.183 HD
HETATM   13  N   UNK N   1      34.643  16.518   9.025  0.00  0.00     0.095 N 
HETATM   14  N   UNK N   1      32.968  16.603   6.839  0.00  0.00    -0.214 N 
ENDROOT
BRANCH  13  15
HETATM   15  C   UNK N   1      35.268  16.667  10.338  0.00  0.00     0.311 C 
BRANCH  15  16
HETATM   16  C   UNK N   1      35.984  15.414  10.781  0.00  0.00    -0.027 A 
HETATM   17  C   UNK N   1      36.770  14.653   9.874  0.00  0.00     0.012 A 
HETATM   18  C   UNK N   1      37.389  13.462  10.288  0.00  0.00     0.040 A 
HETATM   19  C   UNK N   1      37.202  13.069  11.607  0.00  0.00     0.105 A 
HETATM   20  C   UNK N   1      36.471  13.783  12.470  0.00  0.00     0.105 A 
HETATM   21  O   UNK N   1      37.676  11.987  12.220  0.00  0.00    -0.323 OA
HETATM   22  C   UNK N   1      35.835  14.970  12.110  0.00  0.00     0.048 A 
HETATM   23  O   UNK N   1      36.467  13.169  13.652  0.00  0.00    -0.323 OA
HETATM   24  C   UNK N   1      37.231  12.001  13.546  0.00  0.00     0.352 A 
ENDBRANCH  15  16
ENDBRANCH  13  15
TORSDOF 2
ENDMDL
MODEL 7
REMARK VINA RESULT:      -6.0      2.735      3.937
REMARK  2 active torsions:
REMARK  status: ('A' for Active; 'I' for Inactive)
REMARK    1  A    between atoms: C_13  and  C_11 
REMARK    2  A    between atoms: N_21  and  C_11 
REMARK       I    between atoms: N_22  and  C_16 
ROOT
HETATM    1  C   UNK N   1      36.564  14.616  17.101  0.00  0.00     0.035 A 
HETATM    2  C   UNK N   1      35.622  13.658  16.738  0.00  0.00     0.107 A 
HETATM    3  C   UNK N   1      37.286  15.253  16.096  0.00  0.00     0.107 A 
HETATM    4  C   UNK N   1      36.284  13.986  10.606  0.00  0.00     0.293 C 
HETATM    5  C   UNK N   1      35.013  12.196  11.313  0.00  0.00     0.293 C 
HETATM    6  C   UNK N   1      36.589  14.446  12.042  0.00  0.00     0.171 C 
HETATM    7  C   UNK N   1      35.007  12.572  12.780  0.00  0.00     0.171 C 
HETATM    8  C   UNK N   1      36.140  13.995  14.450  0.00  0.00     0.679 A 
HETATM    9  N   UNK N   1      35.430  13.361  15.428  0.00  0.00    -0.202 N 
ATOM     10  HN  UNK N   1      34.743  12.653  15.169  1.00  0.00     0.183 HD
HETATM   11  N   UNK N   1      37.061  14.939  14.794  0.00  0.00    -0.202 N 
ATOM     12  HN  UNK N   1      37.588  15.416  14.062  1.00  0.00     0.183 HD
HETATM   13  N   UNK N   1      34.951  13.410  10.520  0.00  0.00     0.095 N 
HETATM   14  N   UNK N   1      35.925  13.661  13.084  0.00  0.00    -0.214 N 
ENDROOT
BRANCH  13  15
HETATM   15  C   UNK N   1      34.698  13.031   9.130  0.00  0.00     0.311 C 
BRANCH  15  16
HETATM   16  C   UNK N   1      33.975  14.111   8.362  0.00  0.00    -0.027 A 
HETATM   17  C   UNK N   1      32.565  14.264   8.453  0.00  0.00     0.012 A 
HETATM   18  C   UNK N   1      31.900  15.241   7.694  0.00  0.00     0.040 A 
HETATM   19  C   UNK N   1      32.674  16.041   6.862  0.00  0.00     0.105 A 
HETATM   20  C   UNK N   1      34.003  15.909   6.775  0.00  0.00     0.105 A 
HETATM   21  O   UNK N   1      32.274  17.017   6.050  0.00  0.00    -0.323 OA
HETATM   22  C   UNK N   1      34.710  14.956   7.506  0.00  0.00     0.048 A 
HETATM   23  O   UNK N   1      34.475  16.802   5.907  0.00  0.00    -0.323 OA
HETATM   24  C   UNK N   1      33.398  17.544   5.407  0.00  0.00     0.352 A 
ENDBRANCH  15  16
ENDBRANCH  13  15
TORSDOF 2
ENDMDL
MODEL 8
REMARK VINA RESULT:      -5.9     10.749     12.858
REMARK  2 active torsions:
REMARK  status: ('A' for Active; 'I' for Inactive)
REMARK    1  A    between atoms: C_13  and  C_11 
REMARK    2  A    between atoms: N_21  and  C_11 
REMARK       I    between atoms: N_22  and  C_16 
ROOT
HETATM    1  C   UNK N   1      22.808  11.816  11.208  0.00  0.00     0.035 A 
HETATM    2  C   UNK N   1      23.726  12.175  10.226  0.00  0.00     0.107 A 
HETATM    3  C   UNK N   1      21.528  12.361  11.153  0.00  0.00     0.107 A 
HETATM    4  C   UNK N   1      20.109  15.918   6.901  0.00  0.00     0.293 C 
HETATM    5  C   UNK N   1      22.338  16.012   6.316  0.00  0.00     0.293 C 
HETATM    6  C   UNK N   1      20.365  14.927   8.049  0.00  0.00     0.171 C 
HETATM    7  C   UNK N   1      22.795  14.903   7.240  0.00  0.00     0.171 C 
HETATM    8  C   UNK N   1      22.107  13.569   9.201  0.00  0.00     0.679 A 
HETATM    9  N   UNK N   1      23.365  13.044   9.247  0.00  0.00    -0.202 N 
ATOM     10  HN  UNK N   1      24.046  13.308   8.536  1.00  0.00     0.183 HD
HETATM   11  N   UNK N   1      21.197  13.219  10.153  0.00  0.00    -0.202 N 
ATOM     12  HN  UNK N   1      20.255  13.609  10.115  1.00  0.00     0.183 HD
HETATM   13  N   UNK N   1      21.025  15.677   5.797  0.00  0.00     0.095 N 
HETATM   14  N   UNK N   1      21.755  14.483   8.169  0.00  0.00    -0.214 N 
ENDROOT
BRANCH  13  15
HETATM   15  C   UNK N   1      20.711  16.614   4.719  0.00  0.00     0.311 C 
BRANCH  15  16
HETATM   16  C   UNK N   1      20.344  15.912   3.434  0.00  0.00    -0.027 A 
HETATM   17  C   UNK N   1      20.743  16.428   2.171  0.00  0.00     0.012 A 
HETATM   18  C   UNK N   1      20.352  15.792   0.982  0.00  0.00     0.040 A 
HETATM   19  C   UNK N   1      19.569  14.649   1.094  0.00  0.00     0.105 A 
HETATM   20  C   UNK N   1      19.196  14.152   2.279  0.00  0.00     0.105 A 
HETATM   21  O   UNK N   1      19.075  13.888   0.121  0.00  0.00    -0.323 OA
HETATM   22  C   UNK N   1      19.556  14.745   3.488  0.00  0.00     0.048 A 
HETATM   23  O   UNK N   1      18.458  13.061   2.082  0.00  0.00    -0.323 OA
HETATM   24  C   UNK N   1      18.347  12.846   0.703  0.00  0.00     0.352 A 
ENDBRANCH  15  16
ENDBRANCH  13  15
TORSDOF 2
ENDMDL
MODEL 9
REMARK VINA RESULT:      -5.8      6.265      9.757
REMARK  2 active torsions:
REMARK  status: ('A' for Active; 'I' for Inactive)
REMARK    1  A    between atoms: C_13  and  C_11 
REMARK    2  A    between atoms: N_21  and  C_11 
REMARK       I    between atoms: N_22  and  C_16 
ROOT
HETATM    1  C   UNK N   1      20.683  13.057  10.375  0.00  0.00     0.035 A 
HETATM    2  C   UNK N   1      20.505  14.171   9.560  0.00  0.00     0.107 A 
HETATM    3  C   UNK N   1      21.860  12.322  10.249  0.00  0.00     0.107 A 
HETATM    4  C   UNK N   1      25.873  13.959   6.513  0.00  0.00     0.293 C 
HETATM    5  C   UNK N   1      24.353  15.449   5.623  0.00  0.00     0.293 C 
HETATM    6  C   UNK N   1      24.890  13.468   7.589  0.00  0.00     0.171 C 
HETATM    7  C   UNK N   1      23.306  15.274   6.703  0.00  0.00     0.171 C 
HETATM    8  C   UNK N   1      22.615  13.790   8.552  0.00  0.00     0.679 A 
HETATM    9  N   UNK N   1      21.465  14.515   8.664  0.00  0.00    -0.202 N 
ATOM     10  HN  UNK N   1      21.324  15.328   8.065  1.00  0.00     0.183 HD
HETATM   11  N   UNK N   1      22.804  12.701   9.349  0.00  0.00    -0.202 N 
ATOM     12  HN  UNK N   1      23.667  12.162   9.268  1.00  0.00     0.183 HD
HETATM   13  N   UNK N   1      25.669  15.372   6.232  0.00  0.00     0.095 N 
HETATM   14  N   UNK N   1      23.604  14.167   7.600  0.00  0.00    -0.214 N 
ENDROOT
BRANCH  13  15
HETATM   15  C   UNK N   1      26.654  15.796   5.238  0.00  0.00     0.311 C 
BRANCH  15  16
HETATM   16  C   UNK N   1      27.958  16.224   5.866  0.00  0.00    -0.027 A 
HETATM   17  C   UNK N   1      29.202  15.721   5.397  0.00  0.00     0.012 A 
HETATM   18  C   UNK N   1      30.404  16.090   6.023  0.00  0.00     0.040 A 
HETATM   19  C   UNK N   1      30.323  16.958   7.105  0.00  0.00     0.105 A 
HETATM   20  C   UNK N   1      29.157  17.443   7.547  0.00  0.00     0.105 A 
HETATM   21  O   UNK N   1      31.313  17.436   7.855  0.00  0.00    -0.323 OA
HETATM   22  C   UNK N   1      27.937  17.108   6.963  0.00  0.00     0.048 A 
HETATM   23  O   UNK N   1      29.383  18.243   8.587  0.00  0.00    -0.323 OA
HETATM   24  C   UNK N   1      30.761  18.274   8.830  0.00  0.00     0.352 A 
ENDBRANCH  15  16
ENDBRANCH  13  15
TORSDOF 2
ENDMDL
