MODEL 1
REMARK VINA RESULT:      -8.5      0.000      0.000
REMARK  6 active torsions:
REMARK  status: ('A' for Active; 'I' for Inactive)
REMARK    1  A    between atoms: C_2  and  C_3 
REMARK    2  A    between atoms: C_2  and  N_22 
REMARK    3  A    between atoms: C_3  and  N_4 
REMARK    4  A    between atoms: N_4  and  C_5 
REMARK       I    between atoms: N_4  and  C_12 
REMARK    5  A    between atoms: C_12  and  C_14 
REMARK    6  A    between atoms: N_25  and  C_28 
ROOT
HETATM    1  C   UNK N   1      31.234  16.496   6.181  0.00  0.00     0.032 A 
HETATM    2  C   UNK N   1      32.292  16.931   5.369  0.00  0.00     0.018 A 
HETATM    3  C   UNK N   1      33.332  17.672   5.964  0.00  0.00     0.024 A 
HETATM    4  C   UNK N   1      33.262  17.982   7.345  0.00  0.00     0.044 A 
HETATM    5  C   UNK N   1      32.148  17.645   8.081  0.00  0.00     0.024 A 
HETATM    6  C   UNK N   1      31.150  16.902   7.510  0.00  0.00     0.018 A 
HETATM    7  C   UNK N   1      34.373  18.517   8.069  0.00  0.00     0.099 C 
HETATM    8  N   UNK N   1      35.292  18.949   8.621  0.00  0.00    -0.191 NA
ENDROOT
BRANCH   1   9
HETATM    9  C   UNK N   1      30.293  15.461   5.772  0.00  0.00     0.259 C 
HETATM   10  N   UNK N   1      29.110  15.825   5.164  0.00  0.00    -0.297 N 
HETATM   11  O   UNK N   1      30.551  14.282   5.984  0.00  0.00    -0.267 OA
BRANCH  10  12
HETATM   12  C   UNK N   1      28.248  14.797   4.679  0.00  0.00     0.169 C 
BRANCH  12  13
HETATM   13  C   UNK N   1      27.808  15.270   3.321  0.00  0.00     0.237 C 
HETATM   14  C   UNK N   1      28.707  14.740   2.180  0.00  0.00     0.044 C 
BRANCH  13  15
HETATM   15  N   UNK N   1      26.375  15.093   3.189  0.00  0.00     0.097 N 
HETATM   16  C   UNK N   1      25.774  16.367   2.779  0.00  0.00     0.292 C 
HETATM   17  C   UNK N   1      25.001  17.001   3.894  0.00  0.00     0.153 C 
HETATM   18  N   UNK N   1      24.014  16.018   4.200  0.00  0.00    -0.375 N 
HETATM   19  C   UNK N   1      24.487  14.840   4.898  0.00  0.00     0.153 C 
HETATM   20  C   UNK N   1      25.937  14.512   4.485  0.00  0.00     0.292 C 
BRANCH  18  21
HETATM   21  C   UNK N   1      22.820  15.930   3.406  0.00  0.00     0.067 A 
HETATM   22  C   UNK N   1      22.548  14.736   2.717  0.00  0.00     0.032 A 
HETATM   23  C   UNK N   1      21.410  14.607   1.917  0.00  0.00     0.005 A 
HETATM   24  C   UNK N   1      20.517  15.670   1.784  0.00  0.00     0.040 A 
HETATM   25  C   UNK N   1      20.764  16.873   2.442  0.00  0.00     0.104 A 
HETATM   26  C   UNK N   1      21.913  17.026   3.242  0.00  0.00     0.128 A 
HETATM   27  O   UNK N   1      19.892  17.907   2.314  0.00  0.00    -0.346 OA
HETATM   28  O   UNK N   1      22.130  18.248   3.797  0.00  0.00    -0.344 OA
HETATM   29  C   UNK N   1      21.505  19.375   3.288  0.00  0.00     0.202 C 
HETATM   30  C   UNK N   1      20.025  19.071   3.054  0.00  0.00     0.202 C 
ENDBRANCH  18  21
ENDBRANCH  13  15
ENDBRANCH  12  13
ENDBRANCH  10  12
BRANCH  10  31
HETATM   31  C   UNK N   1      28.491  17.113   5.372  0.00  0.00     0.110 A 
HETATM   32  C   UNK N   1      28.744  18.169   4.470  0.00  0.00     0.049 A 
HETATM   33  C   UNK N   1      28.411  19.476   4.809  0.00  0.00     0.005 A 
HETATM   34  C   UNK N   1      27.843  19.741   6.052  0.00  0.00     0.017 A 
HETATM   35  C   UNK N   1      27.606  18.685   6.933  0.00  0.00     0.089 A 
HETATM   36  N   UNK N   1      27.952  17.414   6.591  0.00  0.00    -0.352 N 
ATOM     37  HN  UNK N   1      27.804  16.662   7.265  1.00  0.00     0.166 HD
ENDBRANCH  10  31
ENDBRANCH   1   9
TORSDOF 6
ENDMDL
MODEL 2
REMARK VINA RESULT:      -8.1      4.140     11.001
REMARK  6 active torsions:
REMARK  status: ('A' for Active; 'I' for Inactive)
REMARK    1  A    between atoms: C_2  and  C_3 
REMARK    2  A    between atoms: C_2  and  N_22 
REMARK    3  A    between atoms: C_3  and  N_4 
REMARK    4  A    between atoms: N_4  and  C_5 
REMARK       I    between atoms: N_4  and  C_12 
REMARK    5  A    between atoms: C_12  and  C_14 
REMARK    6  A    between atoms: N_25  and  C_28 
ROOT
HETATM    1  C   UNK N   1      27.897  18.153   5.139  0.00  0.00     0.032 A 
HETATM    2  C   UNK N   1      28.188  19.506   4.909  0.00  0.00     0.018 A 
HETATM    3  C   UNK N   1      27.321  20.246   4.081  0.00  0.00     0.024 A 
HETATM    4  C   UNK N   1      26.210  19.600   3.485  0.00  0.00     0.044 A 
HETATM    5  C   UNK N   1      26.028  18.243   3.634  0.00  0.00     0.024 A 
HETATM    6  C   UNK N   1      26.855  17.529   4.459  0.00  0.00     0.018 A 
HETATM    7  C   UNK N   1      25.161  20.321   2.832  0.00  0.00     0.099 C 
HETATM    8  N   UNK N   1      24.334  20.937   2.313  0.00  0.00    -0.191 NA
ENDROOT
BRANCH   1   9
HETATM    9  C   UNK N   1      28.505  17.383   6.217  0.00  0.00     0.259 C 
HETATM   10  N   UNK N   1      29.831  17.017   6.122  0.00  0.00    -0.297 N 
HETATM   11  O   UNK N   1      27.833  17.054   7.187  0.00  0.00    -0.267 OA
BRANCH  10  12
HETATM   12  C   UNK N   1      30.436  16.352   7.229  0.00  0.00     0.169 C 
BRANCH  12  13
HETATM   13  C   UNK N   1      31.484  17.309   7.729  0.00  0.00     0.237 C 
HETATM   14  C   UNK N   1      30.967  18.229   8.859  0.00  0.00     0.044 C 
BRANCH  13  15
HETATM   15  N   UNK N   1      32.723  16.591   7.956  0.00  0.00     0.097 N 
HETATM   16  C   UNK N   1      32.419  15.313   8.610  0.00  0.00     0.292 C 
HETATM   17  C   UNK N   1      32.839  15.311  10.047  0.00  0.00     0.153 C 
HETATM   18  N   UNK N   1      34.242  15.554   9.972  0.00  0.00    -0.375 N 
HETATM   19  C   UNK N   1      34.635  16.904   9.628  0.00  0.00     0.153 C 
HETATM   20  C   UNK N   1      33.594  17.547   8.688  0.00  0.00     0.292 C 
BRANCH  18  21
HETATM   21  C   UNK N   1      35.143  14.469   9.695  0.00  0.00     0.067 A 
HETATM   22  C   UNK N   1      35.680  14.344   8.403  0.00  0.00     0.032 A 
HETATM   23  C   UNK N   1      36.545  13.296   8.079  0.00  0.00     0.005 A 
HETATM   24  C   UNK N   1      36.892  12.346   9.039  0.00  0.00     0.040 A 
HETATM   25  C   UNK N   1      36.367  12.431  10.326  0.00  0.00     0.104 A 
HETATM   26  C   UNK N   1      35.483  13.473  10.667  0.00  0.00     0.128 A 
HETATM   27  O   UNK N   1      36.708  11.506  11.261  0.00  0.00    -0.346 OA
HETATM   28  O   UNK N   1      34.951  13.456  11.919  0.00  0.00    -0.344 OA
HETATM   29  C   UNK N   1      34.944  12.290  12.667  0.00  0.00     0.202 C 
HETATM   30  C   UNK N   1      36.319  11.628  12.585  0.00  0.00     0.202 C 
ENDBRANCH  18  21
ENDBRANCH  13  15
ENDBRANCH  12  13
ENDBRANCH  10  12
BRANCH  10  31
HETATM   31  C   UNK N   1      30.508  16.865   4.855  0.00  0.00     0.110 A 
HETATM   32  C   UNK N   1      30.481  15.620   4.190  0.00  0.00     0.049 A 
HETATM   33  C   UNK N   1      31.361  15.367   3.142  0.00  0.00     0.005 A 
HETATM   34  C   UNK N   1      32.282  16.340   2.766  0.00  0.00     0.017 A 
HETATM   35  C   UNK N   1      32.297  17.562   3.439  0.00  0.00     0.089 A 
HETATM   36  N   UNK N   1      31.440  17.788   4.472  0.00  0.00    -0.352 N 
ATOM     37  HN  UNK N   1      31.494  18.674   4.976  1.00  0.00     0.166 HD
ENDBRANCH  10  31
ENDBRANCH   1   9
TORSDOF 6
ENDMDL
MODEL 3
REMARK VINA RESULT:      -8.0      3.839     10.920
REMARK  6 active torsions:
REMARK  status: ('A' for Active; 'I' for Inactive)
REMARK    1  A    between atoms: C_2  and  C_3 
REMARK    2  A    between atoms: C_2  and  N_22 
REMARK    3  A    between atoms: C_3  and  N_4 
REMARK    4  A    between atoms: N_4  and  C_5 
REMARK       I    between atoms: N_4  and  C_12 
REMARK    5  A    between atoms: C_12  and  C_14 
REMARK    6  A    between atoms: N_25  and  C_28 
ROOT
HETATM    1  C   UNK N   1      27.931  18.227   5.313  0.00  0.00     0.032 A 
HETATM    2  C   UNK N   1      28.188  19.588   5.090  0.00  0.00     0.018 A 
HETATM    3  C   UNK N   1      27.349  20.291   4.203  0.00  0.00     0.024 A 
HETATM    4  C   UNK N   1      26.303  19.600   3.542  0.00  0.00     0.044 A 
HETATM    5  C   UNK N   1      26.160  18.239   3.691  0.00  0.00     0.024 A 
HETATM    6  C   UNK N   1      26.958  17.561   4.573  0.00  0.00     0.018 A 
HETATM    7  C   UNK N   1      25.273  20.279   2.817  0.00  0.00     0.099 C 
HETATM    8  N   UNK N   1      24.459  20.861   2.241  0.00  0.00    -0.191 NA
ENDROOT
BRANCH   1   9
HETATM    9  C   UNK N   1      28.496  17.486   6.434  0.00  0.00     0.259 C 
HETATM   10  N   UNK N   1      29.810  17.070   6.376  0.00  0.00    -0.297 N 
HETATM   11  O   UNK N   1      27.799  17.226   7.407  0.00  0.00    -0.267 OA
BRANCH  10  12
HETATM   12  C   UNK N   1      30.374  16.435   7.522  0.00  0.00     0.169 C 
BRANCH  12  13
HETATM   13  C   UNK N   1      31.464  17.366   7.980  0.00  0.00     0.237 C 
HETATM   14  C   UNK N   1      30.935  18.522   8.861  0.00  0.00     0.044 C 
BRANCH  13  15
HETATM   15  N   UNK N   1      32.580  16.590   8.484  0.00  0.00     0.097 N 
HETATM   16  C   UNK N   1      33.657  16.604   7.487  0.00  0.00     0.292 C 
HETATM   17  C   UNK N   1      33.801  15.278   6.807  0.00  0.00     0.153 C 
HETATM   18  N   UNK N   1      34.085  14.392   7.888  0.00  0.00    -0.375 N 
HETATM   19  C   UNK N   1      32.971  14.075   8.758  0.00  0.00     0.153 C 
HETATM   20  C   UNK N   1      32.000  15.272   8.850  0.00  0.00     0.292 C 
BRANCH  18  21
HETATM   21  C   UNK N   1      35.424  14.290   8.399  0.00  0.00     0.067 A 
HETATM   22  C   UNK N   1      35.700  14.780   9.686  0.00  0.00     0.032 A 
HETATM   23  C   UNK N   1      36.990  14.721  10.219  0.00  0.00     0.005 A 
HETATM   24  C   UNK N   1      38.036  14.173   9.478  0.00  0.00     0.040 A 
HETATM   25  C   UNK N   1      37.800  13.690   8.193  0.00  0.00     0.104 A 
HETATM   26  C   UNK N   1      36.509  13.753   7.633  0.00  0.00     0.128 A 
HETATM   27  O   UNK N   1      38.819  13.153   7.473  0.00  0.00    -0.346 OA
HETATM   28  O   UNK N   1      36.364  13.331   6.349  0.00  0.00    -0.344 OA
HETATM   29  C   UNK N   1      37.461  13.234   5.509  0.00  0.00     0.202 C 
HETATM   30  C   UNK N   1      38.605  12.539   6.248  0.00  0.00     0.202 C 
ENDBRANCH  18  21
ENDBRANCH  13  15
ENDBRANCH  12  13
ENDBRANCH  10  12
BRANCH  10  31
HETATM   31  C   UNK N   1      30.498  16.836   5.129  0.00  0.00     0.110 A 
HETATM   32  C   UNK N   1      30.507  15.542   4.563  0.00  0.00     0.049 A 
HETATM   33  C   UNK N   1      31.399  15.229   3.542  0.00  0.00     0.005 A 
HETATM   34  C   UNK N   1      32.297  16.193   3.094  0.00  0.00     0.017 A 
HETATM   35  C   UNK N   1      32.278  17.465   3.669  0.00  0.00     0.089 A 
HETATM   36  N   UNK N   1      31.408  17.749   4.678  0.00  0.00    -0.352 N 
ATOM     37  HN  UNK N   1      31.437  18.673   5.110  1.00  0.00     0.166 HD
ENDBRANCH  10  31
ENDBRANCH   1   9
TORSDOF 6
ENDMDL
MODEL 4
REMARK VINA RESULT:      -8.0      3.247     10.295
REMARK  6 active torsions:
REMARK  status: ('A' for Active; 'I' for Inactive)
REMARK    1  A    between atoms: C_2  and  C_3 
REMARK    2  A    between atoms: C_2  and  N_22 
REMARK    3  A    between atoms: C_3  and  N_4 
REMARK    4  A    between atoms: N_4  and  C_5 
REMARK       I    between atoms: N_4  and  C_12 
REMARK    5  A    between atoms: C_12  and  C_14 
REMARK    6  A    between atoms: N_25  and  C_28 
ROOT
HETATM    1  C   UNK N   1      26.994  19.008   4.823  0.00  0.00     0.032 A 
HETATM    2  C   UNK N   1      27.212  19.950   3.806  0.00  0.00     0.018 A 
HETATM    3  C   UNK N   1      26.096  20.455   3.111  0.00  0.00     0.024 A 
HETATM    4  C   UNK N   1      24.802  19.977   3.434  0.00  0.00     0.044 A 
HETATM    5  C   UNK N   1      24.640  18.963   4.351  0.00  0.00     0.024 A 
HETATM    6  C   UNK N   1      25.721  18.490   5.045  0.00  0.00     0.018 A 
HETATM    7  C   UNK N   1      23.610  20.601   2.949  0.00  0.00     0.099 C 
HETATM    8  N   UNK N   1      22.669  21.131   2.537  0.00  0.00    -0.191 NA
ENDROOT
BRANCH   1   9
HETATM    9  C   UNK N   1      28.002  18.669   5.820  0.00  0.00     0.259 C 
HETATM   10  N   UNK N   1      28.780  17.545   5.640  0.00  0.00    -0.297 N 
HETATM   11  O   UNK N   1      28.138  19.372   6.815  0.00  0.00    -0.267 OA
BRANCH  10  12
HETATM   12  C   UNK N   1      29.828  17.285   6.572  0.00  0.00     0.169 C 
BRANCH  12  13
HETATM   13  C   UNK N   1      30.955  16.735   5.743  0.00  0.00     0.237 C 
HETATM   14  C   UNK N   1      31.441  17.725   4.659  0.00  0.00     0.044 C 
BRANCH  13  15
HETATM   15  N   UNK N   1      31.952  16.145   6.614  0.00  0.00     0.097 N 
HETATM   16  C   UNK N   1      31.914  16.829   7.912  0.00  0.00     0.292 C 
HETATM   17  C   UNK N   1      33.109  17.708   8.112  0.00  0.00     0.153 C 
HETATM   18  N   UNK N   1      34.200  16.793   8.021  0.00  0.00    -0.375 N 
HETATM   19  C   UNK N   1      34.506  16.300   6.695  0.00  0.00     0.153 C 
HETATM   20  C   UNK N   1      33.221  16.204   5.844  0.00  0.00     0.292 C 
BRANCH  18  21
HETATM   21  C   UNK N   1      34.572  16.006   9.164  0.00  0.00     0.067 A 
HETATM   22  C   UNK N   1      35.183  16.642  10.258  0.00  0.00     0.032 A 
HETATM   23  C   UNK N   1      35.581  15.917  11.385  0.00  0.00     0.005 A 
HETATM   24  C   UNK N   1      35.379  14.539  11.444  0.00  0.00     0.040 A 
HETATM   25  C   UNK N   1      34.789  13.874  10.372  0.00  0.00     0.104 A 
HETATM   26  C   UNK N   1      34.394  14.586   9.222  0.00  0.00     0.128 A 
HETATM   27  O   UNK N   1      34.590  12.532  10.433  0.00  0.00    -0.346 OA
HETATM   28  O   UNK N   1      33.891  13.866   8.184  0.00  0.00    -0.344 OA
HETATM   29  C   UNK N   1      34.128  12.504   8.089  0.00  0.00     0.202 C 
HETATM   30  C   UNK N   1      33.887  11.852   9.451  0.00  0.00     0.202 C 
ENDBRANCH  18  21
ENDBRANCH  13  15
ENDBRANCH  12  13
ENDBRANCH  10  12
BRANCH  10  31
HETATM   31  C   UNK N   1      28.343  16.412   4.858  0.00  0.00     0.110 A 
HETATM   32  C   UNK N   1      28.362  16.483   3.448  0.00  0.00     0.049 A 
HETATM   33  C   UNK N   1      27.676  15.540   2.689  0.00  0.00     0.005 A 
HETATM   34  C   UNK N   1      26.953  14.537   3.329  0.00  0.00     0.017 A 
HETATM   35  C   UNK N   1      26.941  14.486   4.723  0.00  0.00     0.089 A 
HETATM   36  N   UNK N   1      27.607  15.427   5.450  0.00  0.00    -0.352 N 
ATOM     37  HN  UNK N   1      27.554  15.393   6.468  1.00  0.00     0.166 HD
ENDBRANCH  10  31
ENDBRANCH   1   9
TORSDOF 6
ENDMDL
MODEL 5
REMARK VINA RESULT:      -7.9      1.069      1.993
REMARK  6 active torsions:
REMARK  status: ('A' for Active; 'I' for Inactive)
REMARK    1  A    between atoms: C_2  and  C_3 
REMARK    2  A    between atoms: C_2  and  N_22 
REMARK    3  A    between atoms: C_3  and  N_4 
REMARK    4  A    between atoms: N_4  and  C_5 
REMARK       I    between atoms: N_4  and  C_12 
REMARK    5  A    between atoms: C_12  and  C_14 
REMARK    6  A    between atoms: N_25  and  C_28 
ROOT
HETATM    1  C   UNK N   1      30.648  16.803   6.250  0.00  0.00     0.032 A 
HETATM    2  C   UNK N   1      31.694  17.110   5.367  0.00  0.00     0.018 A 
HETATM    3  C   UNK N   1      32.872  17.673   5.896  0.00  0.00     0.024 A 
HETATM    4  C   UNK N   1      32.953  17.940   7.285  0.00  0.00     0.044 A 
HETATM    5  C   UNK N   1      31.861  17.740   8.099  0.00  0.00     0.024 A 
HETATM    6  C   UNK N   1      30.725  17.169   7.592  0.00  0.00     0.018 A 
HETATM    7  C   UNK N   1      34.181  18.284   7.931  0.00  0.00     0.099 C 
HETATM    8  N   UNK N   1      35.192  18.561   8.417  0.00  0.00    -0.191 NA
ENDROOT
BRANCH   1   9
HETATM    9  C   UNK N   1      29.538  15.928   5.893  0.00  0.00     0.259 C 
HETATM   10  N   UNK N   1      28.383  16.479   5.376  0.00  0.00    -0.297 N 
HETATM   11  O   UNK N   1      29.632  14.719   6.067  0.00  0.00    -0.267 OA
BRANCH  10  12
HETATM   12  C   UNK N   1      27.348  15.601   4.938  0.00  0.00     0.169 C 
BRANCH  12  13
HETATM   13  C   UNK N   1      26.974  16.099   3.568  0.00  0.00     0.237 C 
HETATM   14  C   UNK N   1      27.673  15.315   2.434  0.00  0.00     0.044 C 
BRANCH  13  15
HETATM   15  N   UNK N   1      25.536  16.262   3.490  0.00  0.00     0.097 N 
HETATM   16  C   UNK N   1      25.231  17.672   3.222  0.00  0.00     0.292 C 
HETATM   17  C   UNK N   1      24.653  18.354   4.423  0.00  0.00     0.153 C 
HETATM   18  N   UNK N   1      23.476  17.593   4.689  0.00  0.00    -0.375 N 
HETATM   19  C   UNK N   1      23.686  16.279   5.259  0.00  0.00     0.153 C 
HETATM   20  C   UNK N   1      25.012  15.674   4.750  0.00  0.00     0.292 C 
BRANCH  18  21
HETATM   21  C   UNK N   1      22.273  17.852   3.948  0.00  0.00     0.067 A 
HETATM   22  C   UNK N   1      21.609  19.076   4.135  0.00  0.00     0.032 A 
HETATM   23  C   UNK N   1      20.425  19.367   3.453  0.00  0.00     0.005 A 
HETATM   24  C   UNK N   1      19.875  18.440   2.568  0.00  0.00     0.040 A 
HETATM   25  C   UNK N   1      20.500  17.212   2.368  0.00  0.00     0.104 A 
HETATM   26  C   UNK N   1      21.686  16.895   3.058  0.00  0.00     0.128 A 
HETATM   27  O   UNK N   1      19.964  16.311   1.504  0.00  0.00    -0.346 OA
HETATM   28  O   UNK N   1      22.204  15.651   2.872  0.00  0.00    -0.344 OA
HETATM   29  C   UNK N   1      21.416  14.626   2.375  0.00  0.00     0.202 C 
HETATM   30  C   UNK N   1      20.620  15.136   1.173  0.00  0.00     0.202 C 
ENDBRANCH  18  21
ENDBRANCH  13  15
ENDBRANCH  12  13
ENDBRANCH  10  12
BRANCH  10  31
HETATM   31  C   UNK N   1      27.978  17.837   5.650  0.00  0.00     0.110 A 
HETATM   32  C   UNK N   1      28.295  18.863   4.733  0.00  0.00     0.049 A 
HETATM   33  C   UNK N   1      28.186  20.198   5.109  0.00  0.00     0.005 A 
HETATM   34  C   UNK N   1      27.781  20.517   6.402  0.00  0.00     0.017 A 
HETATM   35  C   UNK N   1      27.478  19.490   7.296  0.00  0.00     0.089 A 
HETATM   36  N   UNK N   1      27.604  18.189   6.916  0.00  0.00    -0.352 N 
ATOM     37  HN  UNK N   1      27.414  17.453   7.597  1.00  0.00     0.166 HD
ENDBRANCH  10  31
ENDBRANCH   1   9
TORSDOF 6
ENDMDL
MODEL 6
REMARK VINA RESULT:      -7.7      2.134      3.610
REMARK  6 active torsions:
REMARK  status: ('A' for Active; 'I' for Inactive)
REMARK    1  A    between atoms: C_2  and  C_3 
REMARK    2  A    between atoms: C_2  and  N_22 
REMARK    3  A    between atoms: C_3  and  N_4 
REMARK    4  A    between atoms: N_4  and  C_5 
REMARK       I    between atoms: N_4  and  C_12 
REMARK    5  A    between atoms: C_12  and  C_14 
REMARK    6  A    between atoms: N_25  and  C_28 
ROOT
HETATM    1  C   UNK N   1      32.096  17.087   8.323  0.00  0.00     0.032 A 
HETATM    2  C   UNK N   1      32.206  15.828   8.933  0.00  0.00     0.018 A 
HETATM    3  C   UNK N   1      33.431  15.480   9.533  0.00  0.00     0.024 A 
HETATM    4  C   UNK N   1      34.517  16.388   9.474  0.00  0.00     0.044 A 
HETATM    5  C   UNK N   1      34.410  17.560   8.760  0.00  0.00     0.024 A 
HETATM    6  C   UNK N   1      33.211  17.911   8.199  0.00  0.00     0.018 A 
HETATM    7  C   UNK N   1      35.705  16.216  10.251  0.00  0.00     0.099 C 
HETATM    8  N   UNK N   1      36.650  16.043  10.894  0.00  0.00    -0.191 NA
ENDROOT
BRANCH   1   9
HETATM    9  C   UNK N   1      30.816  17.691   7.973  0.00  0.00     0.259 C 
HETATM   10  N   UNK N   1      30.152  17.260   6.844  0.00  0.00    -0.297 N 
HETATM   11  O   UNK N   1      30.351  18.583   8.672  0.00  0.00    -0.267 OA
BRANCH  10  12
HETATM   12  C   UNK N   1      28.855  17.790   6.573  0.00  0.00     0.169 C 
BRANCH  12  13
HETATM   13  C   UNK N   1      27.900  16.701   6.981  0.00  0.00     0.237 C 
HETATM   14  C   UNK N   1      27.464  16.808   8.461  0.00  0.00     0.044 C 
BRANCH  13  15
HETATM   15  N   UNK N   1      26.861  16.570   5.979  0.00  0.00     0.097 N 
HETATM   16  C   UNK N   1      27.073  15.324   5.234  0.00  0.00     0.292 C 
HETATM   17  C   UNK N   1      27.565  15.584   3.844  0.00  0.00     0.153 C 
HETATM   18  N   UNK N   1      26.523  16.375   3.277  0.00  0.00    -0.375 N 
HETATM   19  C   UNK N   1      26.441  17.744   3.743  0.00  0.00     0.153 C 
HETATM   20  C   UNK N   1      26.902  17.843   5.213  0.00  0.00     0.292 C 
BRANCH  18  21
HETATM   21  C   UNK N   1      25.345  15.741   2.754  0.00  0.00     0.067 A 
HETATM   22  C   UNK N   1      25.437  15.018   1.553  0.00  0.00     0.032 A 
HETATM   23  C   UNK N   1      24.316  14.400   0.994  0.00  0.00     0.005 A 
HETATM   24  C   UNK N   1      23.074  14.491   1.621  0.00  0.00     0.040 A 
HETATM   25  C   UNK N   1      22.943  15.212   2.806  0.00  0.00     0.104 A 
HETATM   26  C   UNK N   1      24.059  15.854   3.377  0.00  0.00     0.128 A 
HETATM   27  O   UNK N   1      21.733  15.298   3.417  0.00  0.00    -0.346 OA
HETATM   28  O   UNK N   1      23.847  16.600   4.494  0.00  0.00    -0.344 OA
HETATM   29  C   UNK N   1      22.575  17.041   4.816  0.00  0.00     0.202 C 
HETATM   30  C   UNK N   1      21.583  15.887   4.662  0.00  0.00     0.202 C 
ENDBRANCH  18  21
ENDBRANCH  13  15
ENDBRANCH  12  13
ENDBRANCH  10  12
BRANCH  10  31
HETATM   31  C   UNK N   1      30.833  16.667   5.718  0.00  0.00     0.110 A 
HETATM   32  C   UNK N   1      31.273  17.484   4.654  0.00  0.00     0.049 A 
HETATM   33  C   UNK N   1      31.653  16.914   3.443  0.00  0.00     0.005 A 
HETATM   34  C   UNK N   1      31.577  15.534   3.278  0.00  0.00     0.017 A 
HETATM   35  C   UNK N   1      31.134  14.743   4.339  0.00  0.00     0.089 A 
HETATM   36  N   UNK N   1      30.752  15.319   5.513  0.00  0.00    -0.352 N 
ATOM     37  HN  UNK N   1      30.396  14.726   6.262  1.00  0.00     0.166 HD
ENDBRANCH  10  31
ENDBRANCH   1   9
TORSDOF 6
ENDMDL
MODEL 7
REMARK VINA RESULT:      -7.6      5.734     12.381
REMARK  6 active torsions:
REMARK  status: ('A' for Active; 'I' for Inactive)
REMARK    1  A    between atoms: C_2  and  C_3 
REMARK    2  A    between atoms: C_2  and  N_22 
REMARK    3  A    between atoms: C_3  and  N_4 
REMARK    4  A    between atoms: N_4  and  C_5 
REMARK       I    between atoms: N_4  and  C_12 
REMARK    5  A    between atoms: C_12  and  C_14 
REMARK    6  A    between atoms: N_25  and  C_28 
ROOT
HETATM    1  C   UNK N   1      32.993  15.578   4.553  0.00  0.00     0.032 A 
HETATM    2  C   UNK N   1      32.959  16.953   4.278  0.00  0.00     0.018 A 
HETATM    3  C   UNK N   1      31.706  17.568   4.090  0.00  0.00     0.024 A 
HETATM    4  C   UNK N   1      30.530  16.780   4.150  0.00  0.00     0.044 A 
HETATM    5  C   UNK N   1      30.610  15.414   4.299  0.00  0.00     0.024 A 
HETATM    6  C   UNK N   1      31.826  14.820   4.508  0.00  0.00     0.018 A 
HETATM    7  C   UNK N   1      29.222  17.356   4.207  0.00  0.00     0.099 C 
HETATM    8  N   UNK N   1      28.182  17.858   4.250  0.00  0.00    -0.191 NA
ENDROOT
BRANCH   1   9
HETATM    9  C   UNK N   1      34.168  14.903   5.089  0.00  0.00     0.259 C 
HETATM   10  N   UNK N   1      34.373  14.886   6.453  0.00  0.00    -0.297 N 
HETATM   11  O   UNK N   1      34.970  14.374   4.329  0.00  0.00    -0.267 OA
BRANCH  10  12
HETATM   12  C   UNK N   1      35.473  14.136   6.967  0.00  0.00     0.169 C 
BRANCH  12  13
HETATM   13  C   UNK N   1      34.844  13.015   7.748  0.00  0.00     0.237 C 
HETATM   14  C   UNK N   1      34.646  11.734   6.905  0.00  0.00     0.044 C 
BRANCH  13  15
HETATM   15  N   UNK N   1      35.513  12.885   9.028  0.00  0.00     0.097 N 
HETATM   16  C   UNK N   1      34.606  13.342  10.087  0.00  0.00     0.292 C 
HETATM   17  C   UNK N   1      35.038  14.657  10.658  0.00  0.00     0.153 C 
HETATM   18  N   UNK N   1      36.345  14.377  11.156  0.00  0.00    -0.375 N 
HETATM   19  C   UNK N   1      37.383  14.217  10.160  0.00  0.00     0.153 C 
HETATM   20  C   UNK N   1      36.800  13.609   8.866  0.00  0.00     0.292 C 
BRANCH  18  21
HETATM   21  C   UNK N   1      36.504  13.754  12.440  0.00  0.00     0.067 A 
HETATM   22  C   UNK N   1      36.379  14.539  13.599  0.00  0.00     0.032 A 
HETATM   23  C   UNK N   1      36.544  13.984  14.870  0.00  0.00     0.005 A 
HETATM   24  C   UNK N   1      36.840  12.629  15.014  0.00  0.00     0.040 A 
HETATM   25  C   UNK N   1      36.984  11.823  13.887  0.00  0.00     0.104 A 
HETATM   26  C   UNK N   1      36.835  12.369  12.597  0.00  0.00     0.128 A 
HETATM   27  O   UNK N   1      37.270  10.503  14.029  0.00  0.00    -0.346 OA
HETATM   28  O   UNK N   1      37.061  11.544  11.540  0.00  0.00    -0.344 OA
HETATM   29  C   UNK N   1      37.783  10.373  11.700  0.00  0.00     0.202 C 
HETATM   30  C   UNK N   1      37.288   9.638  12.946  0.00  0.00     0.202 C 
ENDBRANCH  18  21
ENDBRANCH  13  15
ENDBRANCH  12  13
ENDBRANCH  10  12
BRANCH  10  31
HETATM   31  C   UNK N   1      33.840  15.898   7.334  0.00  0.00     0.110 A 
HETATM   32  C   UNK N   1      32.525  15.775   7.831  0.00  0.00     0.049 A 
HETATM   33  C   UNK N   1      31.894  16.864   8.424  0.00  0.00     0.005 A 
HETATM   34  C   UNK N   1      32.560  18.084   8.506  0.00  0.00     0.017 A 
HETATM   35  C   UNK N   1      33.858  18.188   8.004  0.00  0.00     0.089 A 
HETATM   36  N   UNK N   1      34.455  17.116   7.414  0.00  0.00    -0.352 N 
ATOM     37  HN  UNK N   1      35.389  17.224   7.020  1.00  0.00     0.166 HD
ENDBRANCH  10  31
ENDBRANCH   1   9
TORSDOF 6
ENDMDL
MODEL 8
REMARK VINA RESULT:      -7.6      3.381      4.614
REMARK  6 active torsions:
REMARK  status: ('A' for Active; 'I' for Inactive)
REMARK    1  A    between atoms: C_2  and  C_3 
REMARK    2  A    between atoms: C_2  and  N_22 
REMARK    3  A    between atoms: C_3  and  N_4 
REMARK    4  A    between atoms: N_4  and  C_5 
REMARK       I    between atoms: N_4  and  C_12 
REMARK    5  A    between atoms: C_12  and  C_14 
REMARK    6  A    between atoms: N_25  and  C_28 
ROOT
HETATM    1  C   UNK N   1      29.553  16.471   5.242  0.00  0.00     0.032 A 
HETATM    2  C   UNK N   1      30.405  16.905   4.217  0.00  0.00     0.018 A 
HETATM    3  C   UNK N   1      31.712  17.306   4.557  0.00  0.00     0.024 A 
HETATM    4  C   UNK N   1      32.112  17.290   5.916  0.00  0.00     0.044 A 
HETATM    5  C   UNK N   1      31.209  16.976   6.907  0.00  0.00     0.024 A 
HETATM    6  C   UNK N   1      29.947  16.561   6.575  0.00  0.00     0.018 A 
HETATM    7  C   UNK N   1      33.475  17.452   6.318  0.00  0.00     0.099 C 
HETATM    8  N   UNK N   1      34.586  17.587   6.604  0.00  0.00    -0.191 NA
ENDROOT
BRANCH   1   9
HETATM    9  C   UNK N   1      28.324  15.728   4.992  0.00  0.00     0.259 C 
HETATM   10  N   UNK N   1      27.213  16.398   4.523  0.00  0.00    -0.297 N 
HETATM   11  O   UNK N   1      28.281  14.524   5.213  0.00  0.00    -0.267 OA
BRANCH  10  12
HETATM   12  C   UNK N   1      26.052  15.641   4.188  0.00  0.00     0.169 C 
BRANCH  12  13
HETATM   13  C   UNK N   1      24.906  16.397   4.803  0.00  0.00     0.237 C 
HETATM   14  C   UNK N   1      24.059  17.158   3.757  0.00  0.00     0.044 C 
BRANCH  13  15
HETATM   15  N   UNK N   1      24.210  15.539   5.741  0.00  0.00     0.097 N 
HETATM   16  C   UNK N   1      25.018  15.413   6.960  0.00  0.00     0.292 C 
HETATM   17  C   UNK N   1      25.635  14.054   7.078  0.00  0.00     0.153 C 
HETATM   18  N   UNK N   1      24.502  13.187   7.095  0.00  0.00    -0.375 N 
HETATM   19  C   UNK N   1      23.820  13.011   5.831  0.00  0.00     0.153 C 
HETATM   20  C   UNK N   1      23.914  14.297   4.982  0.00  0.00     0.292 C 
BRANCH  18  21
HETATM   21  C   UNK N   1      23.778  12.978   8.318  0.00  0.00     0.067 A 
HETATM   22  C   UNK N   1      24.305  12.100   9.279  0.00  0.00     0.032 A 
HETATM   23  C   UNK N   1      23.629  11.848  10.476  0.00  0.00     0.005 A 
HETATM   24  C   UNK N   1      22.408  12.467  10.739  0.00  0.00     0.040 A 
HETATM   25  C   UNK N   1      21.849  13.334   9.802  0.00  0.00     0.104 A 
HETATM   26  C   UNK N   1      22.510  13.589   8.584  0.00  0.00     0.128 A 
HETATM   27  O   UNK N   1      20.661  13.939  10.061  0.00  0.00    -0.346 OA
HETATM   28  O   UNK N   1      21.875  14.387   7.685  0.00  0.00    -0.344 OA
HETATM   29  C   UNK N   1      20.509  14.601   7.771  0.00  0.00     0.202 C 
HETATM   30  C   UNK N   1      20.135  14.908   9.222  0.00  0.00     0.202 C 
ENDBRANCH  18  21
ENDBRANCH  13  15
ENDBRANCH  12  13
ENDBRANCH  10  12
BRANCH  10  31
HETATM   31  C   UNK N   1      26.995  17.806   4.761  0.00  0.00     0.110 A 
HETATM   32  C   UNK N   1      27.193  18.733   3.716  0.00  0.00     0.049 A 
HETATM   33  C   UNK N   1      27.283  20.094   3.994  0.00  0.00     0.005 A 
HETATM   34  C   UNK N   1      27.196  20.534   5.311  0.00  0.00     0.017 A 
HETATM   35  C   UNK N   1      27.005  19.601   6.332  0.00  0.00     0.089 A 
HETATM   36  N   UNK N   1      26.935  18.272   6.043  0.00  0.00    -0.352 N 
ATOM     37  HN  UNK N   1      26.833  17.605   6.808  1.00  0.00     0.166 HD
ENDBRANCH  10  31
ENDBRANCH   1   9
TORSDOF 6
ENDMDL
MODEL 9
REMARK VINA RESULT:      -7.4      1.715      2.137
REMARK  6 active torsions:
REMARK  status: ('A' for Active; 'I' for Inactive)
REMARK    1  A    between atoms: C_2  and  C_3 
REMARK    2  A    between atoms: C_2  and  N_22 
REMARK    3  A    between atoms: C_3  and  N_4 
REMARK    4  A    between atoms: N_4  and  C_5 
REMARK       I    between atoms: N_4  and  C_12 
REMARK    5  A    between atoms: C_12  and  C_14 
REMARK    6  A    between atoms: N_25  and  C_28 
ROOT
HETATM    1  C   UNK N   1      31.269  16.517   6.274  0.00  0.00     0.032 A 
HETATM    2  C   UNK N   1      32.336  16.901   5.448  0.00  0.00     0.018 A 
HETATM    3  C   UNK N   1      33.390  17.641   6.018  0.00  0.00     0.024 A 
HETATM    4  C   UNK N   1      33.327  18.000   7.387  0.00  0.00     0.044 A 
HETATM    5  C   UNK N   1      32.207  17.711   8.134  0.00  0.00     0.024 A 
HETATM    6  C   UNK N   1      31.194  16.970   7.588  0.00  0.00     0.018 A 
HETATM    7  C   UNK N   1      34.449  18.537   8.093  0.00  0.00     0.099 C 
HETATM    8  N   UNK N   1      35.376  18.970   8.629  0.00  0.00    -0.191 NA
ENDROOT
BRANCH   1   9
HETATM    9  C   UNK N   1      30.307  15.487   5.900  0.00  0.00     0.259 C 
HETATM   10  N   UNK N   1      29.052  15.860   5.466  0.00  0.00    -0.297 N 
HETATM   11  O   UNK N   1      30.613  14.304   5.989  0.00  0.00    -0.267 OA
BRANCH  10  12
HETATM   12  C   UNK N   1      28.160  14.845   5.009  0.00  0.00     0.169 C 
BRANCH  12  13
HETATM   13  C   UNK N   1      27.425  15.469   3.855  0.00  0.00     0.237 C 
HETATM   14  C   UNK N   1      27.865  14.901   2.486  0.00  0.00     0.044 C 
BRANCH  13  15
HETATM   15  N   UNK N   1      26.005  15.501   4.147  0.00  0.00     0.097 N 
HETATM   16  C   UNK N   1      25.691  14.425   5.094  0.00  0.00     0.292 C 
HETATM   17  C   UNK N   1      24.934  13.312   4.438  0.00  0.00     0.153 C 
HETATM   18  N   UNK N   1      23.759  13.962   3.958  0.00  0.00    -0.375 N 
HETATM   19  C   UNK N   1      23.935  14.820   2.805  0.00  0.00     0.153 C 
HETATM   20  C   UNK N   1      25.337  15.465   2.820  0.00  0.00     0.292 C 
BRANCH  18  21
HETATM   21  C   UNK N   1      22.658  14.203   4.848  0.00  0.00     0.067 A 
HETATM   22  C   UNK N   1      21.903  13.111   5.309  0.00  0.00     0.032 A 
HETATM   23  C   UNK N   1      20.811  13.295   6.160  0.00  0.00     0.005 A 
HETATM   24  C   UNK N   1      20.445  14.576   6.572  0.00  0.00     0.040 A 
HETATM   25  C   UNK N   1      21.162  15.683   6.124  0.00  0.00     0.104 A 
HETATM   26  C   UNK N   1      22.258  15.518   5.253  0.00  0.00     0.128 A 
HETATM   27  O   UNK N   1      20.807  16.930   6.527  0.00  0.00    -0.346 OA
HETATM   28  O   UNK N   1      22.868  16.644   4.797  0.00  0.00    -0.344 OA
HETATM   29  C   UNK N   1      22.219  17.867   4.844  0.00  0.00     0.202 C 
HETATM   30  C   UNK N   1      21.570  18.044   6.217  0.00  0.00     0.202 C 
ENDBRANCH  18  21
ENDBRANCH  13  15
ENDBRANCH  12  13
ENDBRANCH  10  12
BRANCH  10  31
HETATM   31  C   UNK N   1      28.436  17.110   5.846  0.00  0.00     0.110 A 
HETATM   32  C   UNK N   1      28.575  18.242   5.014  0.00  0.00     0.049 A 
HETATM   33  C   UNK N   1      28.257  19.508   5.495  0.00  0.00     0.005 A 
HETATM   34  C   UNK N   1      27.819  19.655   6.808  0.00  0.00     0.017 A 
HETATM   35  C   UNK N   1      27.693  18.525   7.617  0.00  0.00     0.089 A 
HETATM   36  N   UNK N   1      28.024  17.295   7.135  0.00  0.00    -0.352 N 
ATOM     37  HN  UNK N   1      27.961  16.487   7.754  1.00  0.00     0.166 HD
ENDBRANCH  10  31
ENDBRANCH   1   9
TORSDOF 6
ENDMDL
