REMARK  5 active torsions:
REMARK  status: ('A' for Active; 'I' for Inactive)
REMARK    1  A    between atoms: C_7  and  C_24 
REMARK    2  A    between atoms: C_8  and  C_17 
REMARK    3  A    between atoms: N_9  and  C_12 
REMARK    4  A    between atoms: C_12  and  C_13 
REMARK       I    between atoms: C_24  and  N_26 
REMARK    5  A    between atoms: N_26  and  C_27 
ROOT
HETATM    1  C   UNK N   1       1.780   2.766  -0.747  0.00  0.00     0.036 C 
HETATM    2  C   UNK N   1       0.787   3.301   0.083  0.00  0.00     0.032 C 
HETATM    3  C   UNK N   1       0.990   4.524   0.707  0.00  0.00     0.046 C 
HETATM    4  C   UNK N   1       2.208   5.185   0.550  0.00  0.00     0.137 C 
HETATM    5  C   UNK N   1       3.251   4.563  -0.162  0.00  0.00     0.085 C 
HETATM    6  C   UNK N   1       3.010   3.389  -0.861  0.00  0.00     0.055 C 
HETATM    7  C   UNK N   1       4.593   5.060  -0.133  0.00  0.00     0.102 C 
HETATM    8  N   UNK N   1       5.691   5.422  -0.140  0.00  0.00    -0.191 NA
HETATM    9  F   UNK N   1       2.368   6.408   1.108  0.00  0.00    -0.204 F 
ENDROOT
BRANCH   1  10
HETATM   10  N   UNK N   1       1.442   1.715  -1.607  0.00  0.00    -0.326 N 
HETATM   11  C   UNK N   1       0.824   0.620  -1.153  0.00  0.00     0.233 C 
HETATM   12  O   UNK N   1       0.034   0.048  -1.894  0.00  0.00    -0.272 OA
HETATM   13  H   UNK N   1       1.664   1.784  -2.564  0.00  0.00     0.169 HD
BRANCH  11  14
HETATM   14  C   UNK N   1       1.045   0.143   0.280  0.00  0.00     0.139 C 
HETATM   15  C   UNK N   1      -0.193  -0.596   0.614  0.00  0.00    -0.027 A 
HETATM   16  C   UNK N   1      -0.237  -1.981   0.416  0.00  0.00     0.039 A 
HETATM   17  C   UNK N   1      -1.374   0.153   0.710  0.00  0.00     0.009 A 
HETATM   18  C   UNK N   1      -1.485  -2.586   0.209  0.00  0.00     0.017 A 
HETATM   19  C   UNK N   1       1.007  -2.769   0.203  0.00  0.00     0.255 C 
HETATM   20  C   UNK N   1      -2.659  -1.825   0.236  0.00  0.00     0.001 A 
HETATM   21  C   UNK N   1      -2.606  -0.464   0.536  0.00  0.00     0.001 A 
HETATM   22  N   UNK N   1       2.230  -2.160   0.130  0.00  0.00    -0.329 N 
HETATM   23  O   UNK N   1       0.911  -3.969  -0.014  0.00  0.00    -0.267 OA
HETATM   24  C   UNK N   1       2.346  -0.713   0.402  0.00  0.00     0.140 C 
BRANCH  22  25
HETATM   25  C   UNK N   1       3.248  -2.838  -0.654  0.00  0.00     0.244 C 
BRANCH  25  26
HETATM   26  C   UNK N   1       4.187  -3.969  -0.209  0.00  0.00     0.403 C 
HETATM   27  F   UNK N   1       3.922  -4.804   0.870  0.00  0.00    -0.169 F 
HETATM   28  F   UNK N   1       5.444  -3.420  -0.055  0.00  0.00    -0.169 F 
HETATM   29  F   UNK N   1       4.181  -4.771  -1.326  0.00  0.00    -0.169 F 
ENDBRANCH  25  26
ENDBRANCH  22  25
BRANCH  24  30
HETATM   30  C   UNK N   1       3.701   0.003   0.281  0.00  0.00    -0.019 A 
HETATM   31  C   UNK N   1       3.895   1.153   1.050  0.00  0.00     0.012 A 
HETATM   32  C   UNK N   1       5.126   1.811   1.058  0.00  0.00     0.018 A 
HETATM   33  C   UNK N   1       6.182   1.293   0.311  0.00  0.00     0.087 A 
HETATM   34  N   UNK N   1       5.999   0.168  -0.431  0.00  0.00    -0.375 N 
HETATM   35  C   UNK N   1       4.796  -0.476  -0.467  0.00  0.00     0.096 A 
ATOM     36  HN  UNK N   1       6.780  -0.204  -0.973  1.00  0.00     0.164 HD
ENDBRANCH  24  30
ENDBRANCH  11  14
ENDBRANCH   1  10
TORSDOF 5
