REMARK  7 active torsions:
REMARK  status: ('A' for Active; 'I' for Inactive)
REMARK    1  A    between atoms: C_3  and  C_2 
REMARK    2  A    between atoms: O_15  and  C_3 
REMARK    3  A    between atoms: C_10  and  C_6 
REMARK    4  A    between atoms: O_11  and  C_7 
REMARK    5  A    between atoms: O_12  and  C_8 
REMARK    6  A    between atoms: O_13  and  C_9 
REMARK    7  A    between atoms: O_15  and  C_10 
ROOT
HETATM    1  C   UNK N   1       4.911  -1.959   0.000  0.00  0.00     0.057 A 
HETATM    2  C   UNK N   1       3.594  -3.989   0.000  0.00  0.00     0.057 A 
HETATM    3  C   UNK N   1       3.659  -2.592   0.000  0.00  0.00     0.044 A 
HETATM    4  C   UNK N   1       6.084  -2.726  -0.000  0.00  0.00     0.102 A 
HETATM    5  C   UNK N   1       4.756  -4.756   0.000  0.00  0.00     0.102 A 
HETATM    6  C   UNK N   1       6.007  -4.127   0.000  0.00  0.00     0.132 A 
ENDROOT
BRANCH   3   7
HETATM    7  C   UNK N   1       2.400  -1.824   0.000  0.00  0.00     0.293 C 
HETATM    8  O   UNK N   1       2.412  -0.601  -0.000  0.00  0.00    -0.259 OA
BRANCH   7   9
HETATM    9  O   UNK N   1       1.231  -2.511  -0.000  0.00  0.00    -0.318 OA
BRANCH   9  10
HETATM   10  C   UNK N   1      -0.012  -1.932  -0.000  0.00  0.00     0.178 C 
BRANCH  10  11
HETATM   11  C   UNK N   1      -1.037  -3.049  -0.000  0.00  0.00     0.022 C 
HETATM   12  C   UNK N   1      -2.439  -2.482   0.000  0.00  0.00     0.007 C 
ENDBRANCH  10  11
ENDBRANCH   9  10
ENDBRANCH   7   9
ENDBRANCH   3   7
BRANCH   4  13
HETATM   13  O   UNK N   1       7.280  -2.114  -0.000  0.00  0.00    -0.358 OA
HETATM   14  H   UNK N   1       8.067  -2.623  -0.000  0.00  0.00     0.217 HD
ENDBRANCH   4  13
BRANCH   5  15
HETATM   15  O   UNK N   1       4.666  -6.097   0.000  0.00  0.00    -0.358 OA
HETATM   16  H   UNK N   1       3.825  -6.510   0.000  0.00  0.00     0.217 HD
ENDBRANCH   5  15
BRANCH   6  17
HETATM   17  O   UNK N   1       7.131  -4.867  -0.000  0.00  0.00    -0.356 OA
HETATM   18  H   UNK N   1       7.076  -5.802  -0.000  0.00  0.00     0.218 HD
ENDBRANCH   6  17
TORSDOF 7
