REMARK  9 active torsions:
REMARK  status: ('A' for Active; 'I' for Inactive)
REMARK    1  A    between atoms: N_2  and  C_4 
REMARK    2  A    between atoms: C_4  and  C_5 
REMARK    3  A    between atoms: C_13  and  C_14 
REMARK       I    between atoms: C_14  and  N_16 
REMARK    4  A    between atoms: N_16  and  C_17 
REMARK    5  A    between atoms: C_17  and  C_18 
REMARK    6  A    between atoms: C_18  and  O_19 
REMARK    7  A    between atoms: O_19  and  C_20 
REMARK    8  A    between atoms: C_23  and  C_26 
REMARK       I    between atoms: C_26  and  N_28 
REMARK    9  A    between atoms: N_28  and  O_29 
ROOT
HETATM    1  C   UNK N   1       1.900  -2.590   0.460  0.00  0.00     0.276 C 
HETATM    2  O   UNK N   1       2.840  -2.127   1.083  0.00  0.00    -0.265 OA
HETATM    3  N   UNK N   1       1.964  -3.845  -0.071  0.00  0.00    -0.353 N 
HETATM    4  H   UNK N   1       1.175  -4.154  -0.573  0.00  0.00     0.162 HD
ENDROOT
BRANCH   3   5
HETATM    5  C   UNK N   1       3.086  -4.777   0.030  0.00  0.00     0.149 C 
BRANCH   5   6
HETATM    6  C   UNK N   1       4.495  -4.162   0.100  0.00  0.00     0.195 C 
BRANCH   6   7
HETATM    7  O   UNK N   1       4.574  -3.005  -0.640  0.00  0.00    -0.350 OA
BRANCH   7   8
HETATM    8  C   UNK N   1       5.558  -2.091  -0.483  0.00  0.00     0.068 A 
HETATM    9  C   UNK N   1       5.267  -0.755  -0.754  0.00  0.00     0.038 A 
HETATM   10  C   UNK N   1       6.231   0.233  -0.564  0.00  0.00     0.020 A 
HETATM   11  C   UNK N   1       7.521  -0.097  -0.130  0.00  0.00     0.034 A 
HETATM   12  C   UNK N   1       7.823  -1.447   0.129  0.00  0.00     0.020 A 
HETATM   13  C   UNK N   1       6.844  -2.439  -0.031  0.00  0.00     0.038 A 
BRANCH  11  14
HETATM   14  C   UNK N   1       8.520   0.999   0.046  0.00  0.00     0.275 C 
HETATM   15  O   UNK N   1       8.141   2.158  -0.041  0.00  0.00    -0.265 OA
HETATM   16  N   UNK N   1       9.836   0.768   0.284  0.00  0.00    -0.233 N 
HETATM   17  H   UNK N   1      10.434   1.537   0.423  0.00  0.00     0.197 HD
BRANCH  16  18
HETATM   18  O   UNK N   1      10.354  -0.466   0.337  0.00  0.00    -0.287 OA
HETATM   19  H   UNK N   1       9.767  -1.238   0.376  0.00  0.00     0.244 HD
ENDBRANCH  16  18
ENDBRANCH  11  14
ENDBRANCH   7   8
ENDBRANCH   6   7
ENDBRANCH   5   6
ENDBRANCH   3   5
BRANCH   1  20
HETATM   20  C   UNK N   1       0.699  -1.751   0.266  0.00  0.00     0.152 A 
HETATM   21  O   UNK N   1       0.692  -0.457   0.546  0.00  0.00    -0.304 OA
HETATM   22  C   UNK N   1      -0.499   0.019   0.276  0.00  0.00     0.087 A 
HETATM   23  C   UNK N   1      -0.939   1.333   0.419  0.00  0.00     0.038 A 
HETATM   24  C   UNK N   1      -1.318  -0.975  -0.185  0.00  0.00     0.009 A 
HETATM   25  C   UNK N   1      -2.273   1.616   0.074  0.00  0.00     0.003 A 
HETATM   26  C   UNK N   1      -3.123   0.590  -0.398  0.00  0.00     0.001 A 
HETATM   27  C   UNK N   1      -2.644  -0.727  -0.533  0.00  0.00     0.015 A 
HETATM   28  C   UNK N   1      -0.562  -2.130  -0.200  0.00  0.00     0.022 A 
BRANCH  28  29
HETATM   29  C   UNK N   1      -1.018  -3.503  -0.599  0.00  0.00     0.314 C 
BRANCH  29  30
HETATM   30  N   UNK N   1      -1.998  -4.012   0.354  0.00  0.00     0.084 N 
HETATM   31  C   UNK N   1      -1.845  -5.454   0.396  0.00  0.00     0.309 C 
HETATM   32  C   UNK N   1      -3.328  -3.753  -0.170  0.00  0.00     0.309 C 
ENDBRANCH  29  30
ENDBRANCH  28  29
ENDBRANCH   1  20
TORSDOF 9
