MODEL 1
REMARK VINA RESULT:      -9.0      0.000      0.000
REMARK  2 active torsions:
REMARK  status: ('A' for Active; 'I' for Inactive)
REMARK    1  A    between atoms: C_5  and  C_34 
REMARK    2  A    between atoms: C_34  and  O_36 
ROOT
HETATM    1  C   UNK N   1      37.396  11.174  15.096  0.00  0.00     0.017 C 
HETATM    2  C   UNK N   1      36.274  12.184  14.843  0.00  0.00    -0.022 C 
HETATM    3  C   UNK N   1      37.095  13.475  14.740  0.00  0.00     0.012 C 
HETATM    4  C   UNK N   1      36.592  14.526  13.784  0.00  0.00     0.022 C 
HETATM    5  C   UNK N   1      36.179  13.971  12.423  0.00  0.00     0.050 C 
HETATM    6  C   UNK N   1      37.304  13.216  11.679  0.00  0.00     0.021 C 
HETATM    7  C   UNK N   1      36.801  12.769  10.293  0.00  0.00     0.010 C 
HETATM    8  C   UNK N   1      35.531  11.906  10.352  0.00  0.00    -0.047 C 
HETATM    9  C   UNK N   1      34.472  12.498  11.301  0.00  0.00     0.015 C 
HETATM   10  C   UNK N   1      35.021  12.965  12.665  0.00  0.00     0.017 C 
HETATM   11  C   UNK N   1      35.555  11.765  13.507  0.00  0.00     0.074 C 
HETATM   12  C   UNK N   1      34.550  10.622  13.735  0.00  0.00     0.154 C 
HETATM   13  O   UNK N   1      33.937  10.131  12.802  0.00  0.00    -0.293 OA
HETATM   14  C   UNK N   1      34.477   9.970  15.058  0.00  0.00     0.055 C 
HETATM   15  C   UNK N   1      34.889  10.628  16.158  0.00  0.00    -0.055 C 
HETATM   16  C   UNK N   1      35.240  12.129  16.027  0.00  0.00    -0.011 C 
HETATM   17  C   UNK N   1      35.797  12.733  17.330  0.00  0.00     0.015 C 
HETATM   18  C   UNK N   1      35.199  12.080  18.567  0.00  0.00     0.008 C 
HETATM   19  C   UNK N   1      35.827  10.704  18.524  0.00  0.00     0.017 C 
HETATM   20  C   UNK N   1      35.267   9.818  17.403  0.00  0.00     0.004 C 
HETATM   21  C   UNK N   1      34.177   8.916  17.912  0.00  0.00     0.014 C 
HETATM   22  C   UNK N   1      34.253   8.370  19.138  0.00  0.00     0.088 C 
HETATM   23  C   UNK N   1      35.319   8.779  20.103  0.00  0.00     0.178 C 
HETATM   24  O   UNK N   1      35.482   8.132  21.128  0.00  0.00    -0.291 OA
HETATM   25  C   UNK N   1      36.208   9.981  19.838  0.00  0.00     0.024 C 
HETATM   26  C   UNK N   1      37.644   9.502  19.710  0.00  0.00     0.024 C 
HETATM   27  C   UNK N   1      36.160  10.940  21.021  0.00  0.00     0.024 C 
HETATM   28  C   UNK N   1      33.404   7.247  19.448  0.00  0.00     0.103 C 
HETATM   29  N   UNK N   1      32.756   6.315  19.673  0.00  0.00    -0.191 NA
HETATM   30  C   UNK N   1      36.396   8.878  16.980  0.00  0.00     0.025 C 
HETATM   31  C   UNK N   1      33.975  12.938  15.721  0.00  0.00     0.021 C 
HETATM   32  C   UNK N   1      35.898  10.484  10.734  0.00  0.00     0.015 C 
HETATM   33  C   UNK N   1      34.919  11.859   8.968  0.00  0.00     0.015 C 
ENDROOT
BRANCH   5  34
HETATM   34  C   UNK N   1      35.835  15.198  11.601  0.00  0.00     0.149 C 
HETATM   35  O   UNK N   1      34.662  15.458  11.367  0.00  0.00    -0.649 OA
BRANCH  34  36
HETATM   36  O   UNK N   1      36.796  16.016  11.134  0.00  0.00    -0.776 OA
HETATM   37  H   UNK N   1      37.137  16.888  11.125  0.00  0.00     0.167 HD
ENDBRANCH  34  36
ENDBRANCH   5  34
TORSDOF 2
ENDMDL
MODEL 2
REMARK VINA RESULT:      -8.5     25.477     27.438
REMARK  2 active torsions:
REMARK  status: ('A' for Active; 'I' for Inactive)
REMARK    1  A    between atoms: C_5  and  C_34 
REMARK    2  A    between atoms: C_34  and  O_36 
ROOT
HETATM    1  C   UNK N   1      27.915  26.228  -7.999  0.00  0.00     0.017 C 
HETATM    2  C   UNK N   1      27.229  25.090  -7.240  0.00  0.00    -0.022 C 
HETATM    3  C   UNK N   1      25.921  24.990  -8.033  0.00  0.00     0.012 C 
HETATM    4  C   UNK N   1      25.316  23.617  -8.177  0.00  0.00     0.022 C 
HETATM    5  C   UNK N   1      26.327  22.538  -8.554  0.00  0.00     0.050 C 
HETATM    6  C   UNK N   1      27.086  22.813  -9.872  0.00  0.00     0.021 C 
HETATM    7  C   UNK N   1      28.019  21.629 -10.192  0.00  0.00     0.010 C 
HETATM    8  C   UNK N   1      29.012  21.310  -9.063  0.00  0.00    -0.047 C 
HETATM    9  C   UNK N   1      28.331  21.285  -7.682  0.00  0.00     0.015 C 
HETATM   10  C   UNK N   1      27.379  22.469  -7.414  0.00  0.00     0.017 C 
HETATM   11  C   UNK N   1      28.154  23.822  -7.352  0.00  0.00     0.074 C 
HETATM   12  C   UNK N   1      29.314  23.871  -6.341  0.00  0.00     0.154 C 
HETATM   13  O   UNK N   1      30.163  22.996  -6.320  0.00  0.00    -0.293 OA
HETATM   14  C   UNK N   1      29.522  25.088  -5.531  0.00  0.00     0.055 C 
HETATM   15  C   UNK N   1      28.496  25.929  -5.301  0.00  0.00    -0.055 C 
HETATM   16  C   UNK N   1      27.076  25.487  -5.725  0.00  0.00    -0.011 C 
HETATM   17  C   UNK N   1      26.013  26.580  -5.502  0.00  0.00     0.015 C 
HETATM   18  C   UNK N   1      26.334  27.455  -4.299  0.00  0.00     0.008 C 
HETATM   19  C   UNK N   1      27.535  28.232  -4.794  0.00  0.00     0.017 C 
HETATM   20  C   UNK N   1      28.805  27.376  -4.904  0.00  0.00     0.004 C 
HETATM   21  C   UNK N   1      29.665  27.515  -3.678  0.00  0.00     0.014 C 
HETATM   22  C   UNK N   1      29.780  28.698  -3.049  0.00  0.00     0.088 C 
HETATM   23  C   UNK N   1      28.925  29.863  -3.429  0.00  0.00     0.178 C 
HETATM   24  O   UNK N   1      29.185  30.971  -2.980  0.00  0.00    -0.291 OA
HETATM   25  C   UNK N   1      27.740  29.704  -4.366  0.00  0.00     0.024 C 
HETATM   26  C   UNK N   1      27.999  30.525  -5.618  0.00  0.00     0.024 C 
HETATM   27  C   UNK N   1      26.480  30.262  -3.716  0.00  0.00     0.024 C 
HETATM   28  C   UNK N   1      30.871  28.885  -2.125  0.00  0.00     0.103 C 
HETATM   29  N   UNK N   1      31.777  29.046  -1.424  0.00  0.00    -0.191 NA
HETATM   30  C   UNK N   1      29.636  27.968  -6.042  0.00  0.00     0.025 C 
HETATM   31  C   UNK N   1      26.617  24.303  -4.866  0.00  0.00     0.021 C 
HETATM   32  C   UNK N   1      30.165  22.295  -9.105  0.00  0.00     0.015 C 
HETATM   33  C   UNK N   1      29.587  19.930  -9.306  0.00  0.00     0.015 C 
ENDROOT
BRANCH   5  34
HETATM   34  C   UNK N   1      25.490  21.290  -8.765  0.00  0.00     0.149 C 
HETATM   35  O   UNK N   1      25.168  20.610  -7.799  0.00  0.00    -0.649 OA
BRANCH  34  36
HETATM   36  O   UNK N   1      25.084  20.923  -9.993  0.00  0.00    -0.776 OA
HETATM   37  H   UNK N   1      25.304  20.872 -10.902  0.00  0.00     0.167 HD
ENDBRANCH  34  36
ENDBRANCH   5  34
TORSDOF 2
ENDMDL
MODEL 3
REMARK VINA RESULT:      -8.4      2.688      4.871
REMARK  2 active torsions:
REMARK  status: ('A' for Active; 'I' for Inactive)
REMARK    1  A    between atoms: C_5  and  C_34 
REMARK    2  A    between atoms: C_34  and  O_36 
ROOT
HETATM    1  C   UNK N   1      34.360  10.798  11.596  0.00  0.00     0.017 C 
HETATM    2  C   UNK N   1      35.581  11.514  11.016  0.00  0.00    -0.022 C 
HETATM    3  C   UNK N   1      36.082  10.443  10.041  0.00  0.00     0.012 C 
HETATM    4  C   UNK N   1      36.720  10.929   8.765  0.00  0.00     0.022 C 
HETATM    5  C   UNK N   1      35.940  12.045   8.075  0.00  0.00     0.050 C 
HETATM    6  C   UNK N   1      34.485  11.671   7.713  0.00  0.00     0.021 C 
HETATM    7  C   UNK N   1      33.820  12.838   6.957  0.00  0.00     0.010 C 
HETATM    8  C   UNK N   1      33.851  14.164   7.732  0.00  0.00    -0.047 C 
HETATM    9  C   UNK N   1      35.237  14.449   8.340  0.00  0.00     0.015 C 
HETATM   10  C   UNK N   1      35.883  13.246   9.058  0.00  0.00     0.017 C 
HETATM   11  C   UNK N   1      35.070  12.832  10.324  0.00  0.00     0.074 C 
HETATM   12  C   UNK N   1      34.827  13.956  11.347  0.00  0.00     0.154 C 
HETATM   13  O   UNK N   1      34.378  15.035  10.997  0.00  0.00    -0.293 OA
HETATM   14  C   UNK N   1      34.938  13.663  12.790  0.00  0.00     0.055 C 
HETATM   15  C   UNK N   1      35.684  12.626  13.212  0.00  0.00    -0.055 C 
HETATM   16  C   UNK N   1      36.571  11.891  12.179  0.00  0.00    -0.011 C 
HETATM   17  C   UNK N   1      37.290  10.662  12.768  0.00  0.00     0.015 C 
HETATM   18  C   UNK N   1      37.632  10.848  14.239  0.00  0.00     0.008 C 
HETATM   19  C   UNK N   1      36.264  10.794  14.884  0.00  0.00     0.017 C 
HETATM   20  C   UNK N   1      35.414  12.041  14.602  0.00  0.00     0.004 C 
HETATM   21  C   UNK N   1      35.514  13.035  15.726  0.00  0.00     0.014 C 
HETATM   22  C   UNK N   1      35.586  12.623  17.004  0.00  0.00     0.088 C 
HETATM   23  C   UNK N   1      35.755  11.178  17.343  0.00  0.00     0.178 C 
HETATM   24  O   UNK N   1      35.622  10.814  18.503  0.00  0.00    -0.291 OA
HETATM   25  C   UNK N   1      36.085  10.148  16.277  0.00  0.00     0.024 C 
HETATM   26  C   UNK N   1      34.938   9.156  16.191  0.00  0.00     0.024 C 
HETATM   27  C   UNK N   1      37.328   9.362  16.676  0.00  0.00     0.024 C 
HETATM   28  C   UNK N   1      35.312  13.575  18.052  0.00  0.00     0.103 C 
HETATM   29  N   UNK N   1      35.043  14.330  18.886  0.00  0.00    -0.191 NA
HETATM   30  C   UNK N   1      33.954  11.586  14.602  0.00  0.00     0.025 C 
HETATM   31  C   UNK N   1      37.693  12.818  11.699  0.00  0.00     0.021 C 
HETATM   32  C   UNK N   1      32.762  14.162   8.790  0.00  0.00     0.015 C 
HETATM   33  C   UNK N   1      33.542  15.290   6.768  0.00  0.00     0.015 C 
ENDROOT
BRANCH   5  34
HETATM   34  C   UNK N   1      36.684  12.282   6.775  0.00  0.00     0.149 C 
HETATM   35  O   UNK N   1      36.534  11.504   5.843  0.00  0.00    -0.649 OA
BRANCH  34  36
HETATM   36  O   UNK N   1      37.498  13.342   6.622  0.00  0.00    -0.776 OA
HETATM   37  H   UNK N   1      38.249  13.689   6.182  0.00  0.00     0.167 HD
ENDBRANCH  34  36
ENDBRANCH   5  34
TORSDOF 2
ENDMDL
MODEL 4
REMARK VINA RESULT:      -8.2      3.044      8.206
REMARK  2 active torsions:
REMARK  status: ('A' for Active; 'I' for Inactive)
REMARK    1  A    between atoms: C_5  and  C_34 
REMARK    2  A    between atoms: C_34  and  O_36 
ROOT
HETATM    1  C   UNK N   1      34.154  11.297  13.994  0.00  0.00     0.017 C 
HETATM    2  C   UNK N   1      35.326  11.634  14.919  0.00  0.00    -0.022 C 
HETATM    3  C   UNK N   1      34.569  12.270  16.090  0.00  0.00     0.012 C 
HETATM    4  C   UNK N   1      35.139  12.051  17.468  0.00  0.00     0.022 C 
HETATM    5  C   UNK N   1      35.552  10.608  17.739  0.00  0.00     0.050 C 
HETATM    6  C   UNK N   1      34.409   9.580  17.578  0.00  0.00     0.021 C 
HETATM    7  C   UNK N   1      34.918   8.174  17.948  0.00  0.00     0.010 C 
HETATM    8  C   UNK N   1      36.145   7.734  17.135  0.00  0.00    -0.047 C 
HETATM    9  C   UNK N   1      37.211   8.842  17.049  0.00  0.00     0.015 C 
HETATM   10  C   UNK N   1      36.657  10.242  16.711  0.00  0.00     0.017 C 
HETATM   11  C   UNK N   1      36.051  10.284  15.273  0.00  0.00     0.074 C 
HETATM   12  C   UNK N   1      36.998   9.832  14.146  0.00  0.00     0.154 C 
HETATM   13  O   UNK N   1      37.606   8.777  14.224  0.00  0.00    -0.293 OA
HETATM   14  C   UNK N   1      37.014  10.572  12.869  0.00  0.00     0.055 C 
HETATM   15  C   UNK N   1      36.611  11.856  12.828  0.00  0.00    -0.055 C 
HETATM   16  C   UNK N   1      36.333  12.581  14.166  0.00  0.00    -0.011 C 
HETATM   17  C   UNK N   1      35.778  14.006  13.975  0.00  0.00     0.015 C 
HETATM   18  C   UNK N   1      36.321  14.669  12.719  0.00  0.00     0.008 C 
HETATM   19  C   UNK N   1      35.631  13.877  11.629  0.00  0.00     0.017 C 
HETATM   20  C   UNK N   1      36.172  12.448  11.485  0.00  0.00     0.004 C 
HETATM   21  C   UNK N   1      37.209  12.363  10.399  0.00  0.00     0.014 C 
HETATM   22  C   UNK N   1      37.082  13.083   9.271  0.00  0.00     0.088 C 
HETATM   23  C   UNK N   1      36.018  14.122   9.129  0.00  0.00     0.178 C 
HETATM   24  O   UNK N   1      35.804  14.619   8.033  0.00  0.00    -0.291 OA
HETATM   25  C   UNK N   1      35.190  14.574  10.320  0.00  0.00     0.024 C 
HETATM   26  C   UNK N   1      33.736  14.215  10.064  0.00  0.00     0.024 C 
HETATM   27  C   UNK N   1      35.260  16.090  10.461  0.00  0.00     0.024 C 
HETATM   28  C   UNK N   1      37.872  12.711   8.123  0.00  0.00     0.103 C 
HETATM   29  N   UNK N   1      38.471  12.377   7.191  0.00  0.00    -0.191 NA
HETATM   30  C   UNK N   1      35.009  11.586  10.993  0.00  0.00     0.025 C 
HETATM   31  C   UNK N   1      37.640  12.762  14.945  0.00  0.00     0.021 C 
HETATM   32  C   UNK N   1      35.705   7.268  15.759  0.00  0.00     0.015 C 
HETATM   33  C   UNK N   1      36.782   6.550  17.831  0.00  0.00     0.015 C 
ENDROOT
BRANCH   5  34
HETATM   34  C   UNK N   1      35.969  10.599  19.197  0.00  0.00     0.149 C 
HETATM   35  O   UNK N   1      35.170  10.949  20.055  0.00  0.00    -0.649 OA
BRANCH  34  36
HETATM   36  O   UNK N   1      37.199  10.198  19.567  0.00  0.00    -0.776 OA
HETATM   37  H   UNK N   1      38.085  10.456  19.725  0.00  0.00     0.167 HD
ENDBRANCH  34  36
ENDBRANCH   5  34
TORSDOF 2
ENDMDL
MODEL 5
REMARK VINA RESULT:      -8.2      1.852      2.244
REMARK  2 active torsions:
REMARK  status: ('A' for Active; 'I' for Inactive)
REMARK    1  A    between atoms: C_5  and  C_34 
REMARK    2  A    between atoms: C_34  and  O_36 
ROOT
HETATM    1  C   UNK N   1      37.656  10.755  14.703  0.00  0.00     0.017 C 
HETATM    2  C   UNK N   1      36.245  11.236  14.363  0.00  0.00    -0.022 C 
HETATM    3  C   UNK N   1      36.375  12.721  14.719  0.00  0.00     0.012 C 
HETATM    4  C   UNK N   1      35.586  13.694  13.880  0.00  0.00     0.022 C 
HETATM    5  C   UNK N   1      35.683  13.429  12.380  0.00  0.00     0.050 C 
HETATM    6  C   UNK N   1      37.124  13.452  11.823  0.00  0.00     0.021 C 
HETATM    7  C   UNK N   1      37.095  13.251  10.296  0.00  0.00     0.010 C 
HETATM    8  C   UNK N   1      36.379  11.962   9.863  0.00  0.00    -0.047 C 
HETATM    9  C   UNK N   1      35.041  11.766  10.599  0.00  0.00     0.015 C 
HETATM   10  C   UNK N   1      35.104  12.011  12.122  0.00  0.00     0.017 C 
HETATM   11  C   UNK N   1      36.006  10.955  12.833  0.00  0.00     0.074 C 
HETATM   12  C   UNK N   1      35.627   9.485  12.576  0.00  0.00     0.154 C 
HETATM   13  O   UNK N   1      35.456   9.072  11.441  0.00  0.00    -0.293 OA
HETATM   14  C   UNK N   1      35.674   8.516  13.689  0.00  0.00     0.055 C 
HETATM   15  C   UNK N   1      35.568   8.944  14.961  0.00  0.00    -0.055 C 
HETATM   16  C   UNK N   1      35.194  10.424  15.208  0.00  0.00    -0.011 C 
HETATM   17  C   UNK N   1      35.210  10.808  16.700  0.00  0.00     0.015 C 
HETATM   18  C   UNK N   1      34.811   9.645  17.595  0.00  0.00     0.008 C 
HETATM   19  C   UNK N   1      36.007   8.726  17.459  0.00  0.00     0.017 C 
HETATM   20  C   UNK N   1      36.093   8.046  16.086  0.00  0.00     0.004 C 
HETATM   21  C   UNK N   1      35.486   6.670  16.118  0.00  0.00     0.014 C 
HETATM   22  C   UNK N   1      35.629   5.882  17.198  0.00  0.00     0.088 C 
HETATM   23  C   UNK N   1      36.229   6.403  18.464  0.00  0.00     0.178 C 
HETATM   24  O   UNK N   1      36.523   5.620  19.356  0.00  0.00    -0.291 OA
HETATM   25  C   UNK N   1      36.485   7.886  18.667  0.00  0.00     0.024 C 
HETATM   26  C   UNK N   1      37.980   8.102  18.826  0.00  0.00     0.024 C 
HETATM   27  C   UNK N   1      35.824   8.360  19.956  0.00  0.00     0.024 C 
HETATM   28  C   UNK N   1      35.365   4.471  17.062  0.00  0.00     0.103 C 
HETATM   29  N   UNK N   1      35.200   3.333  16.934  0.00  0.00    -0.191 NA
HETATM   30  C   UNK N   1      37.578   7.820  15.800  0.00  0.00     0.025 C 
HETATM   31  C   UNK N   1      33.758  10.688  14.743  0.00  0.00     0.021 C 
HETATM   32  C   UNK N   1      37.306  10.775  10.053  0.00  0.00     0.015 C 
HETATM   33  C   UNK N   1      36.068  12.060   8.384  0.00  0.00     0.015 C 
ENDROOT
BRANCH   5  34
HETATM   34  C   UNK N   1      34.931  14.582  11.741  0.00  0.00     0.149 C 
HETATM   35  O   UNK N   1      35.480  15.669  11.624  0.00  0.00    -0.649 OA
BRANCH  34  36
HETATM   36  O   UNK N   1      33.674  14.427  11.288  0.00  0.00    -0.776 OA
HETATM   37  H   UNK N   1      32.837  14.829  11.164  0.00  0.00     0.167 HD
ENDBRANCH  34  36
ENDBRANCH   5  34
TORSDOF 2
ENDMDL
MODEL 6
REMARK VINA RESULT:      -7.8     12.221     16.589
REMARK  2 active torsions:
REMARK  status: ('A' for Active; 'I' for Inactive)
REMARK    1  A    between atoms: C_5  and  C_34 
REMARK    2  A    between atoms: C_34  and  O_36 
ROOT
HETATM    1  C   UNK N   1      25.672  17.289   3.375  0.00  0.00     0.017 C 
HETATM    2  C   UNK N   1      26.229  15.883   3.607  0.00  0.00    -0.022 C 
HETATM    3  C   UNK N   1      26.916  15.642   2.258  0.00  0.00     0.012 C 
HETATM    4  C   UNK N   1      28.177  14.816   2.275  0.00  0.00     0.022 C 
HETATM    5  C   UNK N   1      29.154  15.209   3.380  0.00  0.00     0.050 C 
HETATM    6  C   UNK N   1      29.607  16.686   3.328  0.00  0.00     0.021 C 
HETATM    7  C   UNK N   1      30.645  16.950   4.437  0.00  0.00     0.010 C 
HETATM    8  C   UNK N   1      30.138  16.599   5.844  0.00  0.00    -0.047 C 
HETATM    9  C   UNK N   1      29.436  15.228   5.883  0.00  0.00     0.015 C 
HETATM   10  C   UNK N   1      28.431  14.989   4.737  0.00  0.00     0.017 C 
HETATM   11  C   UNK N   1      27.215  15.963   4.831  0.00  0.00     0.074 C 
HETATM   12  C   UNK N   1      26.460  15.945   6.173  0.00  0.00     0.154 C 
HETATM   13  O   UNK N   1      27.059  16.052   7.230  0.00  0.00    -0.293 OA
HETATM   14  C   UNK N   1      24.985  16.010   6.179  0.00  0.00     0.055 C 
HETATM   15  C   UNK N   1      24.288  15.610   5.099  0.00  0.00    -0.055 C 
HETATM   16  C   UNK N   1      25.050  14.901   3.955  0.00  0.00    -0.011 C 
HETATM   17  C   UNK N   1      24.157  14.593   2.738  0.00  0.00     0.015 C 
HETATM   18  C   UNK N   1      22.719  14.303   3.141  0.00  0.00     0.008 C 
HETATM   19  C   UNK N   1      22.242  15.669   3.584  0.00  0.00     0.017 C 
HETATM   20  C   UNK N   1      22.854  16.119   4.918  0.00  0.00     0.004 C 
HETATM   21  C   UNK N   1      21.936  15.815   6.070  0.00  0.00     0.014 C 
HETATM   22  C   UNK N   1      20.604  15.940   5.939  0.00  0.00     0.088 C 
HETATM   23  C   UNK N   1      19.978  16.203   4.608  0.00  0.00     0.178 C 
HETATM   24  O   UNK N   1      18.794  16.504   4.549  0.00  0.00    -0.291 OA
HETATM   25  C   UNK N   1      20.782  16.108   3.323  0.00  0.00     0.024 C 
HETATM   26  C   UNK N   1      20.813  17.479   2.669  0.00  0.00     0.024 C 
HETATM   27  C   UNK N   1      20.096  15.161   2.345  0.00  0.00     0.024 C 
HETATM   28  C   UNK N   1      19.796  16.002   7.132  0.00  0.00     0.103 C 
HETATM   29  N   UNK N   1      19.158  16.101   8.092  0.00  0.00    -0.191 NA
HETATM   30  C   UNK N   1      22.941  17.644   4.870  0.00  0.00     0.025 C 
HETATM   31  C   UNK N   1      25.562  13.538   4.431  0.00  0.00     0.021 C 
HETATM   32  C   UNK N   1      29.236  17.708   6.354  0.00  0.00     0.015 C 
HETATM   33  C   UNK N   1      31.329  16.520   6.777  0.00  0.00     0.015 C 
ENDROOT
BRANCH   5  34
HETATM   34  C   UNK N   1      30.378  14.349   3.129  0.00  0.00     0.149 C 
HETATM   35  O   UNK N   1      30.323  13.146   3.345  0.00  0.00    -0.649 OA
BRANCH  34  36
HETATM   36  O   UNK N   1      31.520  14.882   2.661  0.00  0.00    -0.776 OA
HETATM   37  H   UNK N   1      32.092  15.624   2.669  0.00  0.00     0.167 HD
ENDBRANCH  34  36
ENDBRANCH   5  34
TORSDOF 2
ENDMDL
MODEL 7
REMARK VINA RESULT:      -7.8     21.701     25.498
REMARK  2 active torsions:
REMARK  status: ('A' for Active; 'I' for Inactive)
REMARK    1  A    between atoms: C_5  and  C_34 
REMARK    2  A    between atoms: C_34  and  O_36 
ROOT
HETATM    1  C   UNK N   1      29.701  21.826  -4.877  0.00  0.00     0.017 C 
HETATM    2  C   UNK N   1      29.563  22.450  -6.267  0.00  0.00    -0.022 C 
HETATM    3  C   UNK N   1      28.466  21.555  -6.855  0.00  0.00     0.012 C 
HETATM    4  C   UNK N   1      27.498  22.204  -7.811  0.00  0.00     0.022 C 
HETATM    5  C   UNK N   1      26.972  23.553  -7.330  0.00  0.00     0.050 C 
HETATM    6  C   UNK N   1      26.256  23.503  -5.962  0.00  0.00     0.021 C 
HETATM    7  C   UNK N   1      25.702  24.898  -5.613  0.00  0.00     0.010 C 
HETATM    8  C   UNK N   1      26.774  25.999  -5.612  0.00  0.00    -0.047 C 
HETATM    9  C   UNK N   1      27.687  25.920  -6.849  0.00  0.00     0.015 C 
HETATM   10  C   UNK N   1      28.193  24.501  -7.185  0.00  0.00     0.017 C 
HETATM   11  C   UNK N   1      29.136  23.952  -6.069  0.00  0.00     0.074 C 
HETATM   12  C   UNK N   1      30.341  24.847  -5.726  0.00  0.00     0.154 C 
HETATM   13  O   UNK N   1      30.191  26.033  -5.485  0.00  0.00    -0.293 OA
HETATM   14  C   UNK N   1      31.659  24.229  -5.478  0.00  0.00     0.055 C 
HETATM   15  C   UNK N   1      31.944  23.019  -5.995  0.00  0.00    -0.055 C 
HETATM   16  C   UNK N   1      30.951  22.400  -7.006  0.00  0.00    -0.011 C 
HETATM   17  C   UNK N   1      31.342  20.973  -7.437  0.00  0.00     0.015 C 
HETATM   18  C   UNK N   1      32.850  20.774  -7.460  0.00  0.00     0.008 C 
HETATM   19  C   UNK N   1      33.186  20.796  -5.985  0.00  0.00     0.017 C 
HETATM   20  C   UNK N   1      33.066  22.193  -5.358  0.00  0.00     0.004 C 
HETATM   21  C   UNK N   1      34.400  22.886  -5.311  0.00  0.00     0.014 C 
HETATM   22  C   UNK N   1      35.524  22.196  -5.050  0.00  0.00     0.088 C 
HETATM   23  C   UNK N   1      35.519  20.704  -4.982  0.00  0.00     0.178 C 
HETATM   24  O   UNK N   1      36.504  20.118  -4.554  0.00  0.00    -0.291 OA
HETATM   25  C   UNK N   1      34.314  19.895  -5.429  0.00  0.00     0.024 C 
HETATM   26  C   UNK N   1      33.764  19.141  -4.230  0.00  0.00     0.024 C 
HETATM   27  C   UNK N   1      34.735  18.854  -6.459  0.00  0.00     0.024 C 
HETATM   28  C   UNK N   1      36.704  22.924  -4.653  0.00  0.00     0.103 C 
HETATM   29  N   UNK N   1      37.632  23.510  -4.286  0.00  0.00    -0.191 NA
HETATM   30  C   UNK N   1      32.673  21.985  -3.896  0.00  0.00     0.025 C 
HETATM   31  C   UNK N   1      30.941  23.220  -8.300  0.00  0.00     0.021 C 
HETATM   32  C   UNK N   1      27.568  25.936  -4.320  0.00  0.00     0.015 C 
HETATM   33  C   UNK N   1      26.080  27.344  -5.651  0.00  0.00     0.015 C 
ENDROOT
BRANCH   5  34
HETATM   34  C   UNK N   1      25.940  23.950  -8.368  0.00  0.00     0.149 C 
HETATM   35  O   UNK N   1      26.206  24.829  -9.177  0.00  0.00    -0.649 OA
BRANCH  34  36
HETATM   36  O   UNK N   1      24.740  23.344  -8.426  0.00  0.00    -0.776 OA
HETATM   37  H   UNK N   1      24.158  22.820  -8.940  0.00  0.00     0.167 HD
ENDBRANCH  34  36
ENDBRANCH   5  34
TORSDOF 2
ENDMDL
MODEL 8
REMARK VINA RESULT:      -7.8     12.529     16.047
REMARK  2 active torsions:
REMARK  status: ('A' for Active; 'I' for Inactive)
REMARK    1  A    between atoms: C_5  and  C_34 
REMARK    2  A    between atoms: C_34  and  O_36 
ROOT
HETATM    1  C   UNK N   1      26.480  15.228   6.093  0.00  0.00     0.017 C 
HETATM    2  C   UNK N   1      27.168  16.283   5.224  0.00  0.00    -0.022 C 
HETATM    3  C   UNK N   1      27.967  17.032   6.296  0.00  0.00     0.012 C 
HETATM    4  C   UNK N   1      29.305  17.589   5.881  0.00  0.00     0.022 C 
HETATM    5  C   UNK N   1      30.156  16.608   5.080  0.00  0.00     0.050 C 
HETATM    6  C   UNK N   1      30.452  15.280   5.811  0.00  0.00     0.021 C 
HETATM    7  C   UNK N   1      31.376  14.403   4.945  0.00  0.00     0.010 C 
HETATM    8  C   UNK N   1      30.816  14.123   3.542  0.00  0.00    -0.047 C 
HETATM    9  C   UNK N   1      30.264  15.396   2.874  0.00  0.00     0.015 C 
HETATM   10  C   UNK N   1      29.371  16.265   3.785  0.00  0.00     0.017 C 
HETATM   11  C   UNK N   1      28.053  15.521   4.169  0.00  0.00     0.074 C 
HETATM   12  C   UNK N   1      27.215  15.011   2.983  0.00  0.00     0.154 C 
HETATM   13  O   UNK N   1      27.726  14.351   2.093  0.00  0.00    -0.293 OA
HETATM   14  C   UNK N   1      25.744  15.138   3.023  0.00  0.00     0.055 C 
HETATM   15  C   UNK N   1      25.170  16.078   3.797  0.00  0.00    -0.055 C 
HETATM   16  C   UNK N   1      26.080  17.133   4.469  0.00  0.00    -0.011 C 
HETATM   17  C   UNK N   1      25.310  18.081   5.409  0.00  0.00     0.015 C 
HETATM   18  C   UNK N   1      23.888  18.330   4.932  0.00  0.00     0.008 C 
HETATM   19  C   UNK N   1      23.237  16.987   5.184  0.00  0.00     0.017 C 
HETATM   20  C   UNK N   1      23.705  15.897   4.210  0.00  0.00     0.004 C 
HETATM   21  C   UNK N   1      22.749  15.746   3.059  0.00  0.00     0.014 C 
HETATM   22  C   UNK N   1      21.423  15.866   3.247  0.00  0.00     0.088 C 
HETATM   23  C   UNK N   1      20.865  16.332   4.553  0.00  0.00     0.178 C 
HETATM   24  O   UNK N   1      19.662  16.245   4.758  0.00  0.00    -0.291 OA
HETATM   25  C   UNK N   1      21.760  16.909   5.636  0.00  0.00     0.024 C 
HETATM   26  C   UNK N   1      21.689  16.005   6.855  0.00  0.00     0.024 C 
HETATM   27  C   UNK N   1      21.249  18.279   6.063  0.00  0.00     0.024 C 
HETATM   28  C   UNK N   1      20.533  15.362   2.230  0.00  0.00     0.103 C 
HETATM   29  N   UNK N   1      19.825  14.911   1.435  0.00  0.00    -0.191 NA
HETATM   30  C   UNK N   1      23.631  14.570   4.966  0.00  0.00     0.025 C 
HETATM   31  C   UNK N   1      26.701  18.043   3.404  0.00  0.00     0.021 C 
HETATM   32  C   UNK N   1      29.767  13.029   3.620  0.00  0.00     0.015 C 
HETATM   33  C   UNK N   1      31.941  13.609   2.669  0.00  0.00     0.015 C 
ENDROOT
BRANCH   5  34
HETATM   34  C   UNK N   1      31.480  17.324   4.885  0.00  0.00     0.149 C 
HETATM   35  O   UNK N   1      32.306  17.318   5.788  0.00  0.00    -0.649 OA
BRANCH  34  36
HETATM   36  O   UNK N   1      31.768  17.954   3.732  0.00  0.00    -0.776 OA
HETATM   37  H   UNK N   1      32.320  17.976   2.975  0.00  0.00     0.167 HD
ENDBRANCH  34  36
ENDBRANCH   5  34
TORSDOF 2
ENDMDL
MODEL 9
REMARK VINA RESULT:      -7.6      5.627     11.129
REMARK  2 active torsions:
REMARK  status: ('A' for Active; 'I' for Inactive)
REMARK    1  A    between atoms: C_5  and  C_34 
REMARK    2  A    between atoms: C_34  and  O_36 
ROOT
HETATM    1  C   UNK N   1      35.312  15.334   7.400  0.00  0.00     0.017 C 
HETATM    2  C   UNK N   1      34.804  13.958   7.835  0.00  0.00    -0.022 C 
HETATM    3  C   UNK N   1      35.796  13.058   7.089  0.00  0.00     0.012 C 
HETATM    4  C   UNK N   1      36.189  11.770   7.766  0.00  0.00     0.022 C 
HETATM    5  C   UNK N   1      36.528  11.934   9.245  0.00  0.00     0.050 C 
HETATM    6  C   UNK N   1      37.672  12.934   9.526  0.00  0.00     0.021 C 
HETATM    7  C   UNK N   1      37.980  12.961  11.036  0.00  0.00     0.010 C 
HETATM    8  C   UNK N   1      36.756  13.296  11.903  0.00  0.00    -0.047 C 
HETATM    9  C   UNK N   1      35.508  12.500  11.478  0.00  0.00     0.015 C 
HETATM   10  C   UNK N   1      35.255  12.468   9.956  0.00  0.00     0.017 C 
HETATM   11  C   UNK N   1      34.919  13.888   9.403  0.00  0.00     0.074 C 
HETATM   12  C   UNK N   1      33.742  14.602  10.094  0.00  0.00     0.154 C 
HETATM   13  O   UNK N   1      33.692  14.694  11.309  0.00  0.00    -0.293 OA
HETATM   14  C   UNK N   1      32.774  15.364   9.279  0.00  0.00     0.055 C 
HETATM   15  C   UNK N   1      32.609  15.068   7.976  0.00  0.00    -0.055 C 
HETATM   16  C   UNK N   1      33.295  13.799   7.419  0.00  0.00    -0.011 C 
HETATM   17  C   UNK N   1      33.114  13.635   5.897  0.00  0.00     0.015 C 
HETATM   18  C   UNK N   1      31.783  14.192   5.416  0.00  0.00     0.008 C 
HETATM   19  C   UNK N   1      31.993  15.682   5.583  0.00  0.00     0.017 C 
HETATM   20  C   UNK N   1      32.005  16.129   7.051  0.00  0.00     0.004 C 
HETATM   21  C   UNK N   1      30.653  16.631   7.480  0.00  0.00     0.014 C 
HETATM   22  C   UNK N   1      29.882  17.336   6.634  0.00  0.00     0.088 C 
HETATM   23  C   UNK N   1      30.251  17.491   5.194  0.00  0.00     0.178 C 
HETATM   24  O   UNK N   1      29.643  18.292   4.500  0.00  0.00    -0.291 OA
HETATM   25  C   UNK N   1      31.372  16.675   4.573  0.00  0.00     0.024 C 
HETATM   26  C   UNK N   1      32.465  17.624   4.114  0.00  0.00     0.024 C 
HETATM   27  C   UNK N   1      30.863  15.945   3.335  0.00  0.00     0.024 C 
HETATM   28  C   UNK N   1      28.786  18.101   7.175  0.00  0.00     0.103 C 
HETATM   29  N   UNK N   1      27.939  18.753   7.620  0.00  0.00    -0.191 NA
HETATM   30  C   UNK N   1      32.925  17.347   7.132  0.00  0.00     0.025 C 
HETATM   31  C   UNK N   1      32.660  12.547   8.034  0.00  0.00     0.021 C 
HETATM   32  C   UNK N   1      36.505  14.793  11.876  0.00  0.00     0.015 C 
HETATM   33  C   UNK N   1      37.065  12.916  13.336  0.00  0.00     0.015 C 
ENDROOT
BRANCH   5  34
HETATM   34  C   UNK N   1      37.007  10.561   9.679  0.00  0.00     0.149 C 
HETATM   35  O   UNK N   1      36.208   9.766  10.156  0.00  0.00    -0.649 OA
BRANCH  34  36
HETATM   36  O   UNK N   1      38.294  10.196   9.537  0.00  0.00    -0.776 OA
HETATM   37  H   UNK N   1      39.190  10.451   9.637  0.00  0.00     0.167 HD
ENDBRANCH  34  36
ENDBRANCH   5  34
TORSDOF 2
ENDMDL
