REMARK  14 active torsions:
REMARK  status: ('A' for Active; 'I' for Inactive)
REMARK    1  A    between atoms: N_26  and  C_6 
REMARK    2  A    between atoms: C_8  and  C_7 
REMARK    3  A    between atoms: C_15  and  C_7 
REMARK    4  A    between atoms: C_16  and  C_8 
REMARK    5  A    between atoms: N_26  and  C_15 
REMARK    6  A    between atoms: O_31  and  C_16 
REMARK    7  A    between atoms: C_19  and  C_17 
REMARK    8  A    between atoms: C_20  and  C_17 
REMARK    9  A    between atoms: N_26  and  C_19 
REMARK   10  A    between atoms: C_25  and  C_21 
REMARK   11  A    between atoms: O_28  and  C_22 
REMARK   12  A    between atoms: O_29  and  C_23 
REMARK   13  A    between atoms: O_30  and  C_24 
REMARK   14  A    between atoms: O_31  and  C_25 
ROOT
HETATM    1  C   UNK N   1       2.435   0.439   0.565  0.00  0.00     0.032 C 
ENDROOT
BRANCH   1   2
HETATM    2  C   UNK N   1       0.992  -0.016   0.531  0.00  0.00     0.028 C 
BRANCH   2   3
HETATM    3  C   UNK N   1       0.119   0.947   1.318  0.00  0.00     0.179 C 
BRANCH   3   4
HETATM    4  O   UNK N   1      -0.127   2.101   0.602  0.00  0.00    -0.318 OA
BRANCH   4   5
HETATM    5  C   UNK N   1      -1.371   2.492   0.215  0.00  0.00     0.293 C 
HETATM    6  O   UNK N   1      -1.563   3.679  -0.013  0.00  0.00    -0.259 OA
BRANCH   5   7
HETATM    7  C   UNK N   1      -2.508   1.539   0.077  0.00  0.00     0.042 A 
HETATM    8  C   UNK N   1      -3.818   2.015  -0.018  0.00  0.00     0.020 A 
HETATM    9  C   UNK N   1      -4.885   1.124  -0.133  0.00  0.00     0.040 A 
HETATM   10  C   UNK N   1      -4.675  -0.261  -0.177  0.00  0.00     0.101 A 
HETATM   11  C   UNK N   1      -3.335  -0.753  -0.085  0.00  0.00     0.102 A 
HETATM   12  C   UNK N   1      -2.287   0.159   0.034  0.00  0.00     0.057 A 
BRANCH  10  13
HETATM   13  O   UNK N   1      -5.776  -1.041  -0.339  0.00  0.00    -0.353 OA
HETATM   14  C   UNK N   1      -5.788  -2.339  -0.788  0.00  0.00     0.210 C 
ENDBRANCH  10  13
BRANCH  11  15
HETATM   15  O   UNK N   1      -3.005  -2.066  -0.092  0.00  0.00    -0.353 OA
HETATM   16  C   UNK N   1      -3.532  -2.973   0.795  0.00  0.00     0.210 C 
ENDBRANCH  11  15
ENDBRANCH   5   7
ENDBRANCH   4   5
ENDBRANCH   3   4
ENDBRANCH   2   3
ENDBRANCH   1   2
BRANCH   1  17
HETATM   17  C   UNK N   1       2.648   1.522  -0.475  0.00  0.00     0.273 C 
BRANCH  17  18
HETATM   18  N   UNK N   1       3.858   2.291  -0.187  0.00  0.00     0.092 N 
BRANCH  18  19
HETATM   19  C   UNK N   1       3.795   3.508  -0.979  0.00  0.00     0.268 C 
HETATM   20  C   UNK N   1       4.494   4.633  -0.238  0.00  0.00     0.037 C 
ENDBRANCH  18  19
BRANCH  18  21
HETATM   21  C   UNK N   1       5.109   1.581  -0.509  0.00  0.00     0.223 C 
HETATM   22  C   UNK N   1       4.998   0.621  -1.701  0.00  0.00     0.043 C 
BRANCH  21  23
HETATM   23  C   UNK N   1       5.665   0.899   0.736  0.00  0.00     0.074 C 
BRANCH  23  24
HETATM   24  C   UNK N   1       7.026   0.330   0.501  0.00  0.00    -0.056 A 
HETATM   25  C   UNK N   1       7.211  -1.050   0.592  0.00  0.00     0.010 A 
HETATM   26  C   UNK N   1       8.470  -1.608   0.363  0.00  0.00     0.037 A 
HETATM   27  C   UNK N   1       9.558  -0.790   0.041  0.00  0.00     0.068 A 
HETATM   28  C   UNK N   1       9.372   0.603  -0.045  0.00  0.00     0.037 A 
HETATM   29  C   UNK N   1       8.110   1.161   0.184  0.00  0.00     0.010 A 
BRANCH  27  30
HETATM   30  O   UNK N   1      10.764  -1.365  -0.179  0.00  0.00    -0.356 OA
HETATM   31  C   UNK N   1      11.895  -0.649  -0.498  0.00  0.00     0.210 C 
ENDBRANCH  27  30
ENDBRANCH  23  24
ENDBRANCH  21  23
ENDBRANCH  18  21
ENDBRANCH  17  18
ENDBRANCH   1  17
TORSDOF 14
