MODEL 1
REMARK VINA RESULT:      -8.5      0.000      0.000
REMARK  12 active torsions:
REMARK  status: ('A' for Active; 'I' for Inactive)
REMARK    1  A    between atoms: C_2  and  C_4 
REMARK    2  A    between atoms: C_2  and  N_22 
REMARK    3  A    between atoms: C_4  and  C_5 
REMARK    4  A    between atoms: C_8  and  O_11 
REMARK    5  A    between atoms: O_11  and  C_12 
REMARK    6  A    between atoms: C_15  and  C_19 
REMARK       I    between atoms: C_19  and  N_21 
REMARK    7  A    between atoms: N_22  and  C_23 
REMARK    8  A    between atoms: C_23  and  C_24 
REMARK    9  A    between atoms: C_24  and  C_25 
REMARK   10  A    between atoms: C_24  and  O_40 
REMARK   11  A    between atoms: C_25  and  O_26 
REMARK   12  A    between atoms: O_26  and  C_27 
ROOT
HETATM    1  C   UNK N   1      21.497  16.585   2.741  0.00  0.00     0.038 C 
HETATM    2  C   UNK N   1      20.404  17.562   3.117  0.00  0.00     0.022 C 
HETATM    3  C   UNK N   1      19.937  18.221   1.832  0.00  0.00     0.038 C 
ENDROOT
BRANCH   2   4
HETATM    4  C   UNK N   1      21.014  18.649   4.043  0.00  0.00     0.068 C 
BRANCH   4   5
HETATM    5  C   UNK N   1      22.516  18.730   4.069  0.00  0.00    -0.056 A 
HETATM    6  C   UNK N   1      23.268  17.842   4.859  0.00  0.00     0.010 A 
HETATM    7  C   UNK N   1      24.670  17.968   4.922  0.00  0.00     0.038 A 
HETATM    8  C   UNK N   1      25.308  18.996   4.212  0.00  0.00     0.077 A 
HETATM    9  C   UNK N   1      24.536  19.845   3.405  0.00  0.00     0.038 A 
HETATM   10  C   UNK N   1      23.171  19.714   3.336  0.00  0.00     0.010 A 
BRANCH   8  11
HETATM   11  O   UNK N   1      26.654  19.184   4.287  0.00  0.00    -0.294 OA
BRANCH  11  12
HETATM   12  C   UNK N   1      27.298  19.001   5.470  0.00  0.00     0.147 A 
HETATM   13  C   UNK N   1      27.260  19.981   6.464  0.00  0.00     0.057 A 
HETATM   14  C   UNK N   1      27.788  19.687   7.728  0.00  0.00     0.022 A 
HETATM   15  C   UNK N   1      28.355  18.426   7.979  0.00  0.00     0.047 A 
HETATM   16  C   UNK N   1      28.425  17.502   6.938  0.00  0.00     0.107 A 
HETATM   17  N   UNK N   1      27.903  17.804   5.728  0.00  0.00    -0.346 N 
ATOM     18  HN  UNK N   1      27.965  17.113   4.979  1.00  0.00     0.167 HD
BRANCH  15  19
HETATM   19  C   UNK N   1      28.838  18.047   9.321  0.00  0.00     0.250 C 
HETATM   20  O   UNK N   1      28.255  17.185   9.961  0.00  0.00    -0.268 OA
HETATM   21  N   UNK N   1      29.899  18.674   9.867  0.00  0.00    -0.366 N 
HETATM   22  H   UNK N   1      30.123  18.761  10.822  0.00  0.00     0.159 HD
HETATM   23  H   UNK N   1      30.525  19.095   9.235  0.00  0.00     0.159 HD
ENDBRANCH  15  19
ENDBRANCH  11  12
ENDBRANCH   8  11
ENDBRANCH   4   5
ENDBRANCH   2   4
BRANCH   2  24
HETATM   24  N   UNK N   1      19.261  16.823   3.686  0.00  0.00    -0.410 N 
HETATM   25  H   UNK N   1      18.345  17.246   3.833  0.00  0.00     0.154 HD
BRANCH  24  26
HETATM   26  C   UNK N   1      19.556  15.431   4.024  0.00  0.00     0.148 C 
BRANCH  26  27
HETATM   27  C   UNK N   1      19.127  15.164   5.454  0.00  0.00     0.159 C 
BRANCH  27  28
HETATM   28  C   UNK N   1      20.238  15.558   6.407  0.00  0.00     0.209 C 
BRANCH  28  29
HETATM   29  O   UNK N   1      20.784  14.455   7.018  0.00  0.00    -0.348 OA
BRANCH  29  30
HETATM   30  C   UNK N   1      22.106  14.191   7.044  0.00  0.00     0.082 A 
HETATM   31  C   UNK N   1      22.871  14.537   5.916  0.00  0.00     0.038 A 
HETATM   32  C   UNK N   1      24.267  14.355   5.902  0.00  0.00     0.005 A 
HETATM   33  C   UNK N   1      24.923  13.820   7.020  0.00  0.00     0.030 A 
HETATM   34  C   UNK N   1      24.153  13.455   8.118  0.00  0.00     0.046 A 
HETATM   35  C   UNK N   1      22.780  13.616   8.144  0.00  0.00     0.036 A 
HETATM   36  N   UNK N   1      24.612  12.898   9.263  0.00  0.00    -0.355 N 
HETATM   37  C   UNK N   1      22.368  13.105   9.362  0.00  0.00     0.006 A 
HETATM   38  C   UNK N   1      21.112  12.942   9.941  0.00  0.00     0.014 A 
HETATM   39  C   UNK N   1      23.512  12.688  10.010  0.00  0.00     0.043 A 
HETATM   40  C   UNK N   1      21.038  12.353  11.216  0.00  0.00     0.001 A 
HETATM   41  C   UNK N   1      22.212  11.941  11.882  0.00  0.00     0.002 A 
HETATM   42  C   UNK N   1      23.469  12.105  11.275  0.00  0.00     0.030 A 
HETATM   43  H   UNK N   1      25.545  12.693   9.497  0.00  0.00     0.166 HD
ENDBRANCH  29  30
ENDBRANCH  28  29
ENDBRANCH  27  28
BRANCH  27  44
HETATM   44  O   UNK N   1      17.994  15.922   5.753  0.00  0.00    -0.392 OA
HETATM   45  H   UNK N   1      17.182  16.275   5.359  0.00  0.00     0.210 HD
ENDBRANCH  27  44
ENDBRANCH  26  27
ENDBRANCH  24  26
ENDBRANCH   2  24
TORSDOF 12
ENDMDL
MODEL 2
REMARK VINA RESULT:      -8.3      7.607     12.368
REMARK  12 active torsions:
REMARK  status: ('A' for Active; 'I' for Inactive)
REMARK    1  A    between atoms: C_2  and  C_4 
REMARK    2  A    between atoms: C_2  and  N_22 
REMARK    3  A    between atoms: C_4  and  C_5 
REMARK    4  A    between atoms: C_8  and  O_11 
REMARK    5  A    between atoms: O_11  and  C_12 
REMARK    6  A    between atoms: C_15  and  C_19 
REMARK       I    between atoms: C_19  and  N_21 
REMARK    7  A    between atoms: N_22  and  C_23 
REMARK    8  A    between atoms: C_23  and  C_24 
REMARK    9  A    between atoms: C_24  and  C_25 
REMARK   10  A    between atoms: C_24  and  O_40 
REMARK   11  A    between atoms: C_25  and  O_26 
REMARK   12  A    between atoms: O_26  and  C_27 
ROOT
HETATM    1  C   UNK N   1      34.816  15.473   8.269  0.00  0.00     0.038 C 
HETATM    2  C   UNK N   1      33.923  16.168   9.274  0.00  0.00     0.022 C 
HETATM    3  C   UNK N   1      32.771  15.224   9.572  0.00  0.00     0.038 C 
ENDROOT
BRANCH   2   4
HETATM    4  C   UNK N   1      33.355  17.456   8.619  0.00  0.00     0.068 C 
BRANCH   4   5
HETATM    5  C   UNK N   1      31.928  17.386   8.149  0.00  0.00    -0.056 A 
HETATM    6  C   UNK N   1      30.902  18.015   8.875  0.00  0.00     0.010 A 
HETATM    7  C   UNK N   1      29.562  17.890   8.457  0.00  0.00     0.038 A 
HETATM    8  C   UNK N   1      29.256  17.118   7.327  0.00  0.00     0.077 A 
HETATM    9  C   UNK N   1      30.303  16.531   6.602  0.00  0.00     0.038 A 
HETATM   10  C   UNK N   1      31.609  16.663   7.004  0.00  0.00     0.010 A 
BRANCH   8  11
HETATM   11  O   UNK N   1      27.971  16.928   6.921  0.00  0.00    -0.294 OA
BRANCH  11  12
HETATM   12  C   UNK N   1      27.421  17.765   6.001  0.00  0.00     0.147 A 
HETATM   13  C   UNK N   1      27.196  17.338   4.690  0.00  0.00     0.057 A 
HETATM   14  C   UNK N   1      26.474  18.165   3.822  0.00  0.00     0.022 A 
HETATM   15  C   UNK N   1      25.997  19.410   4.267  0.00  0.00     0.047 A 
HETATM   16  C   UNK N   1      26.298  19.819   5.564  0.00  0.00     0.107 A 
HETATM   17  N   UNK N   1      26.991  19.002   6.389  0.00  0.00    -0.346 N 
ATOM     18  HN  UNK N   1      27.201  19.320   7.335  1.00  0.00     0.167 HD
BRANCH  15  19
HETATM   19  C   UNK N   1      25.156  20.268   3.410  0.00  0.00     0.250 C 
HETATM   20  O   UNK N   1      23.976  20.436   3.682  0.00  0.00    -0.268 OA
HETATM   21  N   UNK N   1      25.669  20.841   2.303  0.00  0.00    -0.366 N 
HETATM   22  H   UNK N   1      25.185  21.148   1.503  0.00  0.00     0.159 HD
HETATM   23  H   UNK N   1      26.645  20.966   2.294  0.00  0.00     0.159 HD
ENDBRANCH  15  19
ENDBRANCH  11  12
ENDBRANCH   8  11
ENDBRANCH   4   5
ENDBRANCH   2   4
BRANCH   2  24
HETATM   24  N   UNK N   1      34.669  16.379  10.530  0.00  0.00    -0.410 N 
HETATM   25  H   UNK N   1      35.096  17.271  10.777  0.00  0.00     0.154 HD
BRANCH  24  26
HETATM   26  C   UNK N   1      34.743  15.196  11.388  0.00  0.00     0.148 C 
BRANCH  26  27
HETATM   27  C   UNK N   1      36.142  15.086  11.961  0.00  0.00     0.159 C 
BRANCH  27  28
HETATM   28  C   UNK N   1      36.087  14.444  13.334  0.00  0.00     0.209 C 
BRANCH  28  29
HETATM   29  O   UNK N   1      34.937  13.707  13.492  0.00  0.00    -0.348 OA
BRANCH  29  30
HETATM   30  C   UNK N   1      34.925  12.376  13.706  0.00  0.00     0.082 A 
HETATM   31  C   UNK N   1      34.806  11.527  12.591  0.00  0.00     0.038 A 
HETATM   32  C   UNK N   1      34.858  10.128  12.735  0.00  0.00     0.005 A 
HETATM   33  C   UNK N   1      35.029   9.551  14.003  0.00  0.00     0.030 A 
HETATM   34  C   UNK N   1      35.116  10.399  15.100  0.00  0.00     0.046 A 
HETATM   35  C   UNK N   1      35.055  11.775  14.978  0.00  0.00     0.036 A 
HETATM   36  N   UNK N   1      35.250  10.018  16.391  0.00  0.00    -0.355 N 
HETATM   37  C   UNK N   1      35.129  12.267  16.269  0.00  0.00     0.006 A 
HETATM   38  C   UNK N   1      35.070  13.556  16.793  0.00  0.00     0.014 A 
HETATM   39  C   UNK N   1      35.254  11.168  17.093  0.00  0.00     0.043 A 
HETATM   40  C   UNK N   1      35.155  13.713  18.188  0.00  0.00     0.001 A 
HETATM   41  C   UNK N   1      35.297  12.587  19.026  0.00  0.00     0.002 A 
HETATM   42  C   UNK N   1      35.345  11.293  18.477  0.00  0.00     0.030 A 
HETATM   43  H   UNK N   1      35.328   9.102  16.741  0.00  0.00     0.166 HD
ENDBRANCH  29  30
ENDBRANCH  28  29
ENDBRANCH  27  28
BRANCH  27  44
HETATM   44  O   UNK N   1      36.931  14.291  11.130  0.00  0.00    -0.392 OA
HETATM   45  H   UNK N   1      37.558  14.340  10.392  0.00  0.00     0.210 HD
ENDBRANCH  27  44
ENDBRANCH  26  27
ENDBRANCH  24  26
ENDBRANCH   2  24
TORSDOF 12
ENDMDL
MODEL 3
REMARK VINA RESULT:      -8.2      3.751      7.569
REMARK  12 active torsions:
REMARK  status: ('A' for Active; 'I' for Inactive)
REMARK    1  A    between atoms: C_2  and  C_4 
REMARK    2  A    between atoms: C_2  and  N_22 
REMARK    3  A    between atoms: C_4  and  C_5 
REMARK    4  A    between atoms: C_8  and  O_11 
REMARK    5  A    between atoms: O_11  and  C_12 
REMARK    6  A    between atoms: C_15  and  C_19 
REMARK       I    between atoms: C_19  and  N_21 
REMARK    7  A    between atoms: N_22  and  C_23 
REMARK    8  A    between atoms: C_23  and  C_24 
REMARK    9  A    between atoms: C_24  and  C_25 
REMARK   10  A    between atoms: C_24  and  O_40 
REMARK   11  A    between atoms: C_25  and  O_26 
REMARK   12  A    between atoms: O_26  and  C_27 
ROOT
HETATM    1  C   UNK N   1      28.547  19.529   5.049  0.00  0.00     0.038 C 
HETATM    2  C   UNK N   1      27.472  19.218   6.068  0.00  0.00     0.022 C 
HETATM    3  C   UNK N   1      27.514  20.323   7.108  0.00  0.00     0.038 C 
ENDROOT
BRANCH   2   4
HETATM    4  C   UNK N   1      27.822  17.871   6.755  0.00  0.00     0.068 C 
BRANCH   4   5
HETATM    5  C   UNK N   1      29.265  17.676   7.134  0.00  0.00    -0.056 A 
HETATM    6  C   UNK N   1      29.749  18.132   8.373  0.00  0.00     0.010 A 
HETATM    7  C   UNK N   1      31.115  17.998   8.690  0.00  0.00     0.038 A 
HETATM    8  C   UNK N   1      31.992  17.429   7.755  0.00  0.00     0.077 A 
HETATM    9  C   UNK N   1      31.476  16.951   6.541  0.00  0.00     0.038 A 
HETATM   10  C   UNK N   1      30.142  17.072   6.239  0.00  0.00     0.010 A 
BRANCH   8  11
HETATM   11  O   UNK N   1      33.328  17.330   8.000  0.00  0.00    -0.294 OA
BRANCH  11  12
HETATM   12  C   UNK N   1      33.769  16.605   9.062  0.00  0.00     0.147 A 
HETATM   13  C   UNK N   1      33.484  15.242   9.165  0.00  0.00     0.057 A 
HETATM   14  C   UNK N   1      34.098  14.496  10.179  0.00  0.00     0.022 A 
HETATM   15  C   UNK N   1      34.977  15.120  11.081  0.00  0.00     0.047 A 
HETATM   16  C   UNK N   1      35.183  16.493  10.976  0.00  0.00     0.107 A 
HETATM   17  N   UNK N   1      34.586  17.194   9.985  0.00  0.00    -0.346 N 
ATOM     18  HN  UNK N   1      34.750  18.199   9.925  1.00  0.00     0.167 HD
BRANCH  15  19
HETATM   19  C   UNK N   1      35.711  14.350  12.104  0.00  0.00     0.250 C 
HETATM   20  O   UNK N   1      35.162  14.048  13.153  0.00  0.00    -0.268 OA
HETATM   21  N   UNK N   1      36.999  14.008  11.908  0.00  0.00    -0.366 N 
HETATM   22  H   UNK N   1      37.679  13.800  12.589  0.00  0.00     0.159 HD
HETATM   23  H   UNK N   1      37.297  13.963  10.971  0.00  0.00     0.159 HD
ENDBRANCH  15  19
ENDBRANCH  11  12
ENDBRANCH   8  11
ENDBRANCH   4   5
ENDBRANCH   2   4
BRANCH   2  24
HETATM   24  N   UNK N   1      26.149  19.264   5.415  0.00  0.00    -0.410 N 
HETATM   25  H   UNK N   1      25.404  18.600   5.625  0.00  0.00     0.154 HD
BRANCH  24  26
HETATM   26  C   UNK N   1      26.001  20.343   4.438  0.00  0.00     0.148 C 
BRANCH  26  27
HETATM   27  C   UNK N   1      25.398  19.782   3.166  0.00  0.00     0.159 C 
BRANCH  27  28
HETATM   28  C   UNK N   1      24.369  18.722   3.508  0.00  0.00     0.209 C 
BRANCH  28  29
HETATM   29  O   UNK N   1      23.257  19.278   4.094  0.00  0.00    -0.348 OA
BRANCH  29  30
HETATM   30  C   UNK N   1      21.996  19.043   3.679  0.00  0.00     0.082 A 
HETATM   31  C   UNK N   1      21.442  19.912   2.723  0.00  0.00     0.038 A 
HETATM   32  C   UNK N   1      20.157  19.685   2.193  0.00  0.00     0.005 A 
HETATM   33  C   UNK N   1      19.402  18.580   2.614  0.00  0.00     0.030 A 
HETATM   34  C   UNK N   1      19.948  17.745   3.581  0.00  0.00     0.046 A 
HETATM   35  C   UNK N   1      21.204  17.960   4.120  0.00  0.00     0.036 A 
HETATM   36  N   UNK N   1      19.353  16.658   4.123  0.00  0.00    -0.355 N 
HETATM   37  C   UNK N   1      21.378  16.965   5.066  0.00  0.00     0.006 A 
HETATM   38  C   UNK N   1      22.406  16.686   5.964  0.00  0.00     0.014 A 
HETATM   39  C   UNK N   1      20.235  16.194   5.029  0.00  0.00     0.043 A 
HETATM   40  C   UNK N   1      22.256  15.585   6.826  0.00  0.00     0.001 A 
HETATM   41  C   UNK N   1      21.091  14.790   6.774  0.00  0.00     0.002 A 
HETATM   42  C   UNK N   1      20.061  15.096   5.867  0.00  0.00     0.030 A 
HETATM   43  H   UNK N   1      18.468  16.287   3.903  0.00  0.00     0.166 HD
ENDBRANCH  29  30
ENDBRANCH  28  29
ENDBRANCH  27  28
BRANCH  27  44
HETATM   44  O   UNK N   1      24.765  20.803   2.456  0.00  0.00    -0.392 OA
HETATM   45  H   UNK N   1      24.920  21.469   1.769  0.00  0.00     0.210 HD
ENDBRANCH  27  44
ENDBRANCH  26  27
ENDBRANCH  24  26
ENDBRANCH   2  24
TORSDOF 12
ENDMDL
MODEL 4
REMARK VINA RESULT:      -8.2      9.552     14.294
REMARK  12 active torsions:
REMARK  status: ('A' for Active; 'I' for Inactive)
REMARK    1  A    between atoms: C_2  and  C_4 
REMARK    2  A    between atoms: C_2  and  N_22 
REMARK    3  A    between atoms: C_4  and  C_5 
REMARK    4  A    between atoms: C_8  and  O_11 
REMARK    5  A    between atoms: O_11  and  C_12 
REMARK    6  A    between atoms: C_15  and  C_19 
REMARK       I    between atoms: C_19  and  N_21 
REMARK    7  A    between atoms: N_22  and  C_23 
REMARK    8  A    between atoms: C_23  and  C_24 
REMARK    9  A    between atoms: C_24  and  C_25 
REMARK   10  A    between atoms: C_24  and  O_40 
REMARK   11  A    between atoms: C_25  and  O_26 
REMARK   12  A    between atoms: O_26  and  C_27 
ROOT
HETATM    1  C   UNK N   1      37.984  12.934   9.620  0.00  0.00     0.038 C 
HETATM    2  C   UNK N   1      37.112  12.496  10.777  0.00  0.00     0.022 C 
HETATM    3  C   UNK N   1      37.528  11.080  11.135  0.00  0.00     0.038 C 
ENDROOT
BRANCH   2   4
HETATM    4  C   UNK N   1      35.635  12.477  10.299  0.00  0.00     0.068 C 
BRANCH   4   5
HETATM    5  C   UNK N   1      35.148  13.719   9.604  0.00  0.00    -0.056 A 
HETATM    6  C   UNK N   1      34.949  14.911  10.321  0.00  0.00     0.010 A 
HETATM    7  C   UNK N   1      34.434  16.050   9.670  0.00  0.00     0.038 A 
HETATM    8  C   UNK N   1      34.101  15.980   8.310  0.00  0.00     0.077 A 
HETATM    9  C   UNK N   1      34.343  14.789   7.610  0.00  0.00     0.038 A 
HETATM   10  C   UNK N   1      34.855  13.683   8.244  0.00  0.00     0.010 A 
BRANCH   8  11
HETATM   11  O   UNK N   1      33.552  17.041   7.656  0.00  0.00    -0.294 OA
BRANCH  11  12
HETATM   12  C   UNK N   1      32.236  17.336   7.829  0.00  0.00     0.147 A 
HETATM   13  C   UNK N   1      31.250  16.651   7.115  0.00  0.00     0.057 A 
HETATM   14  C   UNK N   1      29.906  16.861   7.444  0.00  0.00     0.022 A 
HETATM   15  C   UNK N   1      29.562  17.758   8.470  0.00  0.00     0.047 A 
HETATM   16  C   UNK N   1      30.577  18.464   9.112  0.00  0.00     0.107 A 
HETATM   17  N   UNK N   1      31.870  18.240   8.784  0.00  0.00    -0.346 N 
ATOM     18  HN  UNK N   1      32.599  18.767   9.267  1.00  0.00     0.167 HD
BRANCH  15  19
HETATM   19  C   UNK N   1      28.164  17.937   8.906  0.00  0.00     0.250 C 
HETATM   20  O   UNK N   1      27.616  17.075   9.576  0.00  0.00    -0.268 OA
HETATM   21  N   UNK N   1      27.468  19.031   8.538  0.00  0.00    -0.366 N 
HETATM   22  H   UNK N   1      26.491  19.132   8.472  0.00  0.00     0.159 HD
HETATM   23  H   UNK N   1      28.002  19.825   8.305  0.00  0.00     0.159 HD
ENDBRANCH  15  19
ENDBRANCH  11  12
ENDBRANCH   8  11
ENDBRANCH   4   5
ENDBRANCH   2   4
BRANCH   2  24
HETATM   24  N   UNK N   1      37.382  13.355  11.946  0.00  0.00    -0.410 N 
HETATM   25  H   UNK N   1      37.917  14.221  11.887  0.00  0.00     0.154 HD
BRANCH  24  26
HETATM   26  C   UNK N   1      36.816  12.854  13.199  0.00  0.00     0.148 C 
BRANCH  26  27
HETATM   27  C   UNK N   1      36.043  13.969  13.876  0.00  0.00     0.159 C 
BRANCH  27  28
HETATM   28  C   UNK N   1      36.208  13.871  15.380  0.00  0.00     0.209 C 
BRANCH  28  29
HETATM   29  O   UNK N   1      35.167  13.177  15.950  0.00  0.00    -0.348 OA
BRANCH  29  30
HETATM   30  C   UNK N   1      35.246  12.562  17.148  0.00  0.00     0.082 A 
HETATM   31  C   UNK N   1      35.192  13.359  18.305  0.00  0.00     0.038 A 
HETATM   32  C   UNK N   1      35.198  12.779  19.587  0.00  0.00     0.005 A 
HETATM   33  C   UNK N   1      35.260  11.385  19.734  0.00  0.00     0.030 A 
HETATM   34  C   UNK N   1      35.342  10.609  18.585  0.00  0.00     0.046 A 
HETATM   35  C   UNK N   1      35.349  11.163  17.318  0.00  0.00     0.036 A 
HETATM   36  N   UNK N   1      35.439   9.260  18.539  0.00  0.00    -0.355 N 
HETATM   37  C   UNK N   1      35.486  10.098  16.445  0.00  0.00     0.006 A 
HETATM   38  C   UNK N   1      35.604  10.021  15.060  0.00  0.00     0.014 A 
HETATM   39  C   UNK N   1      35.529   8.964  17.229  0.00  0.00     0.043 A 
HETATM   40  C   UNK N   1      35.755   8.752  14.473  0.00  0.00     0.001 A 
HETATM   41  C   UNK N   1      35.784   7.593  15.278  0.00  0.00     0.002 A 
HETATM   42  C   UNK N   1      35.673   7.693  16.676  0.00  0.00     0.030 A 
HETATM   43  H   UNK N   1      35.444   8.635  19.298  0.00  0.00     0.166 HD
ENDBRANCH  29  30
ENDBRANCH  28  29
ENDBRANCH  27  28
BRANCH  27  44
HETATM   44  O   UNK N   1      36.533  15.205  13.454  0.00  0.00    -0.392 OA
HETATM   45  H   UNK N   1      36.362  15.924  12.827  0.00  0.00     0.210 HD
ENDBRANCH  27  44
ENDBRANCH  26  27
ENDBRANCH  24  26
ENDBRANCH   2  24
TORSDOF 12
ENDMDL
MODEL 5
REMARK VINA RESULT:      -8.1      6.509     10.715
REMARK  12 active torsions:
REMARK  status: ('A' for Active; 'I' for Inactive)
REMARK    1  A    between atoms: C_2  and  C_4 
REMARK    2  A    between atoms: C_2  and  N_22 
REMARK    3  A    between atoms: C_4  and  C_5 
REMARK    4  A    between atoms: C_8  and  O_11 
REMARK    5  A    between atoms: O_11  and  C_12 
REMARK    6  A    between atoms: C_15  and  C_19 
REMARK       I    between atoms: C_19  and  N_21 
REMARK    7  A    between atoms: N_22  and  C_23 
REMARK    8  A    between atoms: C_23  and  C_24 
REMARK    9  A    between atoms: C_24  and  C_25 
REMARK   10  A    between atoms: C_24  and  O_40 
REMARK   11  A    between atoms: C_25  and  O_26 
REMARK   12  A    between atoms: O_26  and  C_27 
ROOT
HETATM    1  C   UNK N   1      32.265  14.559   6.044  0.00  0.00     0.038 C 
HETATM    2  C   UNK N   1      32.781  15.639   5.118  0.00  0.00     0.022 C 
HETATM    3  C   UNK N   1      33.600  14.948   4.043  0.00  0.00     0.038 C 
ENDROOT
BRANCH   2   4
HETATM    4  C   UNK N   1      33.714  16.578   5.931  0.00  0.00     0.068 C 
BRANCH   4   5
HETATM    5  C   UNK N   1      34.461  15.943   7.072  0.00  0.00    -0.056 A 
HETATM    6  C   UNK N   1      34.324  16.435   8.381  0.00  0.00     0.010 A 
HETATM    7  C   UNK N   1      35.076  15.871   9.430  0.00  0.00     0.038 A 
HETATM    8  C   UNK N   1      35.977  14.831   9.157  0.00  0.00     0.077 A 
HETATM    9  C   UNK N   1      36.068  14.336   7.848  0.00  0.00     0.038 A 
HETATM   10  C   UNK N   1      35.326  14.881   6.829  0.00  0.00     0.010 A 
BRANCH   8  11
HETATM   11  O   UNK N   1      36.761  14.294  10.133  0.00  0.00    -0.294 OA
BRANCH  11  12
HETATM   12  C   UNK N   1      36.231  14.026  11.356  0.00  0.00     0.147 A 
HETATM   13  C   UNK N   1      35.328  12.976  11.530  0.00  0.00     0.057 A 
HETATM   14  C   UNK N   1      34.939  12.623  12.828  0.00  0.00     0.022 A 
HETATM   15  C   UNK N   1      35.446  13.329  13.932  0.00  0.00     0.047 A 
HETATM   16  C   UNK N   1      36.297  14.409  13.706  0.00  0.00     0.107 A 
HETATM   17  N   UNK N   1      36.666  14.728  12.444  0.00  0.00    -0.346 N 
ATOM     18  HN  UNK N   1      37.290  15.522  12.300  1.00  0.00     0.167 HD
BRANCH  15  19
HETATM   19  C   UNK N   1      35.131  12.930  15.318  0.00  0.00     0.250 C 
HETATM   20  O   UNK N   1      34.001  13.085  15.757  0.00  0.00    -0.268 OA
HETATM   21  N   UNK N   1      36.091  12.430  16.120  0.00  0.00    -0.366 N 
HETATM   22  H   UNK N   1      36.115  12.428  17.105  0.00  0.00     0.159 HD
HETATM   23  H   UNK N   1      36.861  12.017  15.668  0.00  0.00     0.159 HD
ENDBRANCH  15  19
ENDBRANCH  11  12
ENDBRANCH   8  11
ENDBRANCH   4   5
ENDBRANCH   2   4
BRANCH   2  24
HETATM   24  N   UNK N   1      31.641  16.306   4.459  0.00  0.00    -0.410 N 
HETATM   25  H   UNK N   1      31.610  17.311   4.288  0.00  0.00     0.154 HD
BRANCH  24  26
HETATM   26  C   UNK N   1      30.560  15.399   4.073  0.00  0.00     0.148 C 
BRANCH  26  27
HETATM   27  C   UNK N   1      29.765  16.027   2.944  0.00  0.00     0.159 C 
BRANCH  27  28
HETATM   28  C   UNK N   1      28.605  16.821   3.511  0.00  0.00     0.209 C 
BRANCH  28  29
HETATM   29  O   UNK N   1      29.031  18.021   4.030  0.00  0.00    -0.348 OA
BRANCH  29  30
HETATM   30  C   UNK N   1      28.236  18.857   4.730  0.00  0.00     0.082 A 
HETATM   31  C   UNK N   1      27.391  19.722   4.013  0.00  0.00     0.038 A 
HETATM   32  C   UNK N   1      26.486  20.570   4.678  0.00  0.00     0.005 A 
HETATM   33  C   UNK N   1      26.412  20.567   6.080  0.00  0.00     0.030 A 
HETATM   34  C   UNK N   1      27.272  19.730   6.778  0.00  0.00     0.046 A 
HETATM   35  C   UNK N   1      28.176  18.899   6.141  0.00  0.00     0.036 A 
HETATM   36  N   UNK N   1      27.360  19.621   8.124  0.00  0.00    -0.355 N 
HETATM   37  C   UNK N   1      28.876  18.264   7.151  0.00  0.00     0.006 A 
HETATM   38  C   UNK N   1      29.935  17.360   7.141  0.00  0.00     0.014 A 
HETATM   39  C   UNK N   1      28.344  18.727   8.336  0.00  0.00     0.043 A 
HETATM   40  C   UNK N   1      30.443  16.915   8.375  0.00  0.00     0.001 A 
HETATM   41  C   UNK N   1      29.885  17.380   9.586  0.00  0.00     0.002 A 
HETATM   42  C   UNK N   1      28.823  18.301   9.573  0.00  0.00     0.030 A 
HETATM   43  H   UNK N   1      26.822  20.093   8.799  0.00  0.00     0.166 HD
ENDBRANCH  29  30
ENDBRANCH  28  29
ENDBRANCH  27  28
BRANCH  27  44
HETATM   44  O   UNK N   1      30.583  16.891   2.217  0.00  0.00    -0.392 OA
HETATM   45  H   UNK N   1      31.004  17.764   2.257  0.00  0.00     0.210 HD
ENDBRANCH  27  44
ENDBRANCH  26  27
ENDBRANCH  24  26
ENDBRANCH   2  24
TORSDOF 12
ENDMDL
MODEL 6
REMARK VINA RESULT:      -8.1      4.773      9.047
REMARK  12 active torsions:
REMARK  status: ('A' for Active; 'I' for Inactive)
REMARK    1  A    between atoms: C_2  and  C_4 
REMARK    2  A    between atoms: C_2  and  N_22 
REMARK    3  A    between atoms: C_4  and  C_5 
REMARK    4  A    between atoms: C_8  and  O_11 
REMARK    5  A    between atoms: O_11  and  C_12 
REMARK    6  A    between atoms: C_15  and  C_19 
REMARK       I    between atoms: C_19  and  N_21 
REMARK    7  A    between atoms: N_22  and  C_23 
REMARK    8  A    between atoms: C_23  and  C_24 
REMARK    9  A    between atoms: C_24  and  C_25 
REMARK   10  A    between atoms: C_24  and  O_40 
REMARK   11  A    between atoms: C_25  and  O_26 
REMARK   12  A    between atoms: O_26  and  C_27 
ROOT
HETATM    1  C   UNK N   1      29.537  12.148   1.102  0.00  0.00     0.038 C 
HETATM    2  C   UNK N   1      29.065  13.090   2.189  0.00  0.00     0.022 C 
HETATM    3  C   UNK N   1      27.889  12.419   2.877  0.00  0.00     0.038 C 
ENDROOT
BRANCH   2   4
HETATM    4  C   UNK N   1      28.571  14.402   1.522  0.00  0.00     0.068 C 
BRANCH   4   5
HETATM    5  C   UNK N   1      27.894  15.392   2.430  0.00  0.00    -0.056 A 
HETATM    6  C   UNK N   1      26.503  15.348   2.628  0.00  0.00     0.010 A 
HETATM    7  C   UNK N   1      25.873  16.319   3.432  0.00  0.00     0.038 A 
HETATM    8  C   UNK N   1      26.638  17.340   4.014  0.00  0.00     0.077 A 
HETATM    9  C   UNK N   1      28.028  17.339   3.828  0.00  0.00     0.038 A 
HETATM   10  C   UNK N   1      28.641  16.386   3.053  0.00  0.00     0.010 A 
BRANCH   8  11
HETATM   11  O   UNK N   1      26.062  18.327   4.755  0.00  0.00    -0.294 OA
BRANCH  11  12
HETATM   12  C   UNK N   1      24.991  19.005   4.263  0.00  0.00     0.147 A 
HETATM   13  C   UNK N   1      25.163  20.056   3.361  0.00  0.00     0.057 A 
HETATM   14  C   UNK N   1      24.035  20.615   2.747  0.00  0.00     0.022 A 
HETATM   15  C   UNK N   1      22.753  20.126   3.049  0.00  0.00     0.047 A 
HETATM   16  C   UNK N   1      22.627  19.118   4.002  0.00  0.00     0.107 A 
HETATM   17  N   UNK N   1      23.729  18.587   4.577  0.00  0.00    -0.346 N 
ATOM     18  HN  UNK N   1      23.615  17.849   5.272  1.00  0.00     0.167 HD
BRANCH  15  19
HETATM   19  C   UNK N   1      21.550  20.627   2.357  0.00  0.00     0.250 C 
HETATM   20  O   UNK N   1      21.549  20.747   1.140  0.00  0.00    -0.268 OA
HETATM   21  N   UNK N   1      20.460  20.993   3.058  0.00  0.00    -0.366 N 
HETATM   22  H   UNK N   1      19.748  21.618   2.787  0.00  0.00     0.159 HD
HETATM   23  H   UNK N   1      20.364  20.588   3.950  0.00  0.00     0.159 HD
ENDBRANCH  15  19
ENDBRANCH  11  12
ENDBRANCH   8  11
ENDBRANCH   4   5
ENDBRANCH   2   4
BRANCH   2  24
HETATM   24  N   UNK N   1      30.137  13.259   3.189  0.00  0.00    -0.410 N 
HETATM   25  H   UNK N   1      29.963  13.250   4.194  0.00  0.00     0.154 HD
BRANCH  24  26
HETATM   26  C   UNK N   1      31.469  13.444   2.614  0.00  0.00     0.148 C 
BRANCH  26  27
HETATM   27  C   UNK N   1      32.065  14.733   3.146  0.00  0.00     0.159 C 
BRANCH  27  28
HETATM   28  C   UNK N   1      31.655  14.930   4.593  0.00  0.00     0.209 C 
BRANCH  28  29
HETATM   29  O   UNK N   1      31.627  16.264   4.924  0.00  0.00    -0.348 OA
BRANCH  29  30
HETATM   30  C   UNK N   1      32.252  16.781   6.001  0.00  0.00     0.082 A 
HETATM   31  C   UNK N   1      33.655  16.858   5.978  0.00  0.00     0.038 A 
HETATM   32  C   UNK N   1      34.368  17.449   7.038  0.00  0.00     0.005 A 
HETATM   33  C   UNK N   1      33.685  17.975   8.145  0.00  0.00     0.030 A 
HETATM   34  C   UNK N   1      32.300  17.867   8.171  0.00  0.00     0.046 A 
HETATM   35  C   UNK N   1      31.585  17.278   7.143  0.00  0.00     0.036 A 
HETATM   36  N   UNK N   1      31.487  18.288   9.167  0.00  0.00    -0.355 N 
HETATM   37  C   UNK N   1      30.261  17.315   7.542  0.00  0.00     0.006 A 
HETATM   38  C   UNK N   1      29.087  16.838   6.964  0.00  0.00     0.014 A 
HETATM   39  C   UNK N   1      30.247  17.942   8.771  0.00  0.00     0.043 A 
HETATM   40  C   UNK N   1      27.879  17.023   7.659  0.00  0.00     0.001 A 
HETATM   41  C   UNK N   1      27.868  17.678   8.909  0.00  0.00     0.002 A 
HETATM   42  C   UNK N   1      29.065  18.144   9.480  0.00  0.00     0.030 A 
HETATM   43  H   UNK N   1      31.745  18.746   9.998  0.00  0.00     0.166 HD
ENDBRANCH  29  30
ENDBRANCH  28  29
ENDBRANCH  27  28
BRANCH  27  44
HETATM   44  O   UNK N   1      33.457  14.668   3.084  0.00  0.00    -0.392 OA
HETATM   45  H   UNK N   1      34.241  15.201   2.884  0.00  0.00     0.210 HD
ENDBRANCH  27  44
ENDBRANCH  26  27
ENDBRANCH  24  26
ENDBRANCH   2  24
TORSDOF 12
ENDMDL
MODEL 7
REMARK VINA RESULT:      -8.1      6.919     11.085
REMARK  12 active torsions:
REMARK  status: ('A' for Active; 'I' for Inactive)
REMARK    1  A    between atoms: C_2  and  C_4 
REMARK    2  A    between atoms: C_2  and  N_22 
REMARK    3  A    between atoms: C_4  and  C_5 
REMARK    4  A    between atoms: C_8  and  O_11 
REMARK    5  A    between atoms: O_11  and  C_12 
REMARK    6  A    between atoms: C_15  and  C_19 
REMARK       I    between atoms: C_19  and  N_21 
REMARK    7  A    between atoms: N_22  and  C_23 
REMARK    8  A    between atoms: C_23  and  C_24 
REMARK    9  A    between atoms: C_24  and  C_25 
REMARK   10  A    between atoms: C_24  and  O_40 
REMARK   11  A    between atoms: C_25  and  O_26 
REMARK   12  A    between atoms: O_26  and  C_27 
ROOT
HETATM    1  C   UNK N   1      33.305  11.082   6.412  0.00  0.00     0.038 C 
HETATM    2  C   UNK N   1      32.894  12.068   5.340  0.00  0.00     0.022 C 
HETATM    3  C   UNK N   1      33.271  11.455   4.004  0.00  0.00     0.038 C 
ENDROOT
BRANCH   2   4
HETATM    4  C   UNK N   1      33.708  13.376   5.537  0.00  0.00     0.068 C 
BRANCH   4   5
HETATM    5  C   UNK N   1      33.822  13.878   6.950  0.00  0.00    -0.056 A 
HETATM    6  C   UNK N   1      35.080  14.157   7.513  0.00  0.00     0.010 A 
HETATM    7  C   UNK N   1      35.177  14.569   8.857  0.00  0.00     0.038 A 
HETATM    8  C   UNK N   1      34.016  14.677   9.635  0.00  0.00     0.077 A 
HETATM    9  C   UNK N   1      32.771  14.426   9.038  0.00  0.00     0.038 A 
HETATM   10  C   UNK N   1      32.678  14.035   7.725  0.00  0.00     0.010 A 
BRANCH   8  11
HETATM   11  O   UNK N   1      34.070  15.020  10.952  0.00  0.00    -0.294 OA
BRANCH  11  12
HETATM   12  C   UNK N   1      34.822  14.284  11.813  0.00  0.00     0.147 A 
HETATM   13  C   UNK N   1      35.861  14.873  12.537  0.00  0.00     0.057 A 
HETATM   14  C   UNK N   1      36.498  14.127  13.537  0.00  0.00     0.022 A 
HETATM   15  C   UNK N   1      36.098  12.804  13.793  0.00  0.00     0.047 A 
HETATM   16  C   UNK N   1      35.099  12.240  13.004  0.00  0.00     0.107 A 
HETATM   17  N   UNK N   1      34.491  12.980  12.048  0.00  0.00    -0.346 N 
ATOM     18  HN  UNK N   1      33.761  12.548  11.481  1.00  0.00     0.167 HD
BRANCH  15  19
HETATM   19  C   UNK N   1      36.683  12.019  14.897  0.00  0.00     0.250 C 
HETATM   20  O   UNK N   1      37.718  11.392  14.721  0.00  0.00    -0.268 OA
HETATM   21  N   UNK N   1      36.065  11.955  16.093  0.00  0.00    -0.366 N 
HETATM   22  H   UNK N   1      36.148  11.253  16.779  0.00  0.00     0.159 HD
HETATM   23  H   UNK N   1      35.457  12.699  16.305  0.00  0.00     0.159 HD
ENDBRANCH  15  19
ENDBRANCH  11  12
ENDBRANCH   8  11
ENDBRANCH   4   5
ENDBRANCH   2   4
BRANCH   2  24
HETATM   24  N   UNK N   1      31.427  12.233   5.364  0.00  0.00    -0.410 N 
HETATM   25  H   UNK N   1      30.835  11.821   6.083  0.00  0.00     0.154 HD
BRANCH  24  26
HETATM   26  C   UNK N   1      30.899  13.039   4.263  0.00  0.00     0.148 C 
BRANCH  26  27
HETATM   27  C   UNK N   1      30.350  14.339   4.818  0.00  0.00     0.159 C 
BRANCH  27  28
HETATM   28  C   UNK N   1      30.535  15.450   3.803  0.00  0.00     0.209 C 
BRANCH  28  29
HETATM   29  O   UNK N   1      30.645  16.674   4.421  0.00  0.00    -0.348 OA
BRANCH  29  30
HETATM   30  C   UNK N   1      31.572  16.959   5.357  0.00  0.00     0.082 A 
HETATM   31  C   UNK N   1      32.925  16.949   4.972  0.00  0.00     0.038 A 
HETATM   32  C   UNK N   1      33.940  17.305   5.880  0.00  0.00     0.005 A 
HETATM   33  C   UNK N   1      33.619  17.677   7.194  0.00  0.00     0.030 A 
HETATM   34  C   UNK N   1      32.281  17.655   7.571  0.00  0.00     0.046 A 
HETATM   35  C   UNK N   1      31.272  17.296   6.696  0.00  0.00     0.036 A 
HETATM   36  N   UNK N   1      31.795  17.951   8.798  0.00  0.00    -0.355 N 
HETATM   37  C   UNK N   1      30.103  17.349   7.433  0.00  0.00     0.006 A 
HETATM   38  C   UNK N   1      28.778  17.053   7.124  0.00  0.00     0.014 A 
HETATM   39  C   UNK N   1      30.466  17.757   8.700  0.00  0.00     0.043 A 
HETATM   40  C   UNK N   1      27.810  17.194   8.135  0.00  0.00     0.001 A 
HETATM   41  C   UNK N   1      28.184  17.626   9.426  0.00  0.00     0.002 A 
HETATM   42  C   UNK N   1      29.529  17.910   9.719  0.00  0.00     0.030 A 
HETATM   43  H   UNK N   1      32.302  18.243   9.588  0.00  0.00     0.166 HD
ENDBRANCH  29  30
ENDBRANCH  28  29
ENDBRANCH  27  28
BRANCH  27  44
HETATM   44  O   UNK N   1      28.987  14.200   5.081  0.00  0.00    -0.392 OA
HETATM   45  H   UNK N   1      28.131  14.075   4.645  0.00  0.00     0.210 HD
ENDBRANCH  27  44
ENDBRANCH  26  27
ENDBRANCH  24  26
ENDBRANCH   2  24
TORSDOF 12
ENDMDL
MODEL 8
REMARK VINA RESULT:      -8.0      9.537     15.128
REMARK  12 active torsions:
REMARK  status: ('A' for Active; 'I' for Inactive)
REMARK    1  A    between atoms: C_2  and  C_4 
REMARK    2  A    between atoms: C_2  and  N_22 
REMARK    3  A    between atoms: C_4  and  C_5 
REMARK    4  A    between atoms: C_8  and  O_11 
REMARK    5  A    between atoms: O_11  and  C_12 
REMARK    6  A    between atoms: C_15  and  C_19 
REMARK       I    between atoms: C_19  and  N_21 
REMARK    7  A    between atoms: N_22  and  C_23 
REMARK    8  A    between atoms: C_23  and  C_24 
REMARK    9  A    between atoms: C_24  and  C_25 
REMARK   10  A    between atoms: C_24  and  O_40 
REMARK   11  A    between atoms: C_25  and  O_26 
REMARK   12  A    between atoms: O_26  and  C_27 
ROOT
HETATM    1  C   UNK N   1      34.984  11.865  12.032  0.00  0.00     0.038 C 
HETATM    2  C   UNK N   1      35.580  13.244  12.215  0.00  0.00     0.022 C 
HETATM    3  C   UNK N   1      36.996  13.191  11.670  0.00  0.00     0.038 C 
ENDROOT
BRANCH   2   4
HETATM    4  C   UNK N   1      35.642  13.555  13.735  0.00  0.00     0.068 C 
BRANCH   4   5
HETATM    5  C   UNK N   1      35.516  12.374  14.658  0.00  0.00    -0.056 A 
HETATM    6  C   UNK N   1      34.255  11.827  14.955  0.00  0.00     0.010 A 
HETATM    7  C   UNK N   1      34.146  10.760  15.869  0.00  0.00     0.038 A 
HETATM    8  C   UNK N   1      35.298  10.263  16.497  0.00  0.00     0.077 A 
HETATM    9  C   UNK N   1      36.546  10.805  16.156  0.00  0.00     0.038 A 
HETATM   10  C   UNK N   1      36.651  11.837  15.256  0.00  0.00     0.010 A 
BRANCH   8  11
HETATM   11  O   UNK N   1      35.230   9.269  17.425  0.00  0.00    -0.294 OA
BRANCH  11  12
HETATM   12  C   UNK N   1      34.573   9.480  18.597  0.00  0.00     0.147 A 
HETATM   13  C   UNK N   1      33.560   8.614  19.014  0.00  0.00     0.057 A 
HETATM   14  C   UNK N   1      33.027   8.763  20.300  0.00  0.00     0.022 A 
HETATM   15  C   UNK N   1      33.502   9.779  21.147  0.00  0.00     0.047 A 
HETATM   16  C   UNK N   1      34.470  10.657  20.664  0.00  0.00     0.107 A 
HETATM   17  N   UNK N   1      34.977  10.491  19.421  0.00  0.00    -0.346 N 
ATOM     18  HN  UNK N   1      35.685  11.145  19.086  1.00  0.00     0.167 HD
BRANCH  15  19
HETATM   19  C   UNK N   1      33.030   9.911  22.539  0.00  0.00     0.250 C 
HETATM   20  O   UNK N   1      32.719   8.916  23.176  0.00  0.00    -0.268 OA
HETATM   21  N   UNK N   1      32.901  11.127  23.105  0.00  0.00    -0.366 N 
HETATM   22  H   UNK N   1      32.322  11.384  23.859  0.00  0.00     0.159 HD
HETATM   23  H   UNK N   1      33.451  11.845  22.716  0.00  0.00     0.159 HD
ENDBRANCH  15  19
ENDBRANCH  11  12
ENDBRANCH   8  11
ENDBRANCH   4   5
ENDBRANCH   2   4
BRANCH   2  24
HETATM   24  N   UNK N   1      34.821  14.217  11.405  0.00  0.00    -0.410 N 
HETATM   25  H   UNK N   1      34.021  13.955  10.830  0.00  0.00     0.154 HD
BRANCH  24  26
HETATM   26  C   UNK N   1      35.319  15.590  11.499  0.00  0.00     0.148 C 
BRANCH  26  27
HETATM   27  C   UNK N   1      35.322  16.212  10.116  0.00  0.00     0.159 C 
BRANCH  27  28
HETATM   28  C   UNK N   1      33.992  15.954   9.433  0.00  0.00     0.209 C 
BRANCH  28  29
HETATM   29  O   UNK N   1      33.475  17.111   8.900  0.00  0.00    -0.348 OA
BRANCH  29  30
HETATM   30  C   UNK N   1      33.031  17.216   7.631  0.00  0.00     0.082 A 
HETATM   31  C   UNK N   1      33.985  17.276   6.600  0.00  0.00     0.038 A 
HETATM   32  C   UNK N   1      33.593  17.315   5.248  0.00  0.00     0.005 A 
HETATM   33  C   UNK N   1      32.233  17.296   4.904  0.00  0.00     0.030 A 
HETATM   34  C   UNK N   1      31.299  17.266   5.933  0.00  0.00     0.046 A 
HETATM   35  C   UNK N   1      31.667  17.239   7.265  0.00  0.00     0.036 A 
HETATM   36  N   UNK N   1      29.954  17.275   5.787  0.00  0.00    -0.355 N 
HETATM   37  C   UNK N   1      30.482  17.260   7.980  0.00  0.00     0.006 A 
HETATM   38  C   UNK N   1      30.203  17.298   9.344  0.00  0.00     0.014 A 
HETATM   39  C   UNK N   1      29.469  17.274   7.044  0.00  0.00     0.043 A 
HETATM   40  C   UNK N   1      28.856  17.336   9.747  0.00  0.00     0.001 A 
HETATM   41  C   UNK N   1      27.823  17.335   8.786  0.00  0.00     0.002 A 
HETATM   42  C   UNK N   1      28.127  17.307   7.413  0.00  0.00     0.030 A 
HETATM   43  H   UNK N   1      29.442  17.281   4.947  0.00  0.00     0.166 HD
ENDBRANCH  29  30
ENDBRANCH  28  29
ENDBRANCH  27  28
BRANCH  27  44
HETATM   44  O   UNK N   1      35.508  17.590  10.221  0.00  0.00    -0.392 OA
HETATM   45  H   UNK N   1      35.448  18.413   9.712  0.00  0.00     0.210 HD
ENDBRANCH  27  44
ENDBRANCH  26  27
ENDBRANCH  24  26
ENDBRANCH   2  24
TORSDOF 12
ENDMDL
MODEL 9
REMARK VINA RESULT:      -7.8      4.155      7.037
REMARK  12 active torsions:
REMARK  status: ('A' for Active; 'I' for Inactive)
REMARK    1  A    between atoms: C_2  and  C_4 
REMARK    2  A    between atoms: C_2  and  N_22 
REMARK    3  A    between atoms: C_4  and  C_5 
REMARK    4  A    between atoms: C_8  and  O_11 
REMARK    5  A    between atoms: O_11  and  C_12 
REMARK    6  A    between atoms: C_15  and  C_19 
REMARK       I    between atoms: C_19  and  N_21 
REMARK    7  A    between atoms: N_22  and  C_23 
REMARK    8  A    between atoms: C_23  and  C_24 
REMARK    9  A    between atoms: C_24  and  C_25 
REMARK   10  A    between atoms: C_24  and  O_40 
REMARK   11  A    between atoms: C_25  and  O_26 
REMARK   12  A    between atoms: O_26  and  C_27 
ROOT
HETATM    1  C   UNK N   1      29.891  14.542   4.360  0.00  0.00     0.038 C 
HETATM    2  C   UNK N   1      28.719  15.484   4.527  0.00  0.00     0.022 C 
HETATM    3  C   UNK N   1      27.931  15.446   3.229  0.00  0.00     0.038 C 
ENDROOT
BRANCH   2   4
HETATM    4  C   UNK N   1      29.269  16.921   4.736  0.00  0.00     0.068 C 
BRANCH   4   5
HETATM    5  C   UNK N   1      30.456  17.048   5.650  0.00  0.00    -0.056 A 
HETATM    6  C   UNK N   1      30.282  17.179   7.039  0.00  0.00     0.010 A 
HETATM    7  C   UNK N   1      31.400  17.359   7.877  0.00  0.00     0.038 A 
HETATM    8  C   UNK N   1      32.683  17.430   7.317  0.00  0.00     0.077 A 
HETATM    9  C   UNK N   1      32.831  17.262   5.932  0.00  0.00     0.038 A 
HETATM   10  C   UNK N   1      31.741  17.076   5.118  0.00  0.00     0.010 A 
BRANCH   8  11
HETATM   11  O   UNK N   1      33.784  17.656   8.085  0.00  0.00    -0.294 OA
BRANCH  11  12
HETATM   12  C   UNK N   1      34.055  16.839   9.137  0.00  0.00     0.147 A 
HETATM   13  C   UNK N   1      33.612  15.515   9.146  0.00  0.00     0.057 A 
HETATM   14  C   UNK N   1      34.054  14.658  10.162  0.00  0.00     0.022 A 
HETATM   15  C   UNK N   1      34.923  15.135  11.158  0.00  0.00     0.047 A 
HETATM   16  C   UNK N   1      35.290  16.478  11.142  0.00  0.00     0.107 A 
HETATM   17  N   UNK N   1      34.857  17.287  10.148  0.00  0.00    -0.346 N 
ATOM     18  HN  UNK N   1      35.137  18.268  10.154  1.00  0.00     0.167 HD
BRANCH  15  19
HETATM   19  C   UNK N   1      35.482  14.241  12.190  0.00  0.00     0.250 C 
HETATM   20  O   UNK N   1      34.736  13.573  12.891  0.00  0.00    -0.268 OA
HETATM   21  N   UNK N   1      36.812  14.181  12.396  0.00  0.00    -0.366 N 
HETATM   22  H   UNK N   1      37.286  13.904  13.214  0.00  0.00     0.159 HD
HETATM   23  H   UNK N   1      37.379  14.448  11.637  0.00  0.00     0.159 HD
ENDBRANCH  15  19
ENDBRANCH  11  12
ENDBRANCH   8  11
ENDBRANCH   4   5
ENDBRANCH   2   4
BRANCH   2  24
HETATM   24  N   UNK N   1      27.839  14.986   5.602  0.00  0.00    -0.410 N 
HETATM   25  H   UNK N   1      28.183  14.445   6.395  0.00  0.00     0.154 HD
BRANCH  24  26
HETATM   26  C   UNK N   1      26.428  15.336   5.431  0.00  0.00     0.148 C 
BRANCH  26  27
HETATM   27  C   UNK N   1      25.793  15.520   6.796  0.00  0.00     0.159 C 
BRANCH  27  28
HETATM   28  C   UNK N   1      25.516  14.166   7.420  0.00  0.00     0.209 C 
BRANCH  28  29
HETATM   29  O   UNK N   1      24.206  13.792   7.235  0.00  0.00    -0.348 OA
BRANCH  29  30
HETATM   30  C   UNK N   1      23.437  13.257   8.205  0.00  0.00     0.082 A 
HETATM   31  C   UNK N   1      23.876  12.072   8.819  0.00  0.00     0.038 A 
HETATM   32  C   UNK N   1      23.160  11.497   9.886  0.00  0.00     0.005 A 
HETATM   33  C   UNK N   1      21.984  12.102  10.357  0.00  0.00     0.030 A 
HETATM   34  C   UNK N   1      21.544  13.257   9.724  0.00  0.00     0.046 A 
HETATM   35  C   UNK N   1      22.229  13.828   8.667  0.00  0.00     0.036 A 
HETATM   36  N   UNK N   1      20.422  13.951  10.023  0.00  0.00    -0.355 N 
HETATM   37  C   UNK N   1      21.473  14.919   8.278  0.00  0.00     0.006 A 
HETATM   38  C   UNK N   1      21.615  15.848   7.250  0.00  0.00     0.014 A 
HETATM   39  C   UNK N   1      20.390  14.960   9.132  0.00  0.00     0.043 A 
HETATM   40  C   UNK N   1      20.632  16.844   7.112  0.00  0.00     0.001 A 
HETATM   41  C   UNK N   1      19.534  16.891   7.997  0.00  0.00     0.002 A 
HETATM   42  C   UNK N   1      19.404  15.937   9.022  0.00  0.00     0.030 A 
HETATM   43  H   UNK N   1      19.773  13.760  10.737  0.00  0.00     0.166 HD
ENDBRANCH  29  30
ENDBRANCH  28  29
ENDBRANCH  27  28
BRANCH  27  44
HETATM   44  O   UNK N   1      26.663  16.224   7.628  0.00  0.00    -0.392 OA
HETATM   45  H   UNK N   1      27.025  16.232   8.527  0.00  0.00     0.210 HD
ENDBRANCH  27  44
ENDBRANCH  26  27
ENDBRANCH  24  26
ENDBRANCH   2  24
TORSDOF 12
ENDMDL
