REMARK  6 active torsions:
REMARK  status: ('A' for Active; 'I' for Inactive)
REMARK    1  A    between atoms: C_2  and  N_3 
REMARK    2  A    between atoms: C_9  and  N_30 
REMARK    3  A    between atoms: C_10  and  C_14 
REMARK    4  A    between atoms: C_19  and  C_21 
REMARK    5  A    between atoms: C_21  and  C_22 
REMARK    6  A    between atoms: N_30  and  C_31 
ROOT
HETATM    1  N   UNK N   1      -1.820  -2.783   0.056  0.00  0.00    -0.277 N 
HETATM    2  C   UNK N   1      -0.610  -2.196   0.097  0.00  0.00     0.136 A 
HETATM    3  C   UNK N   1      -0.709  -0.922  -0.355  0.00  0.00     0.054 A 
HETATM    4  C   UNK N   1      -2.040  -0.733  -0.677  0.00  0.00     0.125 A 
HETATM    5  N   UNK N   1      -2.691  -1.897  -0.417  0.00  0.00    -0.307 N 
ATOM      6  HN  UNK N   1      -3.687  -2.064  -0.562  1.00  0.00     0.186 HD
HETATM    7  C   UNK N   1       0.396  -0.082  -0.417  0.00  0.00     0.060 A 
HETATM    8  C   UNK N   1       1.655  -0.635  -0.028  0.00  0.00     0.059 A 
HETATM    9  C   UNK N   1       1.692  -1.970   0.453  0.00  0.00     0.108 A 
HETATM   10  N   UNK N   1       0.560  -2.730   0.518  0.00  0.00    -0.349 N 
ATOM     11  HN  UNK N   1       0.596  -3.684   0.878  1.00  0.00     0.167 HD
ENDROOT
BRANCH   8  12
HETATM   12  C   UNK N   1       2.952   0.052  -0.198  0.00  0.00     0.178 A 
HETATM   13  N   UNK N   1       3.164   1.172  -0.918  0.00  0.00    -0.277 N 
HETATM   14  N   UNK N   1       4.474   1.366  -0.946  0.00  0.00    -0.281 N 
ATOM     15  HN  UNK N   1       2.452   1.757  -1.356  1.00  0.00     0.189 HD
HETATM   16  C   UNK N   1       5.024   0.356  -0.244  0.00  0.00     0.145 A 
ATOM     17  HN  UNK N   1       4.969   2.129  -1.408  1.00  0.00     0.189 HD
HETATM   18  O   UNK N   1       4.096  -0.449   0.204  0.00  0.00    -0.277 OA
BRANCH  16  19
HETATM   19  C   UNK N   1       6.485   0.147  -0.019  0.00  0.00     0.134 C 
BRANCH  19  20
HETATM   20  C   UNK N   1       7.248   1.414   0.212  0.00  0.00     0.014 A 
HETATM   21  C   UNK N   1       6.905   2.533   0.997  0.00  0.00     0.019 A 
HETATM   22  N   UNK N   1       7.854   3.534   1.022  0.00  0.00    -0.357 N 
HETATM   23  C   UNK N   1       5.627   2.659   1.753  0.00  0.00     0.069 C 
HETATM   24  C   UNK N   1       8.944   3.224   0.275  0.00  0.00     0.047 A 
ATOM     25  HN  UNK N   1       7.748   4.405   1.542  1.00  0.00     0.166 HD
HETATM   26  S   UNK N   1       8.742   1.738  -0.414  0.00  0.00    -0.079 SA
HETATM   27  C   UNK N   1      10.135   4.099   0.127  0.00  0.00     0.076 C 
ENDBRANCH  19  20
ENDBRANCH  16  19
ENDBRANCH   8  12
BRANCH   7  28
HETATM   28  N   UNK N   1       0.210   1.263  -0.835  0.00  0.00    -0.383 N 
HETATM   29  H   UNK N   1      -0.304   1.439  -1.656  0.00  0.00     0.160 HD
BRANCH  28  30
HETATM   30  C   UNK N   1       0.751   2.382  -0.095  0.00  0.00     0.085 C 
HETATM   31  C   UNK N   1       0.194   2.381   1.340  0.00  0.00     0.051 C 
HETATM   32  C   UNK N   1      -1.271   2.859   1.391  0.00  0.00     0.169 C 
HETATM   33  O   UNK N   1      -1.798   3.067   0.101  0.00  0.00    -0.391 OA
HETATM   34  C   UNK N   1      -1.065   4.131  -0.455  0.00  0.00     0.169 C 
HETATM   35  C   UNK N   1       0.371   3.692  -0.797  0.00  0.00     0.051 C 
ENDBRANCH  28  30
ENDBRANCH   7  28
BRANCH   1  36
HETATM   36  C   UNK N   1      -2.221  -4.139   0.440  0.00  0.00     0.146 C 
HETATM   37  C   UNK N   1      -1.090  -4.977   1.017  0.00  0.00     0.028 C 
ENDBRANCH   1  36
TORSDOF 6
