MODEL 1
REMARK VINA RESULT:      -6.1      0.000      0.000
REMARK  10 active torsions:
REMARK  status: ('A' for Active; 'I' for Inactive)
REMARK    1  A    between atoms: O_2  and  C_3 
REMARK    2  A    between atoms: C_6  and  C_14 
REMARK    3  A    between atoms: C_8  and  O_9 
REMARK    4  A    between atoms: O_9  and  P_10 
REMARK    5  A    between atoms: P_10  and  O_12 
REMARK    6  A    between atoms: P_10  and  O_13 
REMARK    7  A    between atoms: C_15  and  C_16 
REMARK    8  A    between atoms: C_18  and  O_26 
REMARK    9  A    between atoms: C_19  and  O_24 
REMARK   10  A    between atoms: C_20  and  O_22 
ROOT
HETATM    1  C   UNK N   1      34.942  13.438   9.988  0.00  0.00     0.102 A 
HETATM    2  C   UNK N   1      34.927  13.822   8.639  0.00  0.00     0.040 A 
HETATM    3  C   UNK N   1      34.809  15.159   8.291  0.00  0.00     0.014 A 
HETATM    4  C   UNK N   1      34.745  16.148   9.281  0.00  0.00    -0.033 A 
HETATM    5  C   UNK N   1      34.676  15.772  10.624  0.00  0.00     0.051 A 
HETATM    6  C   UNK N   1      34.748  14.420  10.993  0.00  0.00     0.115 A 
ENDROOT
BRANCH   4   7
HETATM    7  C   UNK N   1      34.902  17.575   8.922  0.00  0.00     0.012 C 
HETATM    8  C   UNK N   1      33.947  18.286   8.271  0.00  0.00     0.012 C 
BRANCH   8   9
HETATM    9  C   UNK N   1      32.749  17.694   7.609  0.00  0.00    -0.031 A 
HETATM   10  C   UNK N   1      32.815  17.314   6.273  0.00  0.00     0.051 A 
HETATM   11  C   UNK N   1      31.679  16.852   5.590  0.00  0.00     0.105 A 
HETATM   12  C   UNK N   1      30.427  16.779   6.273  0.00  0.00     0.135 A 
HETATM   13  C   UNK N   1      30.371  17.159   7.644  0.00  0.00     0.105 A 
HETATM   14  C   UNK N   1      31.533  17.575   8.285  0.00  0.00     0.051 A 
BRANCH  11  15
HETATM   15  O   UNK N   1      31.845  16.506   4.288  0.00  0.00    -0.353 OA
HETATM   16  C   UNK N   1      32.769  17.044   3.420  0.00  0.00     0.210 C 
ENDBRANCH  11  15
BRANCH  12  17
HETATM   17  O   UNK N   1      29.333  16.336   5.589  0.00  0.00    -0.351 OA
HETATM   18  C   UNK N   1      28.915  15.032   5.473  0.00  0.00     0.210 C 
ENDBRANCH  12  17
BRANCH  13  19
HETATM   19  O   UNK N   1      29.227  17.182   8.360  0.00  0.00    -0.353 OA
HETATM   20  C   UNK N   1      29.208  17.649   9.656  0.00  0.00     0.210 C 
ENDBRANCH  13  19
ENDBRANCH   8   9
ENDBRANCH   4   7
BRANCH   6  21
HETATM   21  O   UNK N   1      34.702  14.120  12.316  0.00  0.00    -0.252 OA
BRANCH  21  22
HETATM   22  P   UNK N   1      36.067  13.798  13.323  0.00  0.00     0.396 P 
HETATM   23  O   UNK N   1      35.527  13.029  14.557  0.00  0.00    -0.631 OA
BRANCH  22  24
HETATM   24  O   UNK N   1      36.771  15.269  13.919  0.00  0.00    -0.307 OA
HETATM   25  H   UNK N   1      37.017  16.108  13.501  0.00  0.00     0.222 HD
ENDBRANCH  22  24
BRANCH  22  26
HETATM   26  O   UNK N   1      37.245  12.757  12.583  0.00  0.00    -0.307 OA
HETATM   27  H   UNK N   1      37.817  12.295  11.951  0.00  0.00     0.222 HD
ENDBRANCH  22  26
ENDBRANCH  21  22
ENDBRANCH   6  21
BRANCH   1  28
HETATM   28  O   UNK N   1      35.192  12.149  10.323  0.00  0.00    -0.353 OA
HETATM   29  C   UNK N   1      34.235  11.160  10.304  0.00  0.00     0.210 C 
ENDBRANCH   1  28
TORSDOF 10
ENDMDL
MODEL 2
REMARK VINA RESULT:      -6.0      0.491      2.690
REMARK  10 active torsions:
REMARK  status: ('A' for Active; 'I' for Inactive)
REMARK    1  A    between atoms: O_2  and  C_3 
REMARK    2  A    between atoms: C_6  and  C_14 
REMARK    3  A    between atoms: C_8  and  O_9 
REMARK    4  A    between atoms: O_9  and  P_10 
REMARK    5  A    between atoms: P_10  and  O_12 
REMARK    6  A    between atoms: P_10  and  O_13 
REMARK    7  A    between atoms: C_15  and  C_16 
REMARK    8  A    between atoms: C_18  and  O_26 
REMARK    9  A    between atoms: C_19  and  O_24 
REMARK   10  A    between atoms: C_20  and  O_22 
ROOT
HETATM    1  C   UNK N   1      34.943  13.476   9.856  0.00  0.00     0.102 A 
HETATM    2  C   UNK N   1      34.997  13.865   8.510  0.00  0.00     0.040 A 
HETATM    3  C   UNK N   1      34.895  15.203   8.160  0.00  0.00     0.014 A 
HETATM    4  C   UNK N   1      34.778  16.188   9.148  0.00  0.00    -0.033 A 
HETATM    5  C   UNK N   1      34.640  15.808  10.484  0.00  0.00     0.051 A 
HETATM    6  C   UNK N   1      34.695  14.455  10.853  0.00  0.00     0.115 A 
ENDROOT
BRANCH   4   7
HETATM    7  C   UNK N   1      34.950  17.617   8.802  0.00  0.00     0.012 C 
HETATM    8  C   UNK N   1      33.978  18.363   8.220  0.00  0.00     0.012 C 
BRANCH   8   9
HETATM    9  C   UNK N   1      32.727  17.812   7.623  0.00  0.00    -0.031 A 
HETATM   10  C   UNK N   1      31.561  17.770   8.380  0.00  0.00     0.051 A 
HETATM   11  C   UNK N   1      30.395  17.163   7.887  0.00  0.00     0.105 A 
HETATM   12  C   UNK N   1      30.404  16.569   6.589  0.00  0.00     0.135 A 
HETATM   13  C   UNK N   1      31.598  16.628   5.816  0.00  0.00     0.105 A 
HETATM   14  C   UNK N   1      32.716  17.273   6.335  0.00  0.00     0.051 A 
BRANCH  11  15
HETATM   15  O   UNK N   1      29.309  17.170   8.702  0.00  0.00    -0.353 OA
HETATM   16  C   UNK N   1      28.869  18.237   9.453  0.00  0.00     0.210 C 
ENDBRANCH  11  15
BRANCH  12  17
HETATM   17  O   UNK N   1      29.263  15.976   6.132  0.00  0.00    -0.351 OA
HETATM   18  C   UNK N   1      28.285  16.567   5.367  0.00  0.00     0.210 C 
ENDBRANCH  12  17
BRANCH  13  19
HETATM   19  O   UNK N   1      31.726  16.046   4.604  0.00  0.00    -0.353 OA
HETATM   20  C   UNK N   1      31.615  16.784   3.446  0.00  0.00     0.210 C 
ENDBRANCH  13  19
ENDBRANCH   8   9
ENDBRANCH   4   7
BRANCH   6  21
HETATM   21  O   UNK N   1      34.580  14.151  12.170  0.00  0.00    -0.252 OA
BRANCH  21  22
HETATM   22  P   UNK N   1      35.892  13.861  13.254  0.00  0.00     0.396 P 
HETATM   23  O   UNK N   1      36.440  15.253  13.660  0.00  0.00    -0.631 OA
BRANCH  22  24
HETATM   24  O   UNK N   1      37.190  13.023  12.463  0.00  0.00    -0.307 OA
HETATM   25  H   UNK N   1      37.796  12.319  12.738  0.00  0.00     0.222 HD
ENDBRANCH  22  24
BRANCH  22  26
HETATM   26  O   UNK N   1      35.411  13.082  14.732  0.00  0.00    -0.307 OA
HETATM   27  H   UNK N   1      35.012  12.874  15.591  0.00  0.00     0.222 HD
ENDBRANCH  22  26
ENDBRANCH  21  22
ENDBRANCH   6  21
BRANCH   1  28
HETATM   28  O   UNK N   1      35.177  12.187  10.200  0.00  0.00    -0.353 OA
HETATM   29  C   UNK N   1      34.206  11.211  10.194  0.00  0.00     0.210 C 
ENDBRANCH   1  28
TORSDOF 10
ENDMDL
MODEL 3
REMARK VINA RESULT:      -6.0     16.066     18.828
REMARK  10 active torsions:
REMARK  status: ('A' for Active; 'I' for Inactive)
REMARK    1  A    between atoms: O_2  and  C_3 
REMARK    2  A    between atoms: C_6  and  C_14 
REMARK    3  A    between atoms: C_8  and  O_9 
REMARK    4  A    between atoms: O_9  and  P_10 
REMARK    5  A    between atoms: P_10  and  O_12 
REMARK    6  A    between atoms: P_10  and  O_13 
REMARK    7  A    between atoms: C_15  and  C_16 
REMARK    8  A    between atoms: C_18  and  O_26 
REMARK    9  A    between atoms: C_19  and  O_24 
REMARK   10  A    between atoms: C_20  and  O_22 
ROOT
HETATM    1  C   UNK N   1      27.280  23.988  -5.251  0.00  0.00     0.102 A 
HETATM    2  C   UNK N   1      26.400  24.714  -6.066  0.00  0.00     0.040 A 
HETATM    3  C   UNK N   1      25.774  25.853  -5.584  0.00  0.00     0.014 A 
HETATM    4  C   UNK N   1      26.044  26.318  -4.291  0.00  0.00    -0.033 A 
HETATM    5  C   UNK N   1      26.853  25.560  -3.443  0.00  0.00     0.051 A 
HETATM    6  C   UNK N   1      27.459  24.379  -3.899  0.00  0.00     0.115 A 
ENDROOT
BRANCH   4   7
HETATM    7  C   UNK N   1      25.603  27.669  -3.876  0.00  0.00     0.012 C 
HETATM    8  C   UNK N   1      26.297  28.798  -4.168  0.00  0.00     0.012 C 
BRANCH   8   9
HETATM    9  C   UNK N   1      27.689  28.827  -4.703  0.00  0.00    -0.031 A 
HETATM   10  C   UNK N   1      28.759  28.561  -3.856  0.00  0.00     0.051 A 
HETATM   11  C   UNK N   1      30.085  28.683  -4.299  0.00  0.00     0.105 A 
HETATM   12  C   UNK N   1      30.346  29.097  -5.641  0.00  0.00     0.135 A 
HETATM   13  C   UNK N   1      29.244  29.355  -6.504  0.00  0.00     0.105 A 
HETATM   14  C   UNK N   1      27.948  29.184  -6.028  0.00  0.00     0.051 A 
BRANCH  11  15
HETATM   15  O   UNK N   1      31.061  28.403  -3.397  0.00  0.00    -0.353 OA
HETATM   16  C   UNK N   1      31.176  28.944  -2.136  0.00  0.00     0.210 C 
ENDBRANCH  11  15
BRANCH  12  17
HETATM   17  O   UNK N   1      31.642  29.217  -6.049  0.00  0.00    -0.351 OA
HETATM   18  C   UNK N   1      32.404  28.243  -6.649  0.00  0.00     0.210 C 
ENDBRANCH  12  17
BRANCH  13  19
HETATM   19  O   UNK N   1      29.383  29.806  -7.769  0.00  0.00    -0.353 OA
HETATM   20  C   UNK N   1      29.448  28.933  -8.833  0.00  0.00     0.210 C 
ENDBRANCH  13  19
ENDBRANCH   8   9
ENDBRANCH   4   7
BRANCH   6  21
HETATM   21  O   UNK N   1      28.255  23.700  -3.036  0.00  0.00    -0.252 OA
BRANCH  21  22
HETATM   22  P   UNK N   1      29.982  23.708  -3.040  0.00  0.00     0.396 P 
HETATM   23  O   UNK N   1      30.425  23.089  -1.688  0.00  0.00    -0.631 OA
BRANCH  22  24
HETATM   24  O   UNK N   1      30.604  25.328  -3.077  0.00  0.00    -0.307 OA
HETATM   25  H   UNK N   1      30.659  26.037  -2.419  0.00  0.00     0.222 HD
ENDBRANCH  22  24
BRANCH  22  26
HETATM   26  O   UNK N   1      30.677  22.708  -4.279  0.00  0.00    -0.307 OA
HETATM   27  H   UNK N   1      30.874  21.985  -4.895  0.00  0.00     0.222 HD
ENDBRANCH  22  26
ENDBRANCH  21  22
ENDBRANCH   6  21
BRANCH   1  28
HETATM   28  O   UNK N   1      27.989  22.956  -5.770  0.00  0.00    -0.353 OA
HETATM   29  C   UNK N   1      27.817  22.483  -7.051  0.00  0.00     0.210 C 
ENDBRANCH   1  28
TORSDOF 10
ENDMDL
MODEL 4
REMARK VINA RESULT:      -5.9      6.651      9.269
REMARK  10 active torsions:
REMARK  status: ('A' for Active; 'I' for Inactive)
REMARK    1  A    between atoms: O_2  and  C_3 
REMARK    2  A    between atoms: C_6  and  C_14 
REMARK    3  A    between atoms: C_8  and  O_9 
REMARK    4  A    between atoms: O_9  and  P_10 
REMARK    5  A    between atoms: P_10  and  O_12 
REMARK    6  A    between atoms: P_10  and  O_13 
REMARK    7  A    between atoms: C_15  and  C_16 
REMARK    8  A    between atoms: C_18  and  O_26 
REMARK    9  A    between atoms: C_19  and  O_24 
REMARK   10  A    between atoms: C_20  and  O_22 
ROOT
HETATM    1  C   UNK N   1      28.296  19.027   7.133  0.00  0.00     0.102 A 
HETATM    2  C   UNK N   1      27.495  20.178   7.138  0.00  0.00     0.040 A 
HETATM    3  C   UNK N   1      27.014  20.705   5.949  0.00  0.00     0.014 A 
HETATM    4  C   UNK N   1      27.288  20.072   4.730  0.00  0.00    -0.033 A 
HETATM    5  C   UNK N   1      28.150  18.975   4.704  0.00  0.00     0.051 A 
HETATM    6  C   UNK N   1      28.683  18.454   5.893  0.00  0.00     0.115 A 
ENDROOT
BRANCH   4   7
HETATM    7  C   UNK N   1      26.554  20.463   3.505  0.00  0.00     0.012 C 
HETATM    8  C   UNK N   1      25.425  19.839   3.085  0.00  0.00     0.012 C 
BRANCH   8   9
HETATM    9  C   UNK N   1      24.915  18.546   3.627  0.00  0.00    -0.031 A 
HETATM   10  C   UNK N   1      23.888  18.547   4.563  0.00  0.00     0.051 A 
HETATM   11  C   UNK N   1      23.457  17.358   5.172  0.00  0.00     0.105 A 
HETATM   12  C   UNK N   1      24.089  16.123   4.834  0.00  0.00     0.135 A 
HETATM   13  C   UNK N   1      25.132  16.130   3.865  0.00  0.00     0.105 A 
HETATM   14  C   UNK N   1      25.497  17.329   3.264  0.00  0.00     0.051 A 
BRANCH  11  15
HETATM   15  O   UNK N   1      22.448  17.463   6.075  0.00  0.00    -0.353 OA
HETATM   16  C   UNK N   1      21.315  18.233   5.936  0.00  0.00     0.210 C 
ENDBRANCH  11  15
BRANCH  12  17
HETATM   17  O   UNK N   1      23.661  14.980   5.444  0.00  0.00    -0.351 OA
HETATM   18  C   UNK N   1      24.121  14.467   6.633  0.00  0.00     0.210 C 
ENDBRANCH  12  17
BRANCH  13  19
HETATM   19  O   UNK N   1      25.830  15.027   3.521  0.00  0.00    -0.353 OA
HETATM   20  C   UNK N   1      25.859  14.582   2.217  0.00  0.00     0.210 C 
ENDBRANCH  13  19
ENDBRANCH   8   9
ENDBRANCH   4   7
BRANCH   6  21
HETATM   21  O   UNK N   1      29.494  17.371   5.805  0.00  0.00    -0.252 OA
BRANCH  21  22
HETATM   22  P   UNK N   1      29.022  15.801   5.263  0.00  0.00     0.396 P 
HETATM   23  O   UNK N   1      30.160  14.834   5.680  0.00  0.00    -0.631 OA
BRANCH  22  24
HETATM   24  O   UNK N   1      28.920  15.736   3.531  0.00  0.00    -0.307 OA
HETATM   25  H   UNK N   1      28.932  15.011   2.889  0.00  0.00     0.222 HD
ENDBRANCH  22  24
BRANCH  22  26
HETATM   26  O   UNK N   1      27.579  15.208   6.029  0.00  0.00    -0.307 OA
HETATM   27  H   UNK N   1      26.944  14.818   6.650  0.00  0.00     0.222 HD
ENDBRANCH  22  26
ENDBRANCH  21  22
ENDBRANCH   6  21
BRANCH   1  28
HETATM   28  O   UNK N   1      28.650  18.441   8.302  0.00  0.00    -0.353 OA
HETATM   29  C   UNK N   1      27.895  17.475   8.927  0.00  0.00     0.210 C 
ENDBRANCH   1  28
TORSDOF 10
ENDMDL
MODEL 5
REMARK VINA RESULT:      -5.9      2.431      7.325
REMARK  10 active torsions:
REMARK  status: ('A' for Active; 'I' for Inactive)
REMARK    1  A    between atoms: O_2  and  C_3 
REMARK    2  A    between atoms: C_6  and  C_14 
REMARK    3  A    between atoms: C_8  and  O_9 
REMARK    4  A    between atoms: O_9  and  P_10 
REMARK    5  A    between atoms: P_10  and  O_12 
REMARK    6  A    between atoms: P_10  and  O_13 
REMARK    7  A    between atoms: C_15  and  C_16 
REMARK    8  A    between atoms: C_18  and  O_26 
REMARK    9  A    between atoms: C_19  and  O_24 
REMARK   10  A    between atoms: C_20  and  O_22 
ROOT
HETATM    1  C   UNK N   1      30.951  16.455   6.185  0.00  0.00     0.102 A 
HETATM    2  C   UNK N   1      32.156  16.708   5.514  0.00  0.00     0.040 A 
HETATM    3  C   UNK N   1      33.167  17.429   6.132  0.00  0.00     0.014 A 
HETATM    4  C   UNK N   1      33.014  17.878   7.450  0.00  0.00    -0.033 A 
HETATM    5  C   UNK N   1      31.790  17.704   8.098  0.00  0.00     0.051 A 
HETATM    6  C   UNK N   1      30.739  17.017   7.471  0.00  0.00     0.115 A 
ENDROOT
BRANCH   4   7
HETATM    7  C   UNK N   1      34.180  18.394   8.202  0.00  0.00     0.012 C 
HETATM    8  C   UNK N   1      35.017  17.597   8.914  0.00  0.00     0.012 C 
BRANCH   8   9
HETATM    9  C   UNK N   1      34.749  16.169   9.250  0.00  0.00    -0.031 A 
HETATM   10  C   UNK N   1      34.717  15.768  10.580  0.00  0.00     0.051 A 
HETATM   11  C   UNK N   1      34.573  14.416  10.930  0.00  0.00     0.105 A 
HETATM   12  C   UNK N   1      34.468  13.429   9.903  0.00  0.00     0.135 A 
HETATM   13  C   UNK N   1      34.491  13.851   8.543  0.00  0.00     0.105 A 
HETATM   14  C   UNK N   1      34.597  15.206   8.250  0.00  0.00     0.051 A 
BRANCH  11  15
HETATM   15  O   UNK N   1      34.554  14.123  12.256  0.00  0.00    -0.353 OA
HETATM   16  C   UNK N   1      35.658  13.930  13.057  0.00  0.00     0.210 C 
ENDBRANCH  11  15
BRANCH  12  17
HETATM   17  O   UNK N   1      34.339  12.120  10.263  0.00  0.00    -0.351 OA
HETATM   18  C   UNK N   1      35.359  11.213  10.430  0.00  0.00     0.210 C 
ENDBRANCH  12  17
BRANCH  13  19
HETATM   19  O   UNK N   1      34.457  12.993   7.501  0.00  0.00    -0.353 OA
HETATM   20  C   UNK N   1      35.617  12.561   6.897  0.00  0.00     0.210 C 
ENDBRANCH  13  19
ENDBRANCH   8   9
ENDBRANCH   4   7
BRANCH   6  21
HETATM   21  O   UNK N   1      29.583  16.858   8.162  0.00  0.00    -0.252 OA
BRANCH  21  22
HETATM   22  P   UNK N   1      28.135  17.768   7.924  0.00  0.00     0.396 P 
HETATM   23  O   UNK N   1      28.559  19.091   7.235  0.00  0.00    -0.631 OA
BRANCH  22  24
HETATM   24  O   UNK N   1      27.409  18.203   9.440  0.00  0.00    -0.307 OA
HETATM   25  H   UNK N   1      27.602  18.884  10.101  0.00  0.00     0.222 HD
ENDBRANCH  22  24
BRANCH  22  26
HETATM   26  O   UNK N   1      27.004  17.004   6.849  0.00  0.00    -0.307 OA
HETATM   27  H   UNK N   1      26.582  16.576   6.088  0.00  0.00     0.222 HD
ENDBRANCH  22  26
ENDBRANCH  21  22
ENDBRANCH   6  21
BRANCH   1  28
HETATM   28  O   UNK N   1      30.023  15.639   5.628  0.00  0.00    -0.353 OA
HETATM   29  C   UNK N   1      30.318  14.697   4.668  0.00  0.00     0.210 C 
ENDBRANCH   1  28
TORSDOF 10
ENDMDL
MODEL 6
REMARK VINA RESULT:      -5.9      7.765     12.186
REMARK  10 active torsions:
REMARK  status: ('A' for Active; 'I' for Inactive)
REMARK    1  A    between atoms: O_2  and  C_3 
REMARK    2  A    between atoms: C_6  and  C_14 
REMARK    3  A    between atoms: C_8  and  O_9 
REMARK    4  A    between atoms: O_9  and  P_10 
REMARK    5  A    between atoms: P_10  and  O_12 
REMARK    6  A    between atoms: P_10  and  O_13 
REMARK    7  A    between atoms: C_15  and  C_16 
REMARK    8  A    between atoms: C_18  and  O_26 
REMARK    9  A    between atoms: C_19  and  O_24 
REMARK   10  A    between atoms: C_20  and  O_22 
ROOT
HETATM    1  C   UNK N   1      22.226  17.574   5.860  0.00  0.00     0.102 A 
HETATM    2  C   UNK N   1      22.587  16.317   6.367  0.00  0.00     0.040 A 
HETATM    3  C   UNK N   1      23.447  15.493   5.657  0.00  0.00     0.014 A 
HETATM    4  C   UNK N   1      23.999  15.922   4.443  0.00  0.00    -0.033 A 
HETATM    5  C   UNK N   1      23.583  17.134   3.888  0.00  0.00     0.051 A 
HETATM    6  C   UNK N   1      22.678  17.960   4.572  0.00  0.00     0.115 A 
ENDROOT
BRANCH   4   7
HETATM    7  C   UNK N   1      25.120  15.176   3.828  0.00  0.00     0.012 C 
HETATM    8  C   UNK N   1      26.414  15.576   3.915  0.00  0.00     0.012 C 
BRANCH   8   9
HETATM    9  C   UNK N   1      26.859  16.915   4.399  0.00  0.00    -0.031 A 
HETATM   10  C   UNK N   1      27.351  17.053   5.692  0.00  0.00     0.051 A 
HETATM   11  C   UNK N   1      27.679  18.313   6.215  0.00  0.00     0.105 A 
HETATM   12  C   UNK N   1      27.498  19.480   5.411  0.00  0.00     0.135 A 
HETATM   13  C   UNK N   1      27.006  19.327   4.084  0.00  0.00     0.105 A 
HETATM   14  C   UNK N   1      26.730  18.053   3.600  0.00  0.00     0.051 A 
BRANCH  11  15
HETATM   15  O   UNK N   1      28.150  18.346   7.488  0.00  0.00    -0.353 OA
HETATM   16  C   UNK N   1      28.008  17.349   8.428  0.00  0.00     0.210 C 
ENDBRANCH  11  15
BRANCH  12  17
HETATM   17  O   UNK N   1      27.814  20.696   5.941  0.00  0.00    -0.351 OA
HETATM   18  C   UNK N   1      26.936  21.609   6.474  0.00  0.00     0.210 C 
ENDBRANCH  12  17
BRANCH  13  19
HETATM   19  O   UNK N   1      26.745  20.370   3.266  0.00  0.00    -0.353 OA
HETATM   20  C   UNK N   1      25.503  20.529   2.691  0.00  0.00     0.210 C 
ENDBRANCH  13  19
ENDBRANCH   8   9
ENDBRANCH   4   7
BRANCH   6  21
HETATM   21  O   UNK N   1      22.332  19.137   3.993  0.00  0.00    -0.252 OA
BRANCH  21  22
HETATM   22  P   UNK N   1      20.851  19.454   3.164  0.00  0.00     0.396 P 
HETATM   23  O   UNK N   1      20.197  20.662   3.883  0.00  0.00    -0.631 OA
BRANCH  22  24
HETATM   24  O   UNK N   1      19.746  18.124   3.316  0.00  0.00    -0.307 OA
HETATM   25  H   UNK N   1      18.828  18.050   3.617  0.00  0.00     0.222 HD
ENDBRANCH  22  24
BRANCH  22  26
HETATM   26  O   UNK N   1      21.072  19.939   1.510  0.00  0.00    -0.307 OA
HETATM   27  H   UNK N   1      21.153  19.953   0.544  0.00  0.00     0.222 HD
ENDBRANCH  22  26
ENDBRANCH  21  22
ENDBRANCH   6  21
BRANCH   1  28
HETATM   28  O   UNK N   1      21.495  18.427   6.619  0.00  0.00    -0.353 OA
HETATM   29  C   UNK N   1      20.487  18.019   7.463  0.00  0.00     0.210 C 
ENDBRANCH   1  28
TORSDOF 10
ENDMDL
MODEL 7
REMARK VINA RESULT:      -5.9      6.377      8.814
REMARK  10 active torsions:
REMARK  status: ('A' for Active; 'I' for Inactive)
REMARK    1  A    between atoms: O_2  and  C_3 
REMARK    2  A    between atoms: C_6  and  C_14 
REMARK    3  A    between atoms: C_8  and  O_9 
REMARK    4  A    between atoms: O_9  and  P_10 
REMARK    5  A    between atoms: P_10  and  O_12 
REMARK    6  A    between atoms: P_10  and  O_13 
REMARK    7  A    between atoms: C_15  and  C_16 
REMARK    8  A    between atoms: C_18  and  O_26 
REMARK    9  A    between atoms: C_19  and  O_24 
REMARK   10  A    between atoms: C_20  and  O_22 
ROOT
HETATM    1  C   UNK N   1      28.655  18.338   7.154  0.00  0.00     0.102 A 
HETATM    2  C   UNK N   1      27.842  19.456   7.390  0.00  0.00     0.040 A 
HETATM    3  C   UNK N   1      27.329  20.188   6.330  0.00  0.00     0.014 A 
HETATM    4  C   UNK N   1      27.582  19.798   5.009  0.00  0.00    -0.033 A 
HETATM    5  C   UNK N   1      28.456  18.738   4.761  0.00  0.00     0.051 A 
HETATM    6  C   UNK N   1      29.021  18.013   5.822  0.00  0.00     0.115 A 
ENDROOT
BRANCH   4   7
HETATM    7  C   UNK N   1      26.816  20.399   3.893  0.00  0.00     0.012 C 
HETATM    8  C   UNK N   1      25.628  19.909   3.459  0.00  0.00     0.012 C 
BRANCH   8   9
HETATM    9  C   UNK N   1      25.060  18.586   3.850  0.00  0.00    -0.031 A 
HETATM   10  C   UNK N   1      25.454  17.439   3.172  0.00  0.00     0.051 A 
HETATM   11  C   UNK N   1      24.862  16.194   3.441  0.00  0.00     0.105 A 
HETATM   12  C   UNK N   1      23.829  16.102   4.422  0.00  0.00     0.135 A 
HETATM   13  C   UNK N   1      23.440  17.281   5.120  0.00  0.00     0.105 A 
HETATM   14  C   UNK N   1      24.083  18.482   4.842  0.00  0.00     0.051 A 
BRANCH  11  15
HETATM   15  O   UNK N   1      25.314  15.132   2.725  0.00  0.00    -0.353 OA
HETATM   16  C   UNK N   1      26.417  15.123   1.901  0.00  0.00     0.210 C 
ENDBRANCH  11  15
BRANCH  12  17
HETATM   17  O   UNK N   1      23.261  14.886   4.663  0.00  0.00    -0.351 OA
HETATM   18  C   UNK N   1      23.648  13.978   5.619  0.00  0.00     0.210 C 
ENDBRANCH  12  17
BRANCH  13  19
HETATM   19  O   UNK N   1      22.436  17.310   6.022  0.00  0.00    -0.353 OA
HETATM   20  C   UNK N   1      21.465  18.287   5.974  0.00  0.00     0.210 C 
ENDBRANCH  13  19
ENDBRANCH   8   9
ENDBRANCH   4   7
BRANCH   6  21
HETATM   21  O   UNK N   1      29.842  16.978   5.516  0.00  0.00    -0.252 OA
BRANCH  21  22
HETATM   22  P   UNK N   1      30.751  16.810   4.058  0.00  0.00     0.396 P 
HETATM   23  O   UNK N   1      31.564  15.497   4.198  0.00  0.00    -0.631 OA
BRANCH  22  24
HETATM   24  O   UNK N   1      31.903  18.096   3.882  0.00  0.00    -0.307 OA
HETATM   25  H   UNK N   1      32.805  18.233   4.209  0.00  0.00     0.222 HD
ENDBRANCH  22  24
BRANCH  22  26
HETATM   26  O   UNK N   1      29.761  16.616   2.643  0.00  0.00    -0.307 OA
HETATM   27  H   UNK N   1      29.038  16.412   2.030  0.00  0.00     0.222 HD
ENDBRANCH  22  26
ENDBRANCH  21  22
ENDBRANCH   6  21
BRANCH   1  28
HETATM   28  O   UNK N   1      29.042  17.551   8.186  0.00  0.00    -0.353 OA
HETATM   29  C   UNK N   1      28.405  17.531   9.407  0.00  0.00     0.210 C 
ENDBRANCH   1  28
TORSDOF 10
ENDMDL
MODEL 8
REMARK VINA RESULT:      -5.8     16.707     19.202
REMARK  10 active torsions:
REMARK  status: ('A' for Active; 'I' for Inactive)
REMARK    1  A    between atoms: O_2  and  C_3 
REMARK    2  A    between atoms: C_6  and  C_14 
REMARK    3  A    between atoms: C_8  and  O_9 
REMARK    4  A    between atoms: O_9  and  P_10 
REMARK    5  A    between atoms: P_10  and  O_12 
REMARK    6  A    between atoms: P_10  and  O_13 
REMARK    7  A    between atoms: C_15  and  C_16 
REMARK    8  A    between atoms: C_18  and  O_26 
REMARK    9  A    between atoms: C_19  and  O_24 
REMARK   10  A    between atoms: C_20  and  O_22 
ROOT
HETATM    1  C   UNK N   1      25.964  24.798  -5.007  0.00  0.00     0.102 A 
HETATM    2  C   UNK N   1      25.198  25.718  -5.737  0.00  0.00     0.040 A 
HETATM    3  C   UNK N   1      25.119  27.043  -5.335  0.00  0.00     0.014 A 
HETATM    4  C   UNK N   1      25.837  27.490  -4.219  0.00  0.00    -0.033 A 
HETATM    5  C   UNK N   1      26.536  26.568  -3.437  0.00  0.00     0.051 A 
HETATM    6  C   UNK N   1      26.589  25.214  -3.803  0.00  0.00     0.115 A 
ENDROOT
BRANCH   4   7
HETATM    7  C   UNK N   1      25.980  28.940  -3.955  0.00  0.00     0.012 C 
HETATM    8  C   UNK N   1      26.935  29.709  -4.535  0.00  0.00     0.012 C 
BRANCH   8   9
HETATM    9  C   UNK N   1      28.105  29.183  -5.296  0.00  0.00    -0.031 A 
HETATM   10  C   UNK N   1      28.030  29.058  -6.678  0.00  0.00     0.051 A 
HETATM   11  C   UNK N   1      29.070  28.469  -7.413  0.00  0.00     0.105 A 
HETATM   12  C   UNK N   1      30.226  27.979  -6.732  0.00  0.00     0.135 A 
HETATM   13  C   UNK N   1      30.299  28.122  -5.318  0.00  0.00     0.105 A 
HETATM   14  C   UNK N   1      29.258  28.746  -4.640  0.00  0.00     0.051 A 
BRANCH  11  15
HETATM   15  O   UNK N   1      28.903  28.390  -8.759  0.00  0.00    -0.353 OA
HETATM   16  C   UNK N   1      28.267  27.374  -9.436  0.00  0.00     0.210 C 
ENDBRANCH  11  15
BRANCH  12  17
HETATM   17  O   UNK N   1      31.222  27.402  -7.464  0.00  0.00    -0.351 OA
HETATM   18  C   UNK N   1      31.372  26.060  -7.725  0.00  0.00     0.210 C 
ENDBRANCH  12  17
BRANCH  13  19
HETATM   19  O   UNK N   1      31.320  27.641  -4.576  0.00  0.00    -0.353 OA
HETATM   20  C   UNK N   1      32.419  28.420  -4.287  0.00  0.00     0.210 C 
ENDBRANCH  13  19
ENDBRANCH   8   9
ENDBRANCH   4   7
BRANCH   6  21
HETATM   21  O   UNK N   1      27.306  24.373  -3.017  0.00  0.00    -0.252 OA
BRANCH  21  22
HETATM   22  P   UNK N   1      28.928  23.858  -3.310  0.00  0.00     0.396 P 
HETATM   23  O   UNK N   1      29.293  22.887  -2.158  0.00  0.00    -0.631 OA
BRANCH  22  24
HETATM   24  O   UNK N   1      30.038  25.189  -3.213  0.00  0.00    -0.307 OA
HETATM   25  H   UNK N   1      30.629  25.613  -3.854  0.00  0.00     0.222 HD
ENDBRANCH  22  24
BRANCH  22  26
HETATM   26  O   UNK N   1      29.114  22.953  -4.781  0.00  0.00    -0.307 OA
HETATM   27  H   UNK N   1      28.955  22.471  -5.608  0.00  0.00     0.222 HD
ENDBRANCH  22  26
ENDBRANCH  21  22
ENDBRANCH   6  21
BRANCH   1  28
HETATM   28  O   UNK N   1      26.145  23.541  -5.478  0.00  0.00    -0.353 OA
HETATM   29  C   UNK N   1      26.057  23.209  -6.812  0.00  0.00     0.210 C 
ENDBRANCH   1  28
TORSDOF 10
ENDMDL
MODEL 9
REMARK VINA RESULT:      -5.7      7.353     12.175
REMARK  10 active torsions:
REMARK  status: ('A' for Active; 'I' for Inactive)
REMARK    1  A    between atoms: O_2  and  C_3 
REMARK    2  A    between atoms: C_6  and  C_14 
REMARK    3  A    between atoms: C_8  and  O_9 
REMARK    4  A    between atoms: O_9  and  P_10 
REMARK    5  A    between atoms: P_10  and  O_12 
REMARK    6  A    between atoms: P_10  and  O_13 
REMARK    7  A    between atoms: C_15  and  C_16 
REMARK    8  A    between atoms: C_18  and  O_26 
REMARK    9  A    between atoms: C_19  and  O_24 
REMARK   10  A    between atoms: C_20  and  O_22 
ROOT
HETATM    1  C   UNK N   1      22.094  16.988   5.913  0.00  0.00     0.102 A 
HETATM    2  C   UNK N   1      22.855  15.965   6.495  0.00  0.00     0.040 A 
HETATM    3  C   UNK N   1      23.790  15.269   5.744  0.00  0.00     0.014 A 
HETATM    4  C   UNK N   1      24.016  15.606   4.403  0.00  0.00    -0.033 A 
HETATM    5  C   UNK N   1      23.207  16.565   3.790  0.00  0.00     0.051 A 
HETATM    6  C   UNK N   1      22.225  17.248   4.524  0.00  0.00     0.115 A 
ENDROOT
BRANCH   4   7
HETATM    7  C   UNK N   1      25.193  15.066   3.685  0.00  0.00     0.012 C 
HETATM    8  C   UNK N   1      26.424  15.633   3.745  0.00  0.00     0.012 C 
BRANCH   8   9
HETATM    9  C   UNK N   1      26.711  16.984   4.308  0.00  0.00    -0.031 A 
HETATM   10  C   UNK N   1      26.378  18.120   3.580  0.00  0.00     0.051 A 
HETATM   11  C   UNK N   1      26.729  19.402   4.031  0.00  0.00     0.105 A 
HETATM   12  C   UNK N   1      27.450  19.547   5.255  0.00  0.00     0.135 A 
HETATM   13  C   UNK N   1      27.777  18.379   6.000  0.00  0.00     0.105 A 
HETATM   14  C   UNK N   1      27.374  17.134   5.529  0.00  0.00     0.051 A 
BRANCH  11  15
HETATM   15  O   UNK N   1      26.360  20.450   3.249  0.00  0.00    -0.353 OA
HETATM   16  C   UNK N   1      25.210  20.531   2.497  0.00  0.00     0.210 C 
ENDBRANCH  11  15
BRANCH  12  17
HETATM   17  O   UNK N   1      27.789  20.801   5.671  0.00  0.00    -0.351 OA
HETATM   18  C   UNK N   1      27.010  21.654   6.417  0.00  0.00     0.210 C 
ENDBRANCH  12  17
BRANCH  13  19
HETATM   19  O   UNK N   1      28.505  18.404   7.136  0.00  0.00    -0.353 OA
HETATM   20  C   UNK N   1      29.300  17.338   7.495  0.00  0.00     0.210 C 
ENDBRANCH  13  19
ENDBRANCH   8   9
ENDBRANCH   4   7
BRANCH   6  21
HETATM   21  O   UNK N   1      21.489  18.187   3.878  0.00  0.00    -0.252 OA
BRANCH  21  22
HETATM   22  P   UNK N   1      20.031  17.895   3.000  0.00  0.00     0.396 P 
HETATM   23  O   UNK N   1      19.336  19.272   2.836  0.00  0.00    -0.631 OA
BRANCH  22  24
HETATM   24  O   UNK N   1      18.942  16.889   3.904  0.00  0.00    -0.307 OA
HETATM   25  H   UNK N   1      18.890  16.632   4.837  0.00  0.00     0.222 HD
ENDBRANCH  22  24
BRANCH  22  26
HETATM   26  O   UNK N   1      20.299  17.295   1.392  0.00  0.00    -0.307 OA
HETATM   27  H   UNK N   1      20.401  17.212   0.431  0.00  0.00     0.222 HD
ENDBRANCH  22  26
ENDBRANCH  21  22
ENDBRANCH   6  21
BRANCH   1  28
HETATM   28  O   UNK N   1      21.281  17.751   6.683  0.00  0.00    -0.353 OA
HETATM   29  C   UNK N   1      20.417  17.234   7.620  0.00  0.00     0.210 C 
ENDBRANCH   1  28
TORSDOF 10
ENDMDL
