MODEL 1
REMARK VINA RESULT:      -8.0      0.000      0.000
REMARK  7 active torsions:
REMARK  status: ('A' for Active; 'I' for Inactive)
REMARK    1  A    between atoms: C_2  and  C_4 
REMARK    2  A    between atoms: C_7  and  C_14 
REMARK       I    between atoms: C_14  and  N_16 
REMARK    3  A    between atoms: N_16  and  C_17 
REMARK    4  A    between atoms: C_17  and  C_18 
REMARK    5  A    between atoms: N_21  and  C_24 
REMARK    6  A    between atoms: C_24  and  C_25 
REMARK       I    between atoms: N_28  and  C_31 
REMARK    7  A    between atoms: C_31  and  O_33 
ROOT
HETATM    1  C   UNK N   1      36.003  13.762  12.626  0.00  0.00     0.254 C 
HETATM    2  O   UNK N   1      36.190  14.852  13.145  0.00  0.00    -0.268 OA
HETATM    3  N   UNK N   1      36.390  13.530  11.358  0.00  0.00    -0.356 N 
HETATM    4  H   UNK N   1      36.276  12.613  11.017  0.00  0.00     0.162 HD
ENDROOT
BRANCH   3   5
HETATM    5  C   UNK N   1      36.957  14.501  10.453  0.00  0.00     0.127 C 
BRANCH   5   6
HETATM    6  C   UNK N   1      35.849  14.971   9.501  0.00  0.00     0.007 C 
HETATM    7  C   UNK N   1      35.231  16.300   9.974  0.00  0.00     0.036 C 
HETATM    8  C   UNK N   1      33.952  16.634   9.175  0.00  0.00     0.273 C 
HETATM    9  N   UNK N   1      33.030  15.498   9.248  0.00  0.00     0.088 N 
HETATM   10  C   UNK N   1      33.648  14.401   8.527  0.00  0.00     0.273 C 
HETATM   11  C   UNK N   1      34.770  13.888   9.374  0.00  0.00     0.036 C 
BRANCH   9  12
HETATM   12  C   UNK N   1      31.776  15.768   8.564  0.00  0.00     0.277 C 
BRANCH  12  13
HETATM   13  C   UNK N   1      31.745  17.220   8.049  0.00  0.00     0.017 C 
HETATM   14  C   UNK N   1      31.580  17.265   6.526  0.00  0.00     0.026 C 
HETATM   15  C   UNK N   1      30.137  16.960   6.111  0.00  0.00     0.128 C 
HETATM   16  N   UNK N   1      29.226  17.831   6.828  0.00  0.00    -0.328 N 
HETATM   17  C   UNK N   1      29.278  17.781   8.272  0.00  0.00     0.128 C 
HETATM   18  C   UNK N   1      28.351  18.693   6.210  0.00  0.00     0.362 C 
HETATM   19  C   UNK N   1      30.697  18.128   8.725  0.00  0.00     0.026 C 
HETATM   20  O   UNK N   1      27.602  19.373   6.898  0.00  0.00    -0.238 OA
BRANCH  18  21
HETATM   21  O   UNK N   1      28.268  18.838   4.855  0.00  0.00    -0.309 OA
HETATM   22  C   UNK N   1      27.174  18.589   4.061  0.00  0.00     0.215 C 
ENDBRANCH  18  21
ENDBRANCH  12  13
ENDBRANCH   9  12
ENDBRANCH   5   6
ENDBRANCH   3   5
BRANCH   1  23
HETATM   23  C   UNK N   1      35.305  12.676  13.350  0.00  0.00     0.060 A 
HETATM   24  C   UNK N   1      35.205  12.636  14.739  0.00  0.00     0.076 A 
HETATM   25  N   UNK N   1      35.734  13.480  15.635  0.00  0.00    -0.343 N 
HETATM   26  C   UNK N   1      34.529  11.647  15.387  0.00  0.00     0.061 A 
HETATM   27  C   UNK N   1      35.350  12.969  16.833  0.00  0.00     0.085 A 
HETATM   28  H   UNK N   1      36.276  14.284  15.464  0.00  0.00     0.167 HD
HETATM   29  N   UNK N   1      34.596  11.846  16.710  0.00  0.00    -0.344 N 
ATOM     30  HN  UNK N   1      34.177  11.284  17.452  1.00  0.00     0.167 HD
HETATM   31  C   UNK N   1      33.901  10.606  14.711  0.00  0.00     0.032 A 
HETATM   32  C   UNK N   1      33.990  10.597  13.308  0.00  0.00     0.003 A 
HETATM   33  C   UNK N   1      34.687  11.624  12.631  0.00  0.00     0.019 A 
BRANCH  27  34
HETATM   34  C   UNK N   1      35.744  13.552  18.156  0.00  0.00     0.045 C 
HETATM   35  C   UNK N   1      35.310  15.003  18.243  0.00  0.00     0.017 C 
HETATM   36  C   UNK N   1      35.104  12.787  19.304  0.00  0.00     0.017 C 
ENDBRANCH  27  34
ENDBRANCH   1  23
TORSDOF 7
ENDMDL
MODEL 2
REMARK VINA RESULT:      -7.9      3.034     10.280
REMARK  7 active torsions:
REMARK  status: ('A' for Active; 'I' for Inactive)
REMARK    1  A    between atoms: C_2  and  C_4 
REMARK    2  A    between atoms: C_7  and  C_14 
REMARK       I    between atoms: C_14  and  N_16 
REMARK    3  A    between atoms: N_16  and  C_17 
REMARK    4  A    between atoms: C_17  and  C_18 
REMARK    5  A    between atoms: N_21  and  C_24 
REMARK    6  A    between atoms: C_24  and  C_25 
REMARK       I    between atoms: N_28  and  C_31 
REMARK    7  A    between atoms: C_31  and  O_33 
ROOT
HETATM    1  C   UNK N   1      28.784  16.696   3.873  0.00  0.00     0.254 C 
HETATM    2  O   UNK N   1      28.275  15.588   3.794  0.00  0.00    -0.268 OA
HETATM    3  N   UNK N   1      30.079  16.879   3.555  0.00  0.00    -0.356 N 
HETATM    4  H   UNK N   1      30.417  17.804   3.572  0.00  0.00     0.162 HD
ENDROOT
BRANCH   3   5
HETATM    5  C   UNK N   1      31.019  15.845   3.192  0.00  0.00     0.127 C 
BRANCH   5   6
HETATM    6  C   UNK N   1      32.326  16.096   3.955  0.00  0.00     0.007 C 
HETATM    7  C   UNK N   1      32.792  14.832   4.699  0.00  0.00     0.036 C 
HETATM    8  C   UNK N   1      33.948  15.153   5.672  0.00  0.00     0.273 C 
HETATM    9  N   UNK N   1      33.539  16.242   6.562  0.00  0.00     0.088 N 
HETATM   10  C   UNK N   1      33.395  17.430   5.743  0.00  0.00     0.273 C 
HETATM   11  C   UNK N   1      32.148  17.264   4.934  0.00  0.00     0.036 C 
BRANCH   9  12
HETATM   12  C   UNK N   1      34.562  16.557   7.546  0.00  0.00     0.277 C 
BRANCH  12  13
HETATM   13  C   UNK N   1      33.935  16.703   8.947  0.00  0.00     0.017 C 
HETATM   14  C   UNK N   1      33.221  15.416   9.371  0.00  0.00     0.026 C 
HETATM   15  C   UNK N   1      34.221  14.337   9.799  0.00  0.00     0.128 C 
HETATM   16  N   UNK N   1      35.118  14.871  10.804  0.00  0.00    -0.328 N 
HETATM   17  C   UNK N   1      35.880  16.044  10.440  0.00  0.00     0.128 C 
HETATM   18  C   UNK N   1      35.258  14.335  12.064  0.00  0.00     0.362 C 
HETATM   19  C   UNK N   1      34.911  17.160  10.051  0.00  0.00     0.026 C 
HETATM   20  O   UNK N   1      36.058  14.840  12.838  0.00  0.00    -0.238 OA
BRANCH  18  21
HETATM   21  O   UNK N   1      34.544  13.259  12.507  0.00  0.00    -0.309 OA
HETATM   22  C   UNK N   1      35.000  11.974  12.670  0.00  0.00     0.215 C 
ENDBRANCH  18  21
ENDBRANCH  12  13
ENDBRANCH   9  12
ENDBRANCH   5   6
ENDBRANCH   3   5
BRANCH   1  23
HETATM   23  C   UNK N   1      28.017  17.862   4.365  0.00  0.00     0.060 A 
HETATM   24  C   UNK N   1      28.119  18.338   5.670  0.00  0.00     0.076 A 
HETATM   25  N   UNK N   1      28.836  17.835   6.685  0.00  0.00    -0.343 N 
HETATM   26  C   UNK N   1      27.432  19.434   6.096  0.00  0.00     0.061 A 
HETATM   27  C   UNK N   1      28.559  18.665   7.724  0.00  0.00     0.085 A 
HETATM   28  H   UNK N   1      29.425  17.046   6.679  0.00  0.00     0.167 HD
HETATM   29  N   UNK N   1      27.706  19.667   7.386  0.00  0.00    -0.344 N 
ATOM     30  HN  UNK N   1      27.356  20.422   7.977  1.00  0.00     0.167 HD
HETATM   31  C   UNK N   1      26.576  20.147   5.263  0.00  0.00     0.032 A 
HETATM   32  C   UNK N   1      26.429  19.692   3.941  0.00  0.00     0.003 A 
HETATM   33  C   UNK N   1      27.144  18.557   3.494  0.00  0.00     0.019 A 
BRANCH  27  34
HETATM   34  C   UNK N   1      29.102  18.480   9.108  0.00  0.00     0.045 C 
HETATM   35  C   UNK N   1      28.563  17.203   9.721  0.00  0.00     0.017 C 
HETATM   36  C   UNK N   1      30.621  18.407   9.095  0.00  0.00     0.017 C 
ENDBRANCH  27  34
ENDBRANCH   1  23
TORSDOF 7
ENDMDL
MODEL 3
REMARK VINA RESULT:      -7.9      2.559     11.076
REMARK  7 active torsions:
REMARK  status: ('A' for Active; 'I' for Inactive)
REMARK    1  A    between atoms: C_2  and  C_4 
REMARK    2  A    between atoms: C_7  and  C_14 
REMARK       I    between atoms: C_14  and  N_16 
REMARK    3  A    between atoms: N_16  and  C_17 
REMARK    4  A    between atoms: C_17  and  C_18 
REMARK    5  A    between atoms: N_21  and  C_24 
REMARK    6  A    between atoms: C_24  and  C_25 
REMARK       I    between atoms: N_28  and  C_31 
REMARK    7  A    between atoms: C_31  and  O_33 
ROOT
HETATM    1  C   UNK N   1      33.205  17.809   8.313  0.00  0.00     0.254 C 
HETATM    2  O   UNK N   1      33.964  18.351   7.524  0.00  0.00    -0.268 OA
HETATM    3  N   UNK N   1      33.682  17.196   9.412  0.00  0.00    -0.356 N 
HETATM    4  H   UNK N   1      33.020  16.837  10.047  0.00  0.00     0.162 HD
ENDROOT
BRANCH   3   5
HETATM    5  C   UNK N   1      35.074  17.015   9.746  0.00  0.00     0.127 C 
BRANCH   5   6
HETATM    6  C   UNK N   1      35.313  15.523  10.016  0.00  0.00     0.007 C 
HETATM    7  C   UNK N   1      34.238  14.946  10.954  0.00  0.00     0.036 C 
HETATM    8  C   UNK N   1      34.623  13.529  11.435  0.00  0.00     0.273 C 
HETATM    9  N   UNK N   1      35.961  13.570  12.028  0.00  0.00     0.088 N 
HETATM   10  C   UNK N   1      36.893  13.870  10.957  0.00  0.00     0.273 C 
HETATM   11  C   UNK N   1      36.714  15.313  10.604  0.00  0.00     0.036 C 
BRANCH   9  12
HETATM   12  C   UNK N   1      36.365  12.277  12.556  0.00  0.00     0.277 C 
BRANCH  12  13
HETATM   13  C   UNK N   1      37.221  12.456  13.825  0.00  0.00     0.017 C 
HETATM   14  C   UNK N   1      36.555  13.421  14.812  0.00  0.00     0.026 C 
HETATM   15  C   UNK N   1      35.390  12.751  15.548  0.00  0.00     0.128 C 
HETATM   16  N   UNK N   1      35.839  11.511  16.149  0.00  0.00    -0.328 N 
HETATM   17  C   UNK N   1      36.410  10.525  15.259  0.00  0.00     0.128 C 
HETATM   18  C   UNK N   1      35.764  11.246  17.496  0.00  0.00     0.362 C 
HETATM   19  C   UNK N   1      37.608  11.145  14.540  0.00  0.00     0.026 C 
HETATM   20  O   UNK N   1      36.146  10.160  17.910  0.00  0.00    -0.238 OA
BRANCH  18  21
HETATM   21  O   UNK N   1      35.284  12.136  18.413  0.00  0.00    -0.309 OA
HETATM   22  C   UNK N   1      35.291  12.001  19.781  0.00  0.00     0.215 C 
ENDBRANCH  18  21
ENDBRANCH  12  13
ENDBRANCH   9  12
ENDBRANCH   5   6
ENDBRANCH   3   5
BRANCH   1  23
HETATM   23  C   UNK N   1      31.746  17.764   8.070  0.00  0.00     0.060 A 
HETATM   24  C   UNK N   1      31.192  17.297   6.880  0.00  0.00     0.076 A 
HETATM   25  N   UNK N   1      31.826  16.882   5.775  0.00  0.00    -0.343 N 
HETATM   26  C   UNK N   1      29.846  17.230   6.686  0.00  0.00     0.061 A 
HETATM   27  C   UNK N   1      30.820  16.561   4.921  0.00  0.00     0.085 A 
HETATM   28  H   UNK N   1      32.797  16.823   5.618  0.00  0.00     0.167 HD
HETATM   29  N   UNK N   1      29.589  16.755   5.461  0.00  0.00    -0.344 N 
ATOM     30  HN  UNK N   1      28.679  16.578   5.033  1.00  0.00     0.167 HD
HETATM   31  C   UNK N   1      28.932  17.631   7.655  0.00  0.00     0.032 A 
HETATM   32  C   UNK N   1      29.447  18.125   8.867  0.00  0.00     0.003 A 
HETATM   33  C   UNK N   1      30.843  18.192   9.074  0.00  0.00     0.019 A 
BRANCH  27  34
HETATM   34  C   UNK N   1      31.035  16.081   3.518  0.00  0.00     0.045 C 
HETATM   35  C   UNK N   1      29.738  16.138   2.735  0.00  0.00     0.017 C 
HETATM   36  C   UNK N   1      32.071  16.933   2.801  0.00  0.00     0.017 C 
ENDBRANCH  27  34
ENDBRANCH   1  23
TORSDOF 7
ENDMDL
MODEL 4
REMARK VINA RESULT:      -7.7      2.048      3.489
REMARK  7 active torsions:
REMARK  status: ('A' for Active; 'I' for Inactive)
REMARK    1  A    between atoms: C_2  and  C_4 
REMARK    2  A    between atoms: C_7  and  C_14 
REMARK       I    between atoms: C_14  and  N_16 
REMARK    3  A    between atoms: N_16  and  C_17 
REMARK    4  A    between atoms: C_17  and  C_18 
REMARK    5  A    between atoms: N_21  and  C_24 
REMARK    6  A    between atoms: C_24  and  C_25 
REMARK       I    between atoms: N_28  and  C_31 
REMARK    7  A    between atoms: C_31  and  O_33 
ROOT
HETATM    1  C   UNK N   1      35.572  15.717  10.236  0.00  0.00     0.254 C 
HETATM    2  O   UNK N   1      36.432  16.440  10.717  0.00  0.00    -0.268 OA
HETATM    3  N   UNK N   1      34.732  16.185   9.294  0.00  0.00    -0.356 N 
HETATM    4  H   UNK N   1      34.106  15.539   8.894  0.00  0.00     0.162 HD
ENDROOT
BRANCH   3   5
HETATM    5  C   UNK N   1      34.663  17.545   8.818  0.00  0.00     0.127 C 
BRANCH   5   6
HETATM    6  C   UNK N   1      33.335  17.725   8.070  0.00  0.00     0.007 C 
HETATM    7  C   UNK N   1      32.173  17.053   8.824  0.00  0.00     0.036 C 
HETATM    8  C   UNK N   1      30.899  17.001   7.952  0.00  0.00     0.273 C 
HETATM    9  N   UNK N   1      31.219  16.363   6.673  0.00  0.00     0.088 N 
HETATM   10  C   UNK N   1      32.123  17.250   5.967  0.00  0.00     0.273 C 
HETATM   11  C   UNK N   1      33.453  17.163   6.648  0.00  0.00     0.036 C 
BRANCH   9  12
HETATM   12  C   UNK N   1      30.048  16.228   5.822  0.00  0.00     0.277 C 
BRANCH  12  13
HETATM   13  C   UNK N   1      28.932  17.186   6.286  0.00  0.00     0.017 C 
HETATM   14  C   UNK N   1      28.777  18.365   5.320  0.00  0.00     0.026 C 
HETATM   15  C   UNK N   1      28.050  17.946   4.038  0.00  0.00     0.128 C 
HETATM   16  N   UNK N   1      26.800  17.293   4.375  0.00  0.00    -0.328 N 
HETATM   17  C   UNK N   1      26.884  16.126   5.224  0.00  0.00     0.128 C 
HETATM   18  C   UNK N   1      25.570  17.735   3.949  0.00  0.00     0.362 C 
HETATM   19  C   UNK N   1      27.564  16.518   6.536  0.00  0.00     0.026 C 
HETATM   20  O   UNK N   1      24.571  17.104   4.264  0.00  0.00    -0.238 OA
BRANCH  18  21
HETATM   21  O   UNK N   1      25.395  18.853   3.185  0.00  0.00    -0.309 OA
HETATM   22  C   UNK N   1      25.117  20.123   3.629  0.00  0.00     0.215 C 
ENDBRANCH  18  21
ENDBRANCH  12  13
ENDBRANCH   9  12
ENDBRANCH   5   6
ENDBRANCH   3   5
BRANCH   1  23
HETATM   23  C   UNK N   1      35.391  14.323  10.700  0.00  0.00     0.060 A 
HETATM   24  C   UNK N   1      35.689  13.914  11.998  0.00  0.00     0.076 A 
HETATM   25  N   UNK N   1      36.218  14.636  12.996  0.00  0.00    -0.343 N 
HETATM   26  C   UNK N   1      35.483  12.635  12.418  0.00  0.00     0.061 A 
HETATM   27  C   UNK N   1      36.316  13.752  14.022  0.00  0.00     0.085 A 
HETATM   28  H   UNK N   1      36.475  15.586  12.987  0.00  0.00     0.167 HD
HETATM   29  N   UNK N   1      35.859  12.514  13.698  0.00  0.00    -0.344 N 
ATOM     30  HN  UNK N   1      35.812  11.685  14.291  1.00  0.00     0.167 HD
HETATM   31  C   UNK N   1      34.972  11.649  11.581  0.00  0.00     0.032 A 
HETATM   32  C   UNK N   1      34.673  12.013  10.257  0.00  0.00     0.003 A 
HETATM   33  C   UNK N   1      34.881  13.341   9.818  0.00  0.00     0.019 A 
BRANCH  27  34
HETATM   34  C   UNK N   1      36.900  14.086  15.361  0.00  0.00     0.045 C 
HETATM   35  C   UNK N   1      37.262  15.557  15.426  0.00  0.00     0.017 C 
HETATM   36  C   UNK N   1      35.915  13.780  16.479  0.00  0.00     0.017 C 
ENDBRANCH  27  34
ENDBRANCH   1  23
TORSDOF 7
ENDMDL
MODEL 5
REMARK VINA RESULT:      -7.7     17.471     21.276
REMARK  7 active torsions:
REMARK  status: ('A' for Active; 'I' for Inactive)
REMARK    1  A    between atoms: C_2  and  C_4 
REMARK    2  A    between atoms: C_7  and  C_14 
REMARK       I    between atoms: C_14  and  N_16 
REMARK    3  A    between atoms: N_16  and  C_17 
REMARK    4  A    between atoms: C_17  and  C_18 
REMARK    5  A    between atoms: N_21  and  C_24 
REMARK    6  A    between atoms: C_24  and  C_25 
REMARK       I    between atoms: N_28  and  C_31 
REMARK    7  A    between atoms: C_31  and  O_33 
ROOT
HETATM    1  C   UNK N   1      27.839  24.226  -3.131  0.00  0.00     0.254 C 
HETATM    2  O   UNK N   1      27.396  23.559  -2.208  0.00  0.00    -0.268 OA
HETATM    3  N   UNK N   1      29.158  24.235  -3.399  0.00  0.00    -0.356 N 
HETATM    4  H   UNK N   1      29.448  24.735  -4.196  0.00  0.00     0.162 HD
ENDROOT
BRANCH   3   5
HETATM    5  C   UNK N   1      30.185  23.579  -2.627  0.00  0.00     0.127 C 
BRANCH   5   6
HETATM    6  C   UNK N   1      30.953  22.631  -3.558  0.00  0.00     0.007 C 
HETATM    7  C   UNK N   1      31.107  23.234  -4.967  0.00  0.00     0.036 C 
HETATM    8  C   UNK N   1      31.638  22.183  -5.967  0.00  0.00     0.273 C 
HETATM    9  N   UNK N   1      30.775  21.001  -5.924  0.00  0.00     0.088 N 
HETATM   10  C   UNK N   1      30.945  20.396  -4.616  0.00  0.00     0.273 C 
HETATM   11  C   UNK N   1      30.245  21.272  -3.627  0.00  0.00     0.036 C 
BRANCH   9  12
HETATM   12  C   UNK N   1      31.184  19.991  -6.886  0.00  0.00     0.277 C 
BRANCH  12  13
HETATM   13  C   UNK N   1      29.951  19.293  -7.493  0.00  0.00     0.017 C 
HETATM   14  C   UNK N   1      28.844  20.303  -7.811  0.00  0.00     0.026 C 
HETATM   15  C   UNK N   1      29.164  21.103  -9.079  0.00  0.00     0.128 C 
HETATM   16  N   UNK N   1      29.463  20.195 -10.168  0.00  0.00    -0.328 N 
HETATM   17  C   UNK N   1      30.550  19.264  -9.960  0.00  0.00     0.128 C 
HETATM   18  C   UNK N   1      28.765  20.168 -11.352  0.00  0.00     0.362 C 
HETATM   19  C   UNK N   1      30.241  18.415  -8.727  0.00  0.00     0.026 C 
HETATM   20  O   UNK N   1      29.106  19.383 -12.225  0.00  0.00    -0.238 OA
BRANCH  18  21
HETATM   21  O   UNK N   1      27.697  20.978 -11.615  0.00  0.00    -0.309 OA
HETATM   22  C   UNK N   1      26.453  20.591 -12.052  0.00  0.00     0.215 C 
ENDBRANCH  18  21
ENDBRANCH  12  13
ENDBRANCH   9  12
ENDBRANCH   5   6
ENDBRANCH   3   5
BRANCH   1  23
HETATM   23  C   UNK N   1      26.956  25.082  -3.954  0.00  0.00     0.060 A 
HETATM   24  C   UNK N   1      26.458  24.684  -5.193  0.00  0.00     0.076 A 
HETATM   25  N   UNK N   1      26.710  23.552  -5.865  0.00  0.00    -0.343 N 
HETATM   26  C   UNK N   1      25.618  25.470  -5.921  0.00  0.00     0.061 A 
HETATM   27  C   UNK N   1      25.993  23.685  -7.010  0.00  0.00     0.085 A 
HETATM   28  H   UNK N   1      27.282  22.799  -5.592  0.00  0.00     0.167 HD
HETATM   29  N   UNK N   1      25.301  24.853  -7.066  0.00  0.00    -0.344 N 
ATOM     30  HN  UNK N   1      24.682  25.183  -7.808  1.00  0.00     0.167 HD
HETATM   31  C   UNK N   1      25.208  26.726  -5.486  0.00  0.00     0.032 A 
HETATM   32  C   UNK N   1      25.700  27.176  -4.249  0.00  0.00     0.003 A 
HETATM   33  C   UNK N   1      26.568  26.361  -3.487  0.00  0.00     0.019 A 
BRANCH  27  34
HETATM   34  C   UNK N   1      25.989  22.675  -8.117  0.00  0.00     0.045 C 
HETATM   35  C   UNK N   1      24.811  21.731  -7.966  0.00  0.00     0.017 C 
HETATM   36  C   UNK N   1      25.896  23.351  -9.476  0.00  0.00     0.017 C 
ENDBRANCH  27  34
ENDBRANCH   1  23
TORSDOF 7
ENDMDL
MODEL 6
REMARK VINA RESULT:      -7.7      2.875     10.860
REMARK  7 active torsions:
REMARK  status: ('A' for Active; 'I' for Inactive)
REMARK    1  A    between atoms: C_2  and  C_4 
REMARK    2  A    between atoms: C_7  and  C_14 
REMARK       I    between atoms: C_14  and  N_16 
REMARK    3  A    between atoms: N_16  and  C_17 
REMARK    4  A    between atoms: C_17  and  C_18 
REMARK    5  A    between atoms: N_21  and  C_24 
REMARK    6  A    between atoms: C_24  and  C_25 
REMARK       I    between atoms: N_28  and  C_31 
REMARK    7  A    between atoms: C_31  and  O_33 
ROOT
HETATM    1  C   UNK N   1      33.890  17.609   8.677  0.00  0.00     0.254 C 
HETATM    2  O   UNK N   1      34.767  18.263   8.131  0.00  0.00    -0.268 OA
HETATM    3  N   UNK N   1      34.135  16.966   9.834  0.00  0.00    -0.356 N 
HETATM    4  H   UNK N   1      33.373  16.513  10.262  0.00  0.00     0.162 HD
ENDROOT
BRANCH   3   5
HETATM    5  C   UNK N   1      35.410  16.880  10.504  0.00  0.00     0.127 C 
BRANCH   5   6
HETATM    6  C   UNK N   1      35.677  15.405  10.836  0.00  0.00     0.007 C 
HETATM    7  C   UNK N   1      34.391  14.566  10.731  0.00  0.00     0.036 C 
HETATM    8  C   UNK N   1      34.601  13.152  11.318  0.00  0.00     0.273 C 
HETATM    9  N   UNK N   1      35.117  13.270  12.683  0.00  0.00     0.088 N 
HETATM   10  C   UNK N   1      36.448  13.839  12.588  0.00  0.00     0.273 C 
HETATM   11  C   UNK N   1      36.289  15.285  12.237  0.00  0.00     0.036 C 
BRANCH   9  12
HETATM   12  C   UNK N   1      35.283  11.973  13.318  0.00  0.00     0.277 C 
BRANCH  12  13
HETATM   13  C   UNK N   1      34.234  11.780  14.431  0.00  0.00     0.017 C 
HETATM   14  C   UNK N   1      34.293  10.361  15.007  0.00  0.00     0.026 C 
HETATM   15  C   UNK N   1      35.493  10.187  15.943  0.00  0.00     0.128 C 
HETATM   16  N   UNK N   1      35.486  11.231  16.948  0.00  0.00    -0.328 N 
HETATM   17  C   UNK N   1      35.507  12.595  16.471  0.00  0.00     0.128 C 
HETATM   18  C   UNK N   1      35.443  10.986  18.301  0.00  0.00     0.362 C 
HETATM   19  C   UNK N   1      34.294  12.820  15.569  0.00  0.00     0.026 C 
HETATM   20  O   UNK N   1      35.465  11.931  19.076  0.00  0.00    -0.238 OA
BRANCH  18  21
HETATM   21  O   UNK N   1      35.374   9.732  18.837  0.00  0.00    -0.309 OA
HETATM   22  C   UNK N   1      34.248   9.084  19.284  0.00  0.00     0.215 C 
ENDBRANCH  18  21
ENDBRANCH  12  13
ENDBRANCH   9  12
ENDBRANCH   5   6
ENDBRANCH   3   5
BRANCH   1  23
HETATM   23  C   UNK N   1      32.550  17.460   8.068  0.00  0.00     0.060 A 
HETATM   24  C   UNK N   1      32.336  16.786   6.867  0.00  0.00     0.076 A 
HETATM   25  N   UNK N   1      33.244  16.231   6.053  0.00  0.00    -0.343 N 
HETATM   26  C   UNK N   1      31.091  16.628   6.339  0.00  0.00     0.061 A 
HETATM   27  C   UNK N   1      32.503  15.734   5.029  0.00  0.00     0.085 A 
HETATM   28  H   UNK N   1      34.221  16.192   6.170  0.00  0.00     0.167 HD
HETATM   29  N   UNK N   1      31.172  15.954   5.185  0.00  0.00    -0.344 N 
ATOM     30  HN  UNK N   1      30.410  15.671   4.567  1.00  0.00     0.167 HD
HETATM   31  C   UNK N   1      29.950  17.135   6.953  0.00  0.00     0.032 A 
HETATM   32  C   UNK N   1      30.121  17.838   8.159  0.00  0.00     0.003 A 
HETATM   33  C   UNK N   1      31.411  18.000   8.713  0.00  0.00     0.019 A 
BRANCH  27  34
HETATM   34  C   UNK N   1      33.087  15.048   3.831  0.00  0.00     0.045 C 
HETATM   35  C   UNK N   1      33.374  16.054   2.734  0.00  0.00     0.017 C 
HETATM   36  C   UNK N   1      34.384  14.336   4.186  0.00  0.00     0.017 C 
ENDBRANCH  27  34
ENDBRANCH   1  23
TORSDOF 7
ENDMDL
MODEL 7
REMARK VINA RESULT:      -7.7      2.966     10.713
REMARK  7 active torsions:
REMARK  status: ('A' for Active; 'I' for Inactive)
REMARK    1  A    between atoms: C_2  and  C_4 
REMARK    2  A    between atoms: C_7  and  C_14 
REMARK       I    between atoms: C_14  and  N_16 
REMARK    3  A    between atoms: N_16  and  C_17 
REMARK    4  A    between atoms: C_17  and  C_18 
REMARK    5  A    between atoms: N_21  and  C_24 
REMARK    6  A    between atoms: C_24  and  C_25 
REMARK       I    between atoms: N_28  and  C_31 
REMARK    7  A    between atoms: C_31  and  O_33 
ROOT
HETATM    1  C   UNK N   1      34.815  16.300   9.172  0.00  0.00     0.254 C 
HETATM    2  O   UNK N   1      34.718  17.284   9.890  0.00  0.00    -0.268 OA
HETATM    3  N   UNK N   1      35.656  15.298   9.491  0.00  0.00    -0.356 N 
HETATM    4  H   UNK N   1      35.642  14.501   8.913  0.00  0.00     0.162 HD
ENDROOT
BRANCH   3   5
HETATM    5  C   UNK N   1      36.577  15.285  10.602  0.00  0.00     0.127 C 
BRANCH   5   6
HETATM    6  C   UNK N   1      36.053  14.291  11.647  0.00  0.00     0.007 C 
HETATM    7  C   UNK N   1      36.083  14.899  13.062  0.00  0.00     0.036 C 
HETATM    8  C   UNK N   1      35.811  13.821  14.135  0.00  0.00     0.273 C 
HETATM    9  N   UNK N   1      36.750  12.712  13.951  0.00  0.00     0.088 N 
HETATM   10  C   UNK N   1      36.418  12.078  12.689  0.00  0.00     0.273 C 
HETATM   11  C   UNK N   1      36.872  12.996  11.598  0.00  0.00     0.036 C 
BRANCH   9  12
HETATM   12  C   UNK N   1      36.589  11.686  14.967  0.00  0.00     0.277 C 
BRANCH  12  13
HETATM   13  C   UNK N   1      35.200  11.795  15.628  0.00  0.00     0.017 C 
HETATM   14  C   UNK N   1      34.457  10.456  15.579  0.00  0.00     0.026 C 
HETATM   15  C   UNK N   1      35.007   9.473  16.618  0.00  0.00     0.128 C 
HETATM   16  N   UNK N   1      35.012  10.096  17.926  0.00  0.00    -0.328 N 
HETATM   17  C   UNK N   1      35.760  11.326  18.060  0.00  0.00     0.128 C 
HETATM   18  C   UNK N   1      34.339   9.591  19.014  0.00  0.00     0.362 C 
HETATM   19  C   UNK N   1      35.206  12.349  17.067  0.00  0.00     0.026 C 
HETATM   20  O   UNK N   1      34.421  10.173  20.086  0.00  0.00    -0.238 OA
BRANCH  18  21
HETATM   21  O   UNK N   1      33.571   8.462  18.967  0.00  0.00    -0.309 OA
HETATM   22  C   UNK N   1      32.451   8.191  19.715  0.00  0.00     0.215 C 
ENDBRANCH  18  21
ENDBRANCH  12  13
ENDBRANCH   9  12
ENDBRANCH   5   6
ENDBRANCH   3   5
BRANCH   1  23
HETATM   23  C   UNK N   1      34.054  16.192   7.907  0.00  0.00     0.060 A 
HETATM   24  C   UNK N   1      32.728  16.603   7.786  0.00  0.00     0.076 A 
HETATM   25  N   UNK N   1      31.918  17.087   8.738  0.00  0.00    -0.343 N 
HETATM   26  C   UNK N   1      32.053  16.528   6.606  0.00  0.00     0.061 A 
HETATM   27  C   UNK N   1      30.744  17.303   8.089  0.00  0.00     0.085 A 
HETATM   28  H   UNK N   1      32.125  17.248   9.687  0.00  0.00     0.167 HD
HETATM   29  N   UNK N   1      30.803  16.979   6.771  0.00  0.00    -0.344 N 
ATOM     30  HN  UNK N   1      30.066  17.060   6.070  1.00  0.00     0.167 HD
HETATM   31  C   UNK N   1      32.634  16.030   5.445  0.00  0.00     0.032 A 
HETATM   32  C   UNK N   1      33.966  15.588   5.525  0.00  0.00     0.003 A 
HETATM   33  C   UNK N   1      34.672  15.667   6.747  0.00  0.00     0.019 A 
BRANCH  27  34
HETATM   34  C   UNK N   1      29.501  17.809   8.756  0.00  0.00     0.045 C 
HETATM   35  C   UNK N   1      29.854  18.804   9.845  0.00  0.00     0.017 C 
HETATM   36  C   UNK N   1      28.582  18.492   7.755  0.00  0.00     0.017 C 
ENDBRANCH  27  34
ENDBRANCH   1  23
TORSDOF 7
ENDMDL
MODEL 8
REMARK VINA RESULT:      -7.4      5.548     11.642
REMARK  7 active torsions:
REMARK  status: ('A' for Active; 'I' for Inactive)
REMARK    1  A    between atoms: C_2  and  C_4 
REMARK    2  A    between atoms: C_7  and  C_14 
REMARK       I    between atoms: C_14  and  N_16 
REMARK    3  A    between atoms: N_16  and  C_17 
REMARK    4  A    between atoms: C_17  and  C_18 
REMARK    5  A    between atoms: N_21  and  C_24 
REMARK    6  A    between atoms: C_24  and  C_25 
REMARK       I    between atoms: N_28  and  C_31 
REMARK    7  A    between atoms: C_31  and  O_33 
ROOT
HETATM    1  C   UNK N   1      22.747  15.696   5.615  0.00  0.00     0.254 C 
HETATM    2  O   UNK N   1      22.456  15.003   4.651  0.00  0.00    -0.268 OA
HETATM    3  N   UNK N   1      23.935  16.326   5.673  0.00  0.00    -0.356 N 
HETATM    4  H   UNK N   1      24.086  16.924   6.440  0.00  0.00     0.162 HD
ENDROOT
BRANCH   3   5
HETATM    5  C   UNK N   1      25.007  16.206   4.714  0.00  0.00     0.127 C 
BRANCH   5   6
HETATM    6  C   UNK N   1      26.190  17.047   5.212  0.00  0.00     0.007 C 
HETATM    7  C   UNK N   1      27.193  17.328   4.078  0.00  0.00     0.036 C 
HETATM    8  C   UNK N   1      28.500  17.938   4.630  0.00  0.00     0.273 C 
HETATM    9  N   UNK N   1      29.030  17.066   5.681  0.00  0.00     0.088 N 
HETATM   10  C   UNK N   1      28.095  17.117   6.789  0.00  0.00     0.273 C 
HETATM   11  C   UNK N   1      26.883  16.338   6.382  0.00  0.00     0.036 C 
BRANCH   9  12
HETATM   12  C   UNK N   1      30.296  17.552   6.207  0.00  0.00     0.277 C 
BRANCH  12  13
HETATM   13  C   UNK N   1      30.640  16.838   7.529  0.00  0.00     0.017 C 
HETATM   14  C   UNK N   1      31.572  15.646   7.288  0.00  0.00     0.026 C 
HETATM   15  C   UNK N   1      33.010  16.105   7.023  0.00  0.00     0.128 C 
HETATM   16  N   UNK N   1      33.446  16.989   8.086  0.00  0.00    -0.328 N 
HETATM   17  C   UNK N   1      32.651  18.174   8.315  0.00  0.00     0.128 C 
HETATM   18  C   UNK N   1      34.544  16.745   8.877  0.00  0.00     0.362 C 
HETATM   19  C   UNK N   1      31.216  17.751   8.631  0.00  0.00     0.026 C 
HETATM   20  O   UNK N   1      34.850  17.561   9.735  0.00  0.00    -0.238 OA
BRANCH  18  21
HETATM   21  O   UNK N   1      35.322  15.630   8.761  0.00  0.00    -0.309 OA
HETATM   22  C   UNK N   1      35.226  14.474   9.498  0.00  0.00     0.215 C 
ENDBRANCH  18  21
ENDBRANCH  12  13
ENDBRANCH   9  12
ENDBRANCH   5   6
ENDBRANCH   3   5
BRANCH   1  23
HETATM   23  C   UNK N   1      21.832  15.829   6.771  0.00  0.00     0.060 A 
HETATM   24  C   UNK N   1      21.853  14.955   7.856  0.00  0.00     0.076 A 
HETATM   25  N   UNK N   1      22.611  13.864   8.030  0.00  0.00    -0.343 N 
HETATM   26  C   UNK N   1      21.027  15.113   8.927  0.00  0.00     0.061 A 
HETATM   27  C   UNK N   1      22.216  13.380   9.236  0.00  0.00     0.085 A 
HETATM   28  H   UNK N   1      23.295  13.497   7.424  0.00  0.00     0.167 HD
HETATM   29  N   UNK N   1      21.250  14.138   9.817  0.00  0.00    -0.344 N 
ATOM     30  HN  UNK N   1      20.798  13.997  10.722  1.00  0.00     0.167 HD
HETATM   31  C   UNK N   1      20.101  16.148   9.009  0.00  0.00     0.032 A 
HETATM   32  C   UNK N   1      20.033  17.044   7.927  0.00  0.00     0.003 A 
HETATM   33  C   UNK N   1      20.892  16.886   6.816  0.00  0.00     0.019 A 
BRANCH  27  34
HETATM   34  C   UNK N   1      22.756  12.125   9.851  0.00  0.00     0.045 C 
HETATM   35  C   UNK N   1      24.272  12.147   9.851  0.00  0.00     0.017 C 
HETATM   36  C   UNK N   1      22.275  11.967  11.285  0.00  0.00     0.017 C 
ENDBRANCH  27  34
ENDBRANCH   1  23
TORSDOF 7
ENDMDL
MODEL 9
REMARK VINA RESULT:      -7.3      2.552     11.058
REMARK  7 active torsions:
REMARK  status: ('A' for Active; 'I' for Inactive)
REMARK    1  A    between atoms: C_2  and  C_4 
REMARK    2  A    between atoms: C_7  and  C_14 
REMARK       I    between atoms: C_14  and  N_16 
REMARK    3  A    between atoms: N_16  and  C_17 
REMARK    4  A    between atoms: C_17  and  C_18 
REMARK    5  A    between atoms: N_21  and  C_24 
REMARK    6  A    between atoms: C_24  and  C_25 
REMARK       I    between atoms: N_28  and  C_31 
REMARK    7  A    between atoms: C_31  and  O_33 
ROOT
HETATM    1  C   UNK N   1      31.540  16.556   6.899  0.00  0.00     0.254 C 
HETATM    2  O   UNK N   1      31.378  15.845   5.919  0.00  0.00    -0.268 OA
HETATM    3  N   UNK N   1      32.770  16.752   7.409  0.00  0.00    -0.356 N 
HETATM    4  H   UNK N   1      32.847  17.390   8.156  0.00  0.00     0.162 HD
ENDROOT
BRANCH   3   5
HETATM    5  C   UNK N   1      33.985  16.115   6.963  0.00  0.00     0.127 C 
BRANCH   5   6
HETATM    6  C   UNK N   1      34.944  16.022   8.158  0.00  0.00     0.007 C 
HETATM    7  C   UNK N   1      35.567  14.619   8.267  0.00  0.00     0.036 C 
HETATM    8  C   UNK N   1      36.316  14.446   9.608  0.00  0.00     0.273 C 
HETATM    9  N   UNK N   1      35.409  14.775  10.710  0.00  0.00     0.088 N 
HETATM   10  C   UNK N   1      35.125  16.194  10.618  0.00  0.00     0.273 C 
HETATM   11  C   UNK N   1      34.208  16.389   9.452  0.00  0.00     0.036 C 
BRANCH   9  12
HETATM   12  C   UNK N   1      36.034  14.577  12.008  0.00  0.00     0.277 C 
BRANCH  12  13
HETATM   13  C   UNK N   1      35.190  13.618  12.871  0.00  0.00     0.017 C 
HETATM   14  C   UNK N   1      35.104  12.228  12.231  0.00  0.00     0.026 C 
HETATM   15  C   UNK N   1      36.406  11.444  12.419  0.00  0.00     0.128 C 
HETATM   16  N   UNK N   1      36.768  11.424  13.822  0.00  0.00    -0.328 N 
HETATM   17  C   UNK N   1      36.940  12.706  14.469  0.00  0.00     0.128 C 
HETATM   18  C   UNK N   1      36.932  10.270  14.552  0.00  0.00     0.362 C 
HETATM   19  C   UNK N   1      35.640  13.500  14.342  0.00  0.00     0.026 C 
HETATM   20  O   UNK N   1      37.262  10.351  15.726  0.00  0.00    -0.238 OA
BRANCH  18  21
HETATM   21  O   UNK N   1      36.744   9.020  14.035  0.00  0.00    -0.309 OA
HETATM   22  C   UNK N   1      37.716   8.112  13.689  0.00  0.00     0.215 C 
ENDBRANCH  18  21
ENDBRANCH  12  13
ENDBRANCH   9  12
ENDBRANCH   5   6
ENDBRANCH   3   5
BRANCH   1  23
HETATM   23  C   UNK N   1      30.392  17.188   7.589  0.00  0.00     0.060 A 
HETATM   24  C   UNK N   1      29.330  17.776   6.904  0.00  0.00     0.076 A 
HETATM   25  N   UNK N   1      29.177  17.929   5.582  0.00  0.00    -0.343 N 
HETATM   26  C   UNK N   1      28.265  18.322   7.554  0.00  0.00     0.061 A 
HETATM   27  C   UNK N   1      27.989  18.577   5.464  0.00  0.00     0.085 A 
HETATM   28  H   UNK N   1      29.784  17.640   4.863  0.00  0.00     0.167 HD
HETATM   29  N   UNK N   1      27.399  18.820   6.663  0.00  0.00    -0.344 N 
ATOM     30  HN  UNK N   1      26.504  19.277   6.844  1.00  0.00     0.167 HD
HETATM   31  C   UNK N   1      28.168  18.339   8.942  0.00  0.00     0.032 A 
HETATM   32  C   UNK N   1      29.226  17.772   9.673  0.00  0.00     0.003 A 
HETATM   33  C   UNK N   1      30.331  17.200   9.003  0.00  0.00     0.019 A 
BRANCH  27  34
HETATM   34  C   UNK N   1      27.401  19.013   4.156  0.00  0.00     0.045 C 
HETATM   35  C   UNK N   1      26.334  18.035   3.704  0.00  0.00     0.017 C 
HETATM   36  C   UNK N   1      26.773  20.394   4.272  0.00  0.00     0.017 C 
ENDBRANCH  27  34
ENDBRANCH   1  23
TORSDOF 7
ENDMDL
