MODEL 1
REMARK VINA RESULT:      -6.4      0.000      0.000
REMARK  5 active torsions:
REMARK  status: ('A' for Active; 'I' for Inactive)
REMARK    1  A    between atoms: O_2  and  C_3 
REMARK    2  A    between atoms: C_3  and  C_5 
REMARK    3  A    between atoms: C_8  and  C_11 
REMARK    4  A    between atoms: C_14  and  C_17 
REMARK    5  A    between atoms: C_17  and  O_19 
ROOT
HETATM    1  C   UNK N   1      25.626  19.706   3.709  0.00  0.00     0.039 A 
HETATM    2  C   UNK N   1      25.557  18.365   4.125  0.00  0.00     0.018 A 
HETATM    3  C   UNK N   1      26.613  17.795   4.853  0.00  0.00     0.013 A 
HETATM    4  C   UNK N   1      27.746  18.567   5.170  0.00  0.00    -0.026 A 
HETATM    5  C   UNK N   1      27.798  19.903   4.749  0.00  0.00     0.013 A 
HETATM    6  C   UNK N   1      26.753  20.466   4.028  0.00  0.00     0.018 A 
ENDROOT
BRANCH   4   7
HETATM    7  C   UNK N   1      28.887  18.015   5.937  0.00  0.00    -0.026 A 
HETATM    8  C   UNK N   1      29.951  17.339   5.312  0.00  0.00     0.013 A 
HETATM    9  C   UNK N   1      31.010  16.833   6.082  0.00  0.00     0.018 A 
HETATM   10  C   UNK N   1      31.012  16.999   7.478  0.00  0.00     0.039 A 
HETATM   11  C   UNK N   1      29.953  17.670   8.091  0.00  0.00     0.018 A 
HETATM   12  C   UNK N   1      28.905  18.171   7.330  0.00  0.00     0.013 A 
BRANCH  10  13
HETATM   13  C   UNK N   1      32.106  16.482   8.321  0.00  0.00     0.292 C 
HETATM   14  O   UNK N   1      32.181  15.285   8.565  0.00  0.00    -0.259 OA
BRANCH  13  15
HETATM   15  O   UNK N   1      33.024  17.348   8.819  0.00  0.00    -0.323 OA
HETATM   16  C   UNK N   1      33.769  18.186   8.023  0.00  0.00     0.213 C 
ENDBRANCH  13  15
ENDBRANCH  10  13
ENDBRANCH   4   7
BRANCH   1  17
HETATM   17  C   UNK N   1      24.538  20.339   2.943  0.00  0.00     0.292 C 
HETATM   18  O   UNK N   1      24.766  20.838   1.848  0.00  0.00    -0.259 OA
BRANCH  17  19
HETATM   19  O   UNK N   1      23.286  20.362   3.465  0.00  0.00    -0.323 OA
HETATM   20  C   UNK N   1      22.152  20.353   2.687  0.00  0.00     0.213 C 
ENDBRANCH  17  19
ENDBRANCH   1  17
TORSDOF 5
ENDMDL
MODEL 2
REMARK VINA RESULT:      -6.3      0.544      8.360
REMARK  5 active torsions:
REMARK  status: ('A' for Active; 'I' for Inactive)
REMARK    1  A    between atoms: O_2  and  C_3 
REMARK    2  A    between atoms: C_3  and  C_5 
REMARK    3  A    between atoms: C_8  and  C_11 
REMARK    4  A    between atoms: C_14  and  C_17 
REMARK    5  A    between atoms: C_17  and  O_19 
ROOT
HETATM    1  C   UNK N   1      30.863  17.162   7.759  0.00  0.00     0.039 A 
HETATM    2  C   UNK N   1      29.847  17.890   8.400  0.00  0.00     0.018 A 
HETATM    3  C   UNK N   1      28.791  18.438   7.654  0.00  0.00     0.013 A 
HETATM    4  C   UNK N   1      28.748  18.259   6.260  0.00  0.00    -0.026 A 
HETATM    5  C   UNK N   1      29.770  17.530   5.636  0.00  0.00     0.013 A 
HETATM    6  C   UNK N   1      30.814  16.988   6.374  0.00  0.00     0.018 A 
ENDROOT
BRANCH   4   7
HETATM    7  C   UNK N   1      27.656  18.816   5.427  0.00  0.00    -0.026 A 
HETATM    8  C   UNK N   1      27.780  20.046   4.757  0.00  0.00     0.013 A 
HETATM    9  C   UNK N   1      26.717  20.532   3.979  0.00  0.00     0.018 A 
HETATM   10  C   UNK N   1      25.527  19.793   3.867  0.00  0.00     0.039 A 
HETATM   11  C   UNK N   1      25.411  18.572   4.535  0.00  0.00     0.018 A 
HETATM   12  C   UNK N   1      26.462  18.091   5.304  0.00  0.00     0.013 A 
BRANCH  10  13
HETATM   13  C   UNK N   1      24.389  20.269   3.060  0.00  0.00     0.292 C 
HETATM   14  O   UNK N   1      24.586  20.868   2.011  0.00  0.00    -0.259 OA
BRANCH  13  15
HETATM   15  O   UNK N   1      23.124  20.036   3.495  0.00  0.00    -0.323 OA
HETATM   16  C   UNK N   1      22.012  20.315   2.738  0.00  0.00     0.213 C 
ENDBRANCH  13  15
ENDBRANCH  10  13
ENDBRANCH   4   7
BRANCH   1  17
HETATM   17  C   UNK N   1      31.988  16.572   8.507  0.00  0.00     0.292 C 
HETATM   18  O   UNK N   1      31.914  15.423   8.925  0.00  0.00    -0.259 OA
BRANCH  17  19
HETATM   19  O   UNK N   1      33.101  17.316   8.725  0.00  0.00    -0.323 OA
HETATM   20  C   UNK N   1      34.269  16.785   9.219  0.00  0.00     0.213 C 
ENDBRANCH  17  19
ENDBRANCH   1  17
TORSDOF 5
ENDMDL
MODEL 3
REMARK VINA RESULT:      -6.2     10.391     15.972
REMARK  5 active torsions:
REMARK  status: ('A' for Active; 'I' for Inactive)
REMARK    1  A    between atoms: O_2  and  C_3 
REMARK    2  A    between atoms: C_3  and  C_5 
REMARK    3  A    between atoms: C_8  and  C_11 
REMARK    4  A    between atoms: C_14  and  C_17 
REMARK    5  A    between atoms: C_17  and  O_19 
ROOT
HETATM    1  C   UNK N   1      34.990  10.859  19.707  0.00  0.00     0.039 A 
HETATM    2  C   UNK N   1      35.167  12.252  19.649  0.00  0.00     0.018 A 
HETATM    3  C   UNK N   1      35.348  12.891  18.412  0.00  0.00     0.013 A 
HETATM    4  C   UNK N   1      35.353  12.136  17.225  0.00  0.00    -0.026 A 
HETATM    5  C   UNK N   1      35.175  10.748  17.301  0.00  0.00     0.013 A 
HETATM    6  C   UNK N   1      34.996  10.117  18.525  0.00  0.00     0.018 A 
ENDROOT
BRANCH   4   7
HETATM    7  C   UNK N   1      35.541  12.761  15.895  0.00  0.00    -0.026 A 
HETATM    8  C   UNK N   1      36.426  13.835  15.691  0.00  0.00     0.013 A 
HETATM    9  C   UNK N   1      36.569  14.394  14.411  0.00  0.00     0.018 A 
HETATM   10  C   UNK N   1      35.829  13.884  13.329  0.00  0.00     0.039 A 
HETATM   11  C   UNK N   1      34.953  12.818  13.539  0.00  0.00     0.018 A 
HETATM   12  C   UNK N   1      34.811  12.265  14.806  0.00  0.00     0.013 A 
BRANCH  10  13
HETATM   13  C   UNK N   1      35.952  14.443  11.971  0.00  0.00     0.292 C 
HETATM   14  O   UNK N   1      36.846  14.062  11.227  0.00  0.00    -0.259 OA
BRANCH  13  15
HETATM   15  O   UNK N   1      35.062  15.382  11.558  0.00  0.00    -0.323 OA
HETATM   16  C   UNK N   1      35.436  16.515  10.876  0.00  0.00     0.213 C 
ENDBRANCH  13  15
ENDBRANCH  10  13
ENDBRANCH   4   7
BRANCH   1  17
HETATM   17  C   UNK N   1      34.797  10.152  20.986  0.00  0.00     0.292 C 
HETATM   18  O   UNK N   1      35.764   9.834  21.666  0.00  0.00    -0.259 OA
BRANCH  17  19
HETATM   19  O   UNK N   1      33.537   9.861  21.398  0.00  0.00    -0.323 OA
HETATM   20  C   UNK N   1      32.831  10.661  22.265  0.00  0.00     0.213 C 
ENDBRANCH  17  19
ENDBRANCH   1  17
TORSDOF 5
ENDMDL
MODEL 4
REMARK VINA RESULT:      -6.2     10.373     14.963
REMARK  5 active torsions:
REMARK  status: ('A' for Active; 'I' for Inactive)
REMARK    1  A    between atoms: O_2  and  C_3 
REMARK    2  A    between atoms: C_3  and  C_5 
REMARK    3  A    between atoms: C_8  and  C_11 
REMARK    4  A    between atoms: C_14  and  C_17 
REMARK    5  A    between atoms: C_17  and  O_19 
ROOT
HETATM    1  C   UNK N   1      35.787  13.811  13.273  0.00  0.00     0.039 A 
HETATM    2  C   UNK N   1      36.535  14.338  14.340  0.00  0.00     0.018 A 
HETATM    3  C   UNK N   1      36.409  13.793  15.628  0.00  0.00     0.013 A 
HETATM    4  C   UNK N   1      35.532  12.717  15.854  0.00  0.00    -0.026 A 
HETATM    5  C   UNK N   1      34.794  12.204  14.779  0.00  0.00     0.013 A 
HETATM    6  C   UNK N   1      34.919  12.743  13.505  0.00  0.00     0.018 A 
ENDROOT
BRANCH   4   7
HETATM    7  C   UNK N   1      35.362  12.107  17.194  0.00  0.00    -0.026 A 
HETATM    8  C   UNK N   1      35.341  12.878  18.370  0.00  0.00     0.013 A 
HETATM    9  C   UNK N   1      35.177  12.253  19.616  0.00  0.00     0.018 A 
HETATM   10  C   UNK N   1      35.034  10.856  19.694  0.00  0.00     0.039 A 
HETATM   11  C   UNK N   1      35.057  10.098  18.523  0.00  0.00     0.018 A 
HETATM   12  C   UNK N   1      35.219  10.716  17.289  0.00  0.00     0.013 A 
BRANCH  10  13
HETATM   13  C   UNK N   1      34.861  10.163  20.984  0.00  0.00     0.292 C 
HETATM   14  O   UNK N   1      35.836   9.890  21.672  0.00  0.00    -0.259 OA
BRANCH  13  15
HETATM   15  O   UNK N   1      33.610   9.834  21.396  0.00  0.00    -0.323 OA
HETATM   16  C   UNK N   1      32.861  10.638  22.222  0.00  0.00     0.213 C 
ENDBRANCH  13  15
ENDBRANCH  10  13
ENDBRANCH   4   7
BRANCH   1  17
HETATM   17  C   UNK N   1      35.892  14.355  11.907  0.00  0.00     0.292 C 
HETATM   18  O   UNK N   1      35.761  13.617  10.939  0.00  0.00    -0.259 OA
BRANCH  17  19
HETATM   19  O   UNK N   1      36.135  15.680  11.738  0.00  0.00    -0.323 OA
HETATM   20  C   UNK N   1      35.429  16.462  10.856  0.00  0.00     0.213 C 
ENDBRANCH  17  19
ENDBRANCH   1  17
TORSDOF 5
ENDMDL
MODEL 5
REMARK VINA RESULT:      -6.0     10.326     14.868
REMARK  5 active torsions:
REMARK  status: ('A' for Active; 'I' for Inactive)
REMARK    1  A    between atoms: O_2  and  C_3 
REMARK    2  A    between atoms: C_3  and  C_5 
REMARK    3  A    between atoms: C_8  and  C_11 
REMARK    4  A    between atoms: C_14  and  C_17 
REMARK    5  A    between atoms: C_17  and  O_19 
ROOT
HETATM    1  C   UNK N   1      35.869  13.970  13.293  0.00  0.00     0.039 A 
HETATM    2  C   UNK N   1      34.979  12.888  13.390  0.00  0.00     0.018 A 
HETATM    3  C   UNK N   1      34.795  12.232  14.618  0.00  0.00     0.013 A 
HETATM    4  C   UNK N   1      35.503  12.658  15.756  0.00  0.00    -0.026 A 
HETATM    5  C   UNK N   1      36.388  13.739  15.641  0.00  0.00     0.013 A 
HETATM    6  C   UNK N   1      36.569  14.388  14.427  0.00  0.00     0.018 A 
ENDROOT
BRANCH   4   7
HETATM    7  C   UNK N   1      35.346  12.000  17.075  0.00  0.00    -0.026 A 
HETATM    8  C   UNK N   1      35.209  10.606  17.204  0.00  0.00     0.013 A 
HETATM    9  C   UNK N   1      35.062  10.030  18.475  0.00  0.00     0.018 A 
HETATM   10  C   UNK N   1      35.052  10.841  19.623  0.00  0.00     0.039 A 
HETATM   11  C   UNK N   1      35.188  12.224  19.487  0.00  0.00     0.018 A 
HETATM   12  C   UNK N   1      35.334  12.794  18.229  0.00  0.00     0.013 A 
BRANCH  10  13
HETATM   13  C   UNK N   1      34.900  10.274  20.975  0.00  0.00     0.292 C 
HETATM   14  O   UNK N   1      35.843   9.712  21.516  0.00  0.00    -0.259 OA
BRANCH  13  15
HETATM   15  O   UNK N   1      33.705  10.383  21.609  0.00  0.00    -0.323 OA
HETATM   16  C   UNK N   1      32.665   9.509  21.397  0.00  0.00     0.213 C 
ENDBRANCH  13  15
ENDBRANCH  10  13
ENDBRANCH   4   7
BRANCH   1  17
HETATM   17  C   UNK N   1      36.089  14.684  12.022  0.00  0.00     0.292 C 
HETATM   18  O   UNK N   1      36.764  14.173  11.138  0.00  0.00    -0.259 OA
BRANCH  17  19
HETATM   19  O   UNK N   1      35.536  15.911  11.847  0.00  0.00    -0.323 OA
HETATM   20  C   UNK N   1      35.466  16.530  10.622  0.00  0.00     0.213 C 
ENDBRANCH  17  19
ENDBRANCH   1  17
TORSDOF 5
ENDMDL
MODEL 6
REMARK VINA RESULT:      -6.0      1.562      2.780
REMARK  5 active torsions:
REMARK  status: ('A' for Active; 'I' for Inactive)
REMARK    1  A    between atoms: O_2  and  C_3 
REMARK    2  A    between atoms: C_3  and  C_5 
REMARK    3  A    between atoms: C_8  and  C_11 
REMARK    4  A    between atoms: C_14  and  C_17 
REMARK    5  A    between atoms: C_17  and  O_19 
ROOT
HETATM    1  C   UNK N   1      23.275  19.983   3.236  0.00  0.00     0.039 A 
HETATM    2  C   UNK N   1      24.463  20.633   2.859  0.00  0.00     0.018 A 
HETATM    3  C   UNK N   1      25.704  20.152   3.307  0.00  0.00     0.013 A 
HETATM    4  C   UNK N   1      25.761  19.017   4.135  0.00  0.00    -0.026 A 
HETATM    5  C   UNK N   1      24.567  18.381   4.501  0.00  0.00     0.013 A 
HETATM    6  C   UNK N   1      23.340  18.857   4.059  0.00  0.00     0.018 A 
ENDROOT
BRANCH   4   7
HETATM    7  C   UNK N   1      27.045  18.470   4.634  0.00  0.00    -0.026 A 
HETATM    8  C   UNK N   1      27.917  17.737   3.809  0.00  0.00     0.013 A 
HETATM    9  C   UNK N   1      29.122  17.238   4.329  0.00  0.00     0.018 A 
HETATM   10  C   UNK N   1      29.462  17.469   5.673  0.00  0.00     0.039 A 
HETATM   11  C   UNK N   1      28.592  18.198   6.486  0.00  0.00     0.018 A 
HETATM   12  C   UNK N   1      27.399  18.691   5.972  0.00  0.00     0.013 A 
BRANCH  10  13
HETATM   13  C   UNK N   1      30.718  16.963   6.256  0.00  0.00     0.292 C 
HETATM   14  O   UNK N   1      31.363  16.101   5.673  0.00  0.00    -0.259 OA
BRANCH  13  15
HETATM   15  O   UNK N   1      31.147  17.463   7.442  0.00  0.00    -0.323 OA
HETATM   16  C   UNK N   1      31.343  16.681   8.555  0.00  0.00     0.213 C 
ENDBRANCH  13  15
ENDBRANCH  10  13
ENDBRANCH   4   7
BRANCH   1  17
HETATM   17  C   UNK N   1      21.953  20.457   2.787  0.00  0.00     0.292 C 
HETATM   18  O   UNK N   1      21.005  20.459   3.561  0.00  0.00    -0.259 OA
BRANCH  17  19
HETATM   19  O   UNK N   1      21.804  20.891   1.510  0.00  0.00    -0.323 OA
HETATM   20  C   UNK N   1      20.731  20.542   0.724  0.00  0.00     0.213 C 
ENDBRANCH  17  19
ENDBRANCH   1  17
TORSDOF 5
ENDMDL
MODEL 7
REMARK VINA RESULT:      -5.9      2.147      8.628
REMARK  5 active torsions:
REMARK  status: ('A' for Active; 'I' for Inactive)
REMARK    1  A    between atoms: O_2  and  C_3 
REMARK    2  A    between atoms: C_3  and  C_5 
REMARK    3  A    between atoms: C_8  and  C_11 
REMARK    4  A    between atoms: C_14  and  C_17 
REMARK    5  A    between atoms: C_17  and  O_19 
ROOT
HETATM    1  C   UNK N   1      29.141  17.690   5.251  0.00  0.00     0.039 A 
HETATM    2  C   UNK N   1      28.457  18.613   6.061  0.00  0.00     0.018 A 
HETATM    3  C   UNK N   1      27.173  19.052   5.701  0.00  0.00     0.013 A 
HETATM    4  C   UNK N   1      26.567  18.569   4.528  0.00  0.00    -0.026 A 
HETATM    5  C   UNK N   1      27.264  17.649   3.731  0.00  0.00     0.013 A 
HETATM    6  C   UNK N   1      28.534  17.215   4.087  0.00  0.00     0.018 A 
ENDROOT
BRANCH   4   7
HETATM    7  C   UNK N   1      25.214  19.000   4.104  0.00  0.00    -0.026 A 
HETATM    8  C   UNK N   1      25.006  20.160   3.335  0.00  0.00     0.013 A 
HETATM    9  C   UNK N   1      23.704  20.527   2.958  0.00  0.00     0.018 A 
HETATM   10  C   UNK N   1      22.606  19.740   3.346  0.00  0.00     0.039 A 
HETATM   11  C   UNK N   1      22.821  18.591   4.109  0.00  0.00     0.018 A 
HETATM   12  C   UNK N   1      24.108  18.227   4.482  0.00  0.00     0.013 A 
BRANCH  10  13
HETATM   13  C   UNK N   1      21.225  20.093   2.970  0.00  0.00     0.292 C 
HETATM   14  O   UNK N   1      20.472  20.596   3.794  0.00  0.00    -0.259 OA
BRANCH  13  15
HETATM   15  O   UNK N   1      20.802  19.853   1.703  0.00  0.00    -0.323 OA
HETATM   16  C   UNK N   1      20.726  20.833   0.743  0.00  0.00     0.213 C 
ENDBRANCH  13  15
ENDBRANCH  10  13
ENDBRANCH   4   7
BRANCH   1  17
HETATM   17  C   UNK N   1      30.491  17.205   5.594  0.00  0.00     0.292 C 
HETATM   18  O   UNK N   1      30.827  17.101   6.767  0.00  0.00    -0.259 OA
BRANCH  17  19
HETATM   19  O   UNK N   1      31.350  16.877   4.597  0.00  0.00    -0.323 OA
HETATM   20  C   UNK N   1      32.524  17.555   4.370  0.00  0.00     0.213 C 
ENDBRANCH  17  19
ENDBRANCH   1  17
TORSDOF 5
ENDMDL
MODEL 8
REMARK VINA RESULT:      -5.8     13.969     15.589
REMARK  5 active torsions:
REMARK  status: ('A' for Active; 'I' for Inactive)
REMARK    1  A    between atoms: O_2  and  C_3 
REMARK    2  A    between atoms: C_3  and  C_5 
REMARK    3  A    between atoms: C_8  and  C_11 
REMARK    4  A    between atoms: C_14  and  C_17 
REMARK    5  A    between atoms: C_17  and  O_19 
ROOT
HETATM    1  C   UNK N   1      26.723  29.056  -4.830  0.00  0.00     0.039 A 
HETATM    2  C   UNK N   1      25.745  28.182  -4.323  0.00  0.00     0.018 A 
HETATM    3  C   UNK N   1      25.498  26.954  -4.957  0.00  0.00     0.013 A 
HETATM    4  C   UNK N   1      26.230  26.594  -6.102  0.00  0.00    -0.026 A 
HETATM    5  C   UNK N   1      27.201  27.477  -6.595  0.00  0.00     0.013 A 
HETATM    6  C   UNK N   1      27.445  28.692  -5.967  0.00  0.00     0.018 A 
ENDROOT
BRANCH   4   7
HETATM    7  C   UNK N   1      26.008  25.310  -6.808  0.00  0.00    -0.026 A 
HETATM    8  C   UNK N   1      25.727  25.253  -8.185  0.00  0.00     0.013 A 
HETATM    9  C   UNK N   1      25.524  24.011  -8.809  0.00  0.00     0.018 A 
HETATM   10  C   UNK N   1      25.601  22.823  -8.062  0.00  0.00     0.039 A 
HETATM   11  C   UNK N   1      25.880  22.888  -6.696  0.00  0.00     0.018 A 
HETATM   12  C   UNK N   1      26.080  24.116  -6.078  0.00  0.00     0.013 A 
BRANCH  10  13
HETATM   13  C   UNK N   1      25.394  21.501  -8.680  0.00  0.00     0.292 C 
HETATM   14  O   UNK N   1      25.270  20.506  -7.978  0.00  0.00    -0.259 OA
BRANCH  13  15
HETATM   15  O   UNK N   1      25.343  21.403 -10.033  0.00  0.00    -0.323 OA
HETATM   16  C   UNK N   1      26.429  21.048 -10.797  0.00  0.00     0.213 C 
ENDBRANCH  13  15
ENDBRANCH  10  13
ENDBRANCH   4   7
BRANCH   1  17
HETATM   17  C   UNK N   1      27.012  30.354  -4.192  0.00  0.00     0.292 C 
HETATM   18  O   UNK N   1      26.095  31.062  -3.796  0.00  0.00    -0.259 OA
BRANCH  17  19
HETATM   19  O   UNK N   1      28.302  30.751  -4.052  0.00  0.00    -0.323 OA
HETATM   20  C   UNK N   1      29.065  30.433  -2.953  0.00  0.00     0.213 C 
ENDBRANCH  17  19
ENDBRANCH   1  17
TORSDOF 5
ENDMDL
MODEL 9
REMARK VINA RESULT:      -5.6      1.715      8.226
REMARK  5 active torsions:
REMARK  status: ('A' for Active; 'I' for Inactive)
REMARK    1  A    between atoms: O_2  and  C_3 
REMARK    2  A    between atoms: C_3  and  C_5 
REMARK    3  A    between atoms: C_8  and  C_11 
REMARK    4  A    between atoms: C_14  and  C_17 
REMARK    5  A    between atoms: C_17  and  O_19 
ROOT
HETATM    1  C   UNK N   1      32.292  17.104   5.956  0.00  0.00     0.039 A 
HETATM    2  C   UNK N   1      31.283  17.069   6.934  0.00  0.00     0.018 A 
HETATM    3  C   UNK N   1      29.964  17.418   6.601  0.00  0.00     0.013 A 
HETATM    4  C   UNK N   1      29.649  17.804   5.286  0.00  0.00    -0.026 A 
HETATM    5  C   UNK N   1      30.668  17.834   4.323  0.00  0.00     0.013 A 
HETATM    6  C   UNK N   1      31.972  17.489   4.653  0.00  0.00     0.018 A 
ENDROOT
BRANCH   4   7
HETATM    7  C   UNK N   1      28.274  18.182   4.883  0.00  0.00    -0.026 A 
HETATM    8  C   UNK N   1      27.208  17.264   4.909  0.00  0.00     0.013 A 
HETATM    9  C   UNK N   1      25.923  17.670   4.518  0.00  0.00     0.018 A 
HETATM   10  C   UNK N   1      25.695  18.993   4.099  0.00  0.00     0.039 A 
HETATM   11  C   UNK N   1      26.757  19.898   4.076  0.00  0.00     0.018 A 
HETATM   12  C   UNK N   1      28.030  19.497   4.463  0.00  0.00     0.013 A 
BRANCH  10  13
HETATM   13  C   UNK N   1      24.360  19.457   3.681  0.00  0.00     0.292 C 
HETATM   14  O   UNK N   1      24.214  20.587   3.232  0.00  0.00    -0.259 OA
BRANCH  13  15
HETATM   15  O   UNK N   1      23.300  18.618   3.800  0.00  0.00    -0.323 OA
HETATM   16  C   UNK N   1      22.001  19.024   3.602  0.00  0.00     0.213 C 
ENDBRANCH  13  15
ENDBRANCH  10  13
ENDBRANCH   4   7
BRANCH   1  17
HETATM   17  C   UNK N   1      33.688  16.745   6.266  0.00  0.00     0.292 C 
HETATM   18  O   UNK N   1      34.516  17.621   6.476  0.00  0.00    -0.259 OA
BRANCH  17  19
HETATM   19  O   UNK N   1      34.040  15.435   6.316  0.00  0.00    -0.323 OA
HETATM   20  C   UNK N   1      34.483  14.740   5.216  0.00  0.00     0.213 C 
ENDBRANCH  17  19
ENDBRANCH   1  17
TORSDOF 5
ENDMDL
