MODEL 1
REMARK VINA RESULT:      -6.3      0.000      0.000
REMARK  5 active torsions:
REMARK  status: ('A' for Active; 'I' for Inactive)
REMARK    1  A    between atoms: N_4  and  C_7 
REMARK    2  A    between atoms: C_7  and  C_8 
REMARK    3  A    between atoms: C_8  and  C_9 
REMARK    4  A    between atoms: C_8  and  O_19 
REMARK    5  A    between atoms: C_9  and  N_10 
REMARK       I    between atoms: C_15  and  N_16 
ROOT
HETATM    1  C   UNK N   1      31.775  16.019   8.232  0.00  0.00     0.164 C 
ENDROOT
BRANCH   1   2
HETATM    2  C   UNK N   1      31.067  15.913   6.876  0.00  0.00     0.305 C 
BRANCH   2   3
HETATM    3  N   UNK N   1      31.968  16.115   5.744  0.00  0.00     0.090 N 
HETATM    4  C   UNK N   1      31.698  15.056   4.766  0.00  0.00     0.272 C 
HETATM    5  C   UNK N   1      32.623  15.201   3.566  0.00  0.00     0.030 C 
HETATM    6  C   UNK N   1      32.349  16.540   2.896  0.00  0.00     0.003 C 
HETATM    7  C   UNK N   1      32.481  17.674   3.910  0.00  0.00     0.030 C 
HETATM    8  C   UNK N   1      31.601  17.393   5.131  0.00  0.00     0.272 C 
ENDBRANCH   2   3
ENDBRANCH   1   2
BRANCH   1   9
HETATM    9  C   UNK N   1      33.261  15.758   7.979  0.00  0.00     0.165 C 
BRANCH   9  10
HETATM   10  N   UNK N   1      34.121  16.127   9.104  0.00  0.00    -0.320 N 
HETATM   11  C   UNK N   1      34.299  15.410  10.229  0.00  0.00     0.111 A 
HETATM   12  C   UNK N   1      35.123  16.133  11.073  0.00  0.00     0.108 A 
HETATM   13  N   UNK N   1      35.440  17.300  10.475  0.00  0.00    -0.332 N 
HETATM   14  C   UNK N   1      34.816  17.270   9.283  0.00  0.00     0.252 A 
ATOM     15  HN  UNK N   1      36.026  18.047  10.847  1.00  0.00     0.168 HD
HETATM   16  N   UNK N   1      34.866  18.348   8.356  0.00  0.00    -0.079 N 
HETATM   17  O   UNK N   1      35.444  19.352   8.648  0.00  0.00    -0.529 OA
HETATM   18  O   UNK N   1      34.274  18.259   7.187  0.00  0.00    -0.529 OA
ENDBRANCH   9  10
ENDBRANCH   1   9
BRANCH   1  19
HETATM   19  O   UNK N   1      31.611  17.304   8.755  0.00  0.00    -0.392 OA
HETATM   20  H   UNK N   1      30.962  17.464   9.458  0.00  0.00     0.210 HD
ENDBRANCH   1  19
TORSDOF 5
ENDMDL
MODEL 2
REMARK VINA RESULT:      -5.9      2.214      3.171
REMARK  5 active torsions:
REMARK  status: ('A' for Active; 'I' for Inactive)
REMARK    1  A    between atoms: N_4  and  C_7 
REMARK    2  A    between atoms: C_7  and  C_8 
REMARK    3  A    between atoms: C_8  and  C_9 
REMARK    4  A    between atoms: C_8  and  O_19 
REMARK    5  A    between atoms: C_9  and  N_10 
REMARK       I    between atoms: C_15  and  N_16 
ROOT
HETATM    1  C   UNK N   1      32.221  15.435   7.572  0.00  0.00     0.164 C 
ENDROOT
BRANCH   1   2
HETATM    2  C   UNK N   1      31.712  16.546   8.498  0.00  0.00     0.305 C 
BRANCH   2   3
HETATM    3  N   UNK N   1      30.308  16.878   8.272  0.00  0.00     0.090 N 
HETATM    4  C   UNK N   1      29.982  18.029   9.120  0.00  0.00     0.272 C 
HETATM    5  C   UNK N   1      28.519  18.413   8.944  0.00  0.00     0.030 C 
HETATM    6  C   UNK N   1      28.292  18.819   7.493  0.00  0.00     0.003 C 
HETATM    7  C   UNK N   1      28.748  17.703   6.557  0.00  0.00     0.030 C 
HETATM    8  C   UNK N   1      30.191  17.304   6.876  0.00  0.00     0.272 C 
ENDBRANCH   2   3
ENDBRANCH   1   2
BRANCH   1   9
HETATM    9  C   UNK N   1      33.747  15.540   7.547  0.00  0.00     0.165 C 
BRANCH   9  10
HETATM   10  N   UNK N   1      34.326  15.982   8.816  0.00  0.00    -0.320 N 
HETATM   11  C   UNK N   1      34.386  15.258   9.949  0.00  0.00     0.111 A 
HETATM   12  C   UNK N   1      34.935  16.054  10.939  0.00  0.00     0.108 A 
HETATM   13  N   UNK N   1      35.196  17.272  10.420  0.00  0.00    -0.332 N 
HETATM   14  C   UNK N   1      34.814  17.200   9.132  0.00  0.00     0.252 A 
ATOM     15  HN  UNK N   1      35.596  18.076  10.903  1.00  0.00     0.168 HD
HETATM   16  N   UNK N   1      34.889  18.304   8.240  0.00  0.00    -0.079 N 
HETATM   17  O   UNK N   1      35.261  19.366   8.643  0.00  0.00    -0.529 OA
HETATM   18  O   UNK N   1      34.542  18.178   6.979  0.00  0.00    -0.529 OA
ENDBRANCH   9  10
ENDBRANCH   1   9
BRANCH   1  19
HETATM   19  O   UNK N   1      31.849  14.187   8.078  0.00  0.00    -0.392 OA
HETATM   20  H   UNK N   1      31.043  13.753   7.758  0.00  0.00     0.210 HD
ENDBRANCH   1  19
TORSDOF 5
ENDMDL
MODEL 3
REMARK VINA RESULT:      -5.9     11.965     13.877
REMARK  5 active torsions:
REMARK  status: ('A' for Active; 'I' for Inactive)
REMARK    1  A    between atoms: N_4  and  C_7 
REMARK    2  A    between atoms: C_7  and  C_8 
REMARK    3  A    between atoms: C_8  and  C_9 
REMARK    4  A    between atoms: C_8  and  O_19 
REMARK    5  A    between atoms: C_9  and  N_10 
REMARK       I    between atoms: C_15  and  N_16 
ROOT
HETATM    1  C   UNK N   1      21.896  18.035   5.306  0.00  0.00     0.164 C 
ENDROOT
BRANCH   1   2
HETATM    2  C   UNK N   1      21.163  18.217   6.641  0.00  0.00     0.305 C 
BRANCH   2   3
HETATM    3  N   UNK N   1      20.507  16.996   7.102  0.00  0.00     0.090 N 
HETATM    4  C   UNK N   1      21.543  15.974   7.278  0.00  0.00     0.272 C 
HETATM    5  C   UNK N   1      20.917  14.665   7.741  0.00  0.00     0.030 C 
HETATM    6  C   UNK N   1      20.250  14.895   9.091  0.00  0.00     0.003 C 
HETATM    7  C   UNK N   1      19.256  16.049   8.999  0.00  0.00     0.030 C 
HETATM    8  C   UNK N   1      19.942  17.290   8.421  0.00  0.00     0.272 C 
ENDBRANCH   2   3
ENDBRANCH   1   2
BRANCH   1   9
HETATM    9  C   UNK N   1      21.359  19.104   4.354  0.00  0.00     0.165 C 
BRANCH   9  10
HETATM   10  N   UNK N   1      20.785  18.559   3.123  0.00  0.00    -0.320 N 
HETATM   11  C   UNK N   1      20.270  17.325   2.973  0.00  0.00     0.111 A 
HETATM   12  C   UNK N   1      19.903  17.171   1.647  0.00  0.00     0.108 A 
HETATM   13  N   UNK N   1      20.208  18.303   0.979  0.00  0.00    -0.332 N 
HETATM   14  C   UNK N   1      20.744  19.126   1.899  0.00  0.00     0.252 A 
ATOM     15  HN  UNK N   1      20.064  18.493  -0.012  1.00  0.00     0.168 HD
HETATM   16  N   UNK N   1      21.238  20.421   1.583  0.00  0.00    -0.079 N 
HETATM   17  O   UNK N   1      21.229  20.798   0.448  0.00  0.00    -0.529 OA
HETATM   18  O   UNK N   1      21.717  21.207   2.521  0.00  0.00    -0.529 OA
ENDBRANCH   9  10
ENDBRANCH   1   9
BRANCH   1  19
HETATM   19  O   UNK N   1      23.269  18.221   5.489  0.00  0.00    -0.392 OA
HETATM   20  H   UNK N   1      23.704  17.880   6.286  0.00  0.00     0.210 HD
ENDBRANCH   1  19
TORSDOF 5
ENDMDL
MODEL 4
REMARK VINA RESULT:      -5.6      3.376      7.338
REMARK  5 active torsions:
REMARK  status: ('A' for Active; 'I' for Inactive)
REMARK    1  A    between atoms: N_4  and  C_7 
REMARK    2  A    between atoms: C_7  and  C_8 
REMARK    3  A    between atoms: C_8  and  C_9 
REMARK    4  A    between atoms: C_8  and  O_19 
REMARK    5  A    between atoms: C_9  and  N_10 
REMARK       I    between atoms: C_15  and  N_16 
ROOT
HETATM    1  C   UNK N   1      34.911  14.591  11.551  0.00  0.00     0.164 C 
ENDROOT
BRANCH   1   2
HETATM    2  C   UNK N   1      35.079  13.101  11.875  0.00  0.00     0.305 C 
BRANCH   2   3
HETATM    3  N   UNK N   1      35.726  12.867  13.163  0.00  0.00     0.090 N 
HETATM    4  C   UNK N   1      36.043  14.174  13.746  0.00  0.00     0.272 C 
HETATM    5  C   UNK N   1      36.740  13.996  15.087  0.00  0.00     0.030 C 
HETATM    6  C   UNK N   1      35.794  13.275  16.038  0.00  0.00     0.003 C 
HETATM    7  C   UNK N   1      35.320  11.964  15.416  0.00  0.00     0.030 C 
HETATM    8  C   UNK N   1      34.734  12.222  14.026  0.00  0.00     0.272 C 
ENDBRANCH   2   3
ENDBRANCH   1   2
BRANCH   1   9
HETATM    9  C   UNK N   1      35.705  14.860  10.271  0.00  0.00     0.165 C 
BRANCH   9  10
HETATM   10  N   UNK N   1      34.863  15.102   9.099  0.00  0.00    -0.320 N 
HETATM   11  C   UNK N   1      34.363  14.158   8.280  0.00  0.00     0.111 A 
HETATM   12  C   UNK N   1      33.688  14.794   7.253  0.00  0.00     0.108 A 
HETATM   13  N   UNK N   1      33.786  16.128   7.431  0.00  0.00    -0.332 N 
HETATM   14  C   UNK N   1      34.507  16.285   8.557  0.00  0.00     0.252 A 
ATOM     15  HN  UNK N   1      33.399  16.861   6.838  1.00  0.00     0.168 HD
HETATM   16  N   UNK N   1      34.870  17.560   9.071  0.00  0.00    -0.079 N 
HETATM   17  O   UNK N   1      34.573  18.548   8.467  0.00  0.00    -0.529 OA
HETATM   18  O   UNK N   1      35.541  17.667  10.195  0.00  0.00    -0.529 OA
ENDBRANCH   9  10
ENDBRANCH   1   9
BRANCH   1  19
HETATM   19  O   UNK N   1      33.562  14.881  11.332  0.00  0.00    -0.392 OA
HETATM   20  H   UNK N   1      33.310  15.637  10.780  0.00  0.00     0.210 HD
ENDBRANCH   1  19
TORSDOF 5
ENDMDL
MODEL 5
REMARK VINA RESULT:      -5.6     12.967     15.434
REMARK  5 active torsions:
REMARK  status: ('A' for Active; 'I' for Inactive)
REMARK    1  A    between atoms: N_4  and  C_7 
REMARK    2  A    between atoms: C_7  and  C_8 
REMARK    3  A    between atoms: C_8  and  C_9 
REMARK    4  A    between atoms: C_8  and  O_19 
REMARK    5  A    between atoms: C_9  and  N_10 
REMARK       I    between atoms: C_15  and  N_16 
ROOT
HETATM    1  C   UNK N   1      27.030  24.072  -3.953  0.00  0.00     0.164 C 
ENDROOT
BRANCH   1   2
HETATM    2  C   UNK N   1      26.138  25.227  -4.422  0.00  0.00     0.305 C 
BRANCH   2   3
HETATM    3  N   UNK N   1      26.818  26.520  -4.398  0.00  0.00     0.090 N 
HETATM    4  C   UNK N   1      26.512  27.206  -5.657  0.00  0.00     0.272 C 
HETATM    5  C   UNK N   1      27.212  28.558  -5.702  0.00  0.00     0.030 C 
HETATM    6  C   UNK N   1      26.688  29.417  -4.559  0.00  0.00     0.003 C 
HETATM    7  C   UNK N   1      26.855  28.686  -3.230  0.00  0.00     0.030 C 
HETATM    8  C   UNK N   1      26.219  27.295  -3.310  0.00  0.00     0.272 C 
ENDBRANCH   2   3
ENDBRANCH   1   2
BRANCH   1   9
HETATM    9  C   UNK N   1      28.445  24.372  -4.454  0.00  0.00     0.165 C 
BRANCH   9  10
HETATM   10  N   UNK N   1      29.199  23.176  -4.832  0.00  0.00    -0.320 N 
HETATM   11  C   UNK N   1      29.037  22.467  -5.964  0.00  0.00     0.111 A 
HETATM   12  C   UNK N   1      29.882  21.372  -5.910  0.00  0.00     0.108 A 
HETATM   13  N   UNK N   1      30.551  21.398  -4.739  0.00  0.00    -0.332 N 
HETATM   14  C   UNK N   1      30.115  22.502  -4.104  0.00  0.00     0.252 A 
ATOM     15  HN  UNK N   1      31.239  20.725  -4.405  1.00  0.00     0.168 HD
HETATM   16  N   UNK N   1      30.553  22.869  -2.802  0.00  0.00    -0.079 N 
HETATM   17  O   UNK N   1      31.307  22.157  -2.209  0.00  0.00    -0.529 OA
HETATM   18  O   UNK N   1      30.130  23.978  -2.237  0.00  0.00    -0.529 OA
ENDBRANCH   9  10
ENDBRANCH   1   9
BRANCH   1  19
HETATM   19  O   UNK N   1      27.034  24.010  -2.558  0.00  0.00    -0.392 OA
HETATM   20  H   UNK N   1      27.745  24.435  -2.054  0.00  0.00     0.210 HD
ENDBRANCH   1  19
TORSDOF 5
ENDMDL
MODEL 6
REMARK VINA RESULT:      -5.5      3.481      7.196
REMARK  5 active torsions:
REMARK  status: ('A' for Active; 'I' for Inactive)
REMARK    1  A    between atoms: N_4  and  C_7 
REMARK    2  A    between atoms: C_7  and  C_8 
REMARK    3  A    between atoms: C_8  and  C_9 
REMARK    4  A    between atoms: C_8  and  O_19 
REMARK    5  A    between atoms: C_9  and  N_10 
REMARK       I    between atoms: C_15  and  N_16 
ROOT
HETATM    1  C   UNK N   1      36.359  14.264  10.780  0.00  0.00     0.164 C 
ENDROOT
BRANCH   1   2
HETATM    2  C   UNK N   1      36.766  13.433  12.003  0.00  0.00     0.305 C 
BRANCH   2   3
HETATM    3  N   UNK N   1      35.633  13.078  12.854  0.00  0.00     0.090 N 
HETATM    4  C   UNK N   1      35.413  11.635  12.721  0.00  0.00     0.272 C 
HETATM    5  C   UNK N   1      34.226  11.204  13.572  0.00  0.00     0.030 C 
HETATM    6  C   UNK N   1      34.541  11.498  15.033  0.00  0.00     0.003 C 
HETATM    7  C   UNK N   1      34.916  12.968  15.205  0.00  0.00     0.030 C 
HETATM    8  C   UNK N   1      36.040  13.343  14.235  0.00  0.00     0.272 C 
ENDBRANCH   2   3
ENDBRANCH   1   2
BRANCH   1   9
HETATM    9  C   UNK N   1      34.993  14.877  11.093  0.00  0.00     0.165 C 
BRANCH   9  10
HETATM   10  N   UNK N   1      34.158  15.085   9.909  0.00  0.00    -0.320 N 
HETATM   11  C   UNK N   1      33.382  14.157   9.320  0.00  0.00     0.111 A 
HETATM   12  C   UNK N   1      32.816  14.723   8.191  0.00  0.00     0.108 A 
HETATM   13  N   UNK N   1      33.256  15.994   8.077  0.00  0.00    -0.332 N 
HETATM   14  C   UNK N   1      34.070  16.185   9.132  0.00  0.00     0.252 A 
ATOM     15  HN  UNK N   1      33.022  16.666   7.347  1.00  0.00     0.168 HD
HETATM   16  N   UNK N   1      34.775  17.399   9.354  0.00  0.00    -0.079 N 
HETATM   17  O   UNK N   1      34.691  18.287   8.558  0.00  0.00    -0.529 OA
HETATM   18  O   UNK N   1      35.529  17.555  10.419  0.00  0.00    -0.529 OA
ENDBRANCH   9  10
ENDBRANCH   1   9
BRANCH   1  19
HETATM   19  O   UNK N   1      37.290  15.284  10.567  0.00  0.00    -0.392 OA
HETATM   20  H   UNK N   1      37.994  15.171   9.910  0.00  0.00     0.210 HD
ENDBRANCH   1  19
TORSDOF 5
ENDMDL
MODEL 7
REMARK VINA RESULT:      -5.4      3.577      4.764
REMARK  5 active torsions:
REMARK  status: ('A' for Active; 'I' for Inactive)
REMARK    1  A    between atoms: N_4  and  C_7 
REMARK    2  A    between atoms: C_7  and  C_8 
REMARK    3  A    between atoms: C_8  and  C_9 
REMARK    4  A    between atoms: C_8  and  O_19 
REMARK    5  A    between atoms: C_9  and  N_10 
REMARK       I    between atoms: C_15  and  N_16 
ROOT
HETATM    1  C   UNK N   1      30.523  17.553   4.540  0.00  0.00     0.164 C 
ENDROOT
BRANCH   1   2
HETATM    2  C   UNK N   1      28.993  17.578   4.626  0.00  0.00     0.305 C 
BRANCH   2   3
HETATM    3  N   UNK N   1      28.449  18.929   4.742  0.00  0.00     0.090 N 
HETATM    4  C   UNK N   1      27.270  19.011   3.875  0.00  0.00     0.272 C 
HETATM    5  C   UNK N   1      26.668  20.407   3.938  0.00  0.00     0.030 C 
HETATM    6  C   UNK N   1      26.219  20.682   5.367  0.00  0.00     0.003 C 
HETATM    7  C   UNK N   1      27.382  20.474   6.334  0.00  0.00     0.030 C 
HETATM    8  C   UNK N   1      27.998  19.087   6.126  0.00  0.00     0.272 C 
ENDBRANCH   2   3
ENDBRANCH   1   2
BRANCH   1   9
HETATM    9  C   UNK N   1      31.004  16.442   5.474  0.00  0.00     0.165 C 
BRANCH   9  10
HETATM   10  N   UNK N   1      31.279  16.899   6.837  0.00  0.00    -0.320 N 
HETATM   11  C   UNK N   1      30.388  16.963   7.842  0.00  0.00     0.111 A 
HETATM   12  C   UNK N   1      31.019  17.516   8.942  0.00  0.00     0.108 A 
HETATM   13  N   UNK N   1      32.293  17.808   8.609  0.00  0.00    -0.332 N 
HETATM   14  C   UNK N   1      32.423  17.425   7.325  0.00  0.00     0.252 A 
ATOM     15  HN  UNK N   1      33.006  18.230   9.203  1.00  0.00     0.168 HD
HETATM   16  N   UNK N   1      33.622  17.602   6.582  0.00  0.00    -0.079 N 
HETATM   17  O   UNK N   1      34.554  18.156   7.086  0.00  0.00    -0.529 OA
HETATM   18  O   UNK N   1      33.716  17.177   5.343  0.00  0.00    -0.529 OA
ENDBRANCH   9  10
ENDBRANCH   1   9
BRANCH   1  19
HETATM   19  O   UNK N   1      30.921  17.266   3.231  0.00  0.00    -0.392 OA
HETATM   20  H   UNK N   1      30.677  17.863   2.507  0.00  0.00     0.210 HD
ENDBRANCH   1  19
TORSDOF 5
ENDMDL
MODEL 8
REMARK VINA RESULT:      -5.4      3.692      4.721
REMARK  5 active torsions:
REMARK  status: ('A' for Active; 'I' for Inactive)
REMARK    1  A    between atoms: N_4  and  C_7 
REMARK    2  A    between atoms: C_7  and  C_8 
REMARK    3  A    between atoms: C_8  and  C_9 
REMARK    4  A    between atoms: C_8  and  O_19 
REMARK    5  A    between atoms: C_9  and  N_10 
REMARK       I    between atoms: C_15  and  N_16 
ROOT
HETATM    1  C   UNK N   1      34.421  15.280  10.276  0.00  0.00     0.164 C 
ENDROOT
BRANCH   1   2
HETATM    2  C   UNK N   1      34.058  16.574   9.537  0.00  0.00     0.305 C 
BRANCH   2   3
HETATM    3  N   UNK N   1      33.569  16.338   8.181  0.00  0.00     0.090 N 
HETATM    4  C   UNK N   1      32.132  16.628   8.170  0.00  0.00     0.272 C 
HETATM    5  C   UNK N   1      31.556  16.380   6.783  0.00  0.00     0.030 C 
HETATM    6  C   UNK N   1      32.233  17.325   5.798  0.00  0.00     0.003 C 
HETATM    7  C   UNK N   1      33.749  17.163   5.870  0.00  0.00     0.030 C 
HETATM    8  C   UNK N   1      34.228  17.318   7.315  0.00  0.00     0.272 C 
ENDBRANCH   2   3
ENDBRANCH   1   2
BRANCH   1   9
HETATM    9  C   UNK N   1      35.656  15.585  11.126  0.00  0.00     0.165 C 
BRANCH   9  10
HETATM   10  N   UNK N   1      36.691  14.553  11.047  0.00  0.00    -0.320 N 
HETATM   11  C   UNK N   1      37.612  14.433  10.073  0.00  0.00     0.111 A 
HETATM   12  C   UNK N   1      38.354  13.292  10.322  0.00  0.00     0.108 A 
HETATM   13  N   UNK N   1      37.880  12.702  11.439  0.00  0.00    -0.332 N 
HETATM   14  C   UNK N   1      36.870  13.487  11.856  0.00  0.00     0.252 A 
ATOM     15  HN  UNK N   1      38.215  11.842  11.874  1.00  0.00     0.168 HD
HETATM   16  N   UNK N   1      36.075  13.185  12.995  0.00  0.00    -0.079 N 
HETATM   17  O   UNK N   1      36.264  12.170  13.597  0.00  0.00    -0.529 OA
HETATM   18  O   UNK N   1      35.124  14.002  13.389  0.00  0.00    -0.529 OA
ENDBRANCH   9  10
ENDBRANCH   1   9
BRANCH   1  19
HETATM   19  O   UNK N   1      33.367  14.897  11.109  0.00  0.00    -0.392 OA
HETATM   20  H   UNK N   1      32.550  15.420  11.132  0.00  0.00     0.210 HD
ENDBRANCH   1  19
TORSDOF 5
ENDMDL
MODEL 9
REMARK VINA RESULT:      -5.4      3.144      4.108
REMARK  5 active torsions:
REMARK  status: ('A' for Active; 'I' for Inactive)
REMARK    1  A    between atoms: N_4  and  C_7 
REMARK    2  A    between atoms: C_7  and  C_8 
REMARK    3  A    between atoms: C_8  and  C_9 
REMARK    4  A    between atoms: C_8  and  O_19 
REMARK    5  A    between atoms: C_9  and  N_10 
REMARK       I    between atoms: C_15  and  N_16 
ROOT
HETATM    1  C   UNK N   1      30.934  17.226   4.412  0.00  0.00     0.164 C 
ENDROOT
BRANCH   1   2
HETATM    2  C   UNK N   1      30.372  16.300   3.325  0.00  0.00     0.305 C 
BRANCH   2   3
HETATM    3  N   UNK N   1      28.995  16.621   2.958  0.00  0.00     0.090 N 
HETATM    4  C   UNK N   1      28.282  15.355   2.758  0.00  0.00     0.272 C 
HETATM    5  C   UNK N   1      26.840  15.624   2.353  0.00  0.00     0.030 C 
HETATM    6  C   UNK N   1      26.148  16.378   3.480  0.00  0.00     0.003 C 
HETATM    7  C   UNK N   1      26.931  17.642   3.827  0.00  0.00     0.030 C 
HETATM    8  C   UNK N   1      28.394  17.294   4.112  0.00  0.00     0.272 C 
ENDBRANCH   2   3
ENDBRANCH   1   2
BRANCH   1   9
HETATM    9  C   UNK N   1      31.662  16.336   5.421  0.00  0.00     0.165 C 
BRANCH   9  10
HETATM   10  N   UNK N   1      31.628  16.853   6.790  0.00  0.00    -0.320 N 
HETATM   11  C   UNK N   1      30.563  16.838   7.612  0.00  0.00     0.111 A 
HETATM   12  C   UNK N   1      30.915  17.485   8.783  0.00  0.00     0.108 A 
HETATM   13  N   UNK N   1      32.190  17.913   8.676  0.00  0.00    -0.332 N 
HETATM   14  C   UNK N   1      32.597  17.517   7.455  0.00  0.00     0.252 A 
ATOM     15  HN  UNK N   1      32.731  18.427   9.371  1.00  0.00     0.168 HD
HETATM   16  N   UNK N   1      33.887  17.813   6.936  0.00  0.00    -0.079 N 
HETATM   17  O   UNK N   1      34.644  18.481   7.577  0.00  0.00    -0.529 OA
HETATM   18  O   UNK N   1      34.255  17.373   5.754  0.00  0.00    -0.529 OA
ENDBRANCH   9  10
ENDBRANCH   1   9
BRANCH   1  19
HETATM   19  O   UNK N   1      31.839  18.127   3.847  0.00  0.00    -0.392 OA
HETATM   20  H   UNK N   1      32.774  17.885   3.757  0.00  0.00     0.210 HD
ENDBRANCH   1  19
TORSDOF 5
ENDMDL
