MODEL 1
REMARK VINA RESULT:      -8.2      0.000      0.000
REMARK  5 active torsions:
REMARK  status: ('A' for Active; 'I' for Inactive)
REMARK    1  A    between atoms: C_4  and  N_8 
REMARK    2  A    between atoms: N_8  and  C_9 
REMARK    3  A    between atoms: C_18  and  C_21 
REMARK    4  A    between atoms: C_21  and  C_22 
REMARK    5  A    between atoms: C_21  and  O_29 
ROOT
HETATM    1  C   UNK N   1      30.910  17.498   6.731  0.00  0.00     0.120 A 
HETATM    2  C   UNK N   1      31.262  17.217   5.385  0.00  0.00     0.035 A 
HETATM    3  C   UNK N   1      30.329  17.037   4.363  0.00  0.00     0.017 A 
HETATM    4  C   UNK N   1      30.735  16.762   3.055  0.00  0.00     0.001 A 
HETATM    5  C   UNK N   1      32.094  16.664   2.751  0.00  0.00     0.002 A 
HETATM    6  C   UNK N   1      33.047  16.840   3.754  0.00  0.00     0.030 A 
HETATM    7  C   UNK N   1      32.646  17.115   5.066  0.00  0.00     0.047 A 
HETATM    8  N   UNK N   1      33.588  17.285   6.032  0.00  0.00    -0.343 N 
ATOM      9  HN  UNK N   1      34.576  17.210   5.793  1.00  0.00     0.167 HD
HETATM   10  C   UNK N   1      33.222  17.552   7.310  0.00  0.00     0.117 A 
HETATM   11  N   UNK N   1      31.911  17.651   7.623  0.00  0.00    -0.329 N 
ATOM     12  HN  UNK N   1      31.663  17.853   8.591  1.00  0.00     0.168 HD
ENDROOT
BRANCH   1  13
HETATM   13  N   UNK N   1      29.589  17.641   7.261  0.00  0.00    -0.327 N 
HETATM   14  H   UNK N   1      29.289  16.821   7.714  0.00  0.00     0.169 HD
BRANCH  13  15
HETATM   15  C   UNK N   1      28.595  18.654   7.305  0.00  0.00     0.123 A 
HETATM   16  C   UNK N   1      28.162  19.486   6.296  0.00  0.00     0.075 A 
HETATM   17  C   UNK N   1      27.195  20.256   6.905  0.00  0.00     0.025 A 
HETATM   18  C   UNK N   1      26.400  21.328   6.254  0.00  0.00     0.070 C 
HETATM   19  N   UNK N   1      27.065  19.901   8.194  0.00  0.00    -0.304 N 
HETATM   20  N   UNK N   1      27.919  18.924   8.438  0.00  0.00    -0.285 N 
HETATM   21  H   UNK N   1      26.442  20.299   8.844  0.00  0.00     0.186 HD
ATOM     22  HN  UNK N   1      28.045  18.452   9.334  1.00  0.00     0.188 HD
ENDBRANCH  13  15
ENDBRANCH   1  13
BRANCH  10  23
HETATM   23  C   UNK N   1      34.248  17.743   8.395  0.00  0.00     0.218 C 
BRANCH  23  24
HETATM   24  C   UNK N   1      34.510  16.719   9.479  0.00  0.00    -0.022 A 
HETATM   25  C   UNK N   1      33.824  15.496   9.491  0.00  0.00     0.013 A 
HETATM   26  C   UNK N   1      34.076  14.556  10.500  0.00  0.00     0.043 A 
HETATM   27  C   UNK N   1      35.014  14.834  11.501  0.00  0.00     0.116 A 
HETATM   28  C   UNK N   1      35.699  16.046  11.496  0.00  0.00     0.043 A 
HETATM   29  F   UNK N   1      35.260  13.929  12.478  0.00  0.00    -0.206 F 
HETATM   30  C   UNK N   1      35.448  16.978  10.493  0.00  0.00     0.013 A 
ENDBRANCH  23  24
BRANCH  23  31
HETATM   31  O   UNK N   1      34.993  18.926   8.398  0.00  0.00    -0.383 OA
HETATM   32  H   UNK N   1      35.721  19.039   9.030  0.00  0.00     0.211 HD
ENDBRANCH  23  31
ENDBRANCH  10  23
TORSDOF 5
ENDMDL
MODEL 2
REMARK VINA RESULT:      -8.1      4.840      7.694
REMARK  5 active torsions:
REMARK  status: ('A' for Active; 'I' for Inactive)
REMARK    1  A    between atoms: C_4  and  N_8 
REMARK    2  A    between atoms: N_8  and  C_9 
REMARK    3  A    between atoms: C_18  and  C_21 
REMARK    4  A    between atoms: C_21  and  C_22 
REMARK    5  A    between atoms: C_21  and  O_29 
ROOT
HETATM    1  C   UNK N   1      35.068  13.775  11.302  0.00  0.00     0.120 A 
HETATM    2  C   UNK N   1      36.096  13.168  10.535  0.00  0.00     0.035 A 
HETATM    3  C   UNK N   1      35.967  12.852   9.181  0.00  0.00     0.017 A 
HETATM    4  C   UNK N   1      37.014  12.255   8.477  0.00  0.00     0.001 A 
HETATM    5  C   UNK N   1      38.216  11.963   9.124  0.00  0.00     0.002 A 
HETATM    6  C   UNK N   1      38.370  12.269  10.477  0.00  0.00     0.030 A 
HETATM    7  C   UNK N   1      37.325  12.867  11.188  0.00  0.00     0.047 A 
HETATM    8  N   UNK N   1      37.492  13.159  12.505  0.00  0.00    -0.343 N 
ATOM      9  HN  UNK N   1      38.376  12.939  12.963  1.00  0.00     0.167 HD
HETATM   10  C   UNK N   1      36.492  13.739  13.214  0.00  0.00     0.117 A 
HETATM   11  N   UNK N   1      35.321  14.028  12.604  0.00  0.00    -0.329 N 
ATOM     12  HN  UNK N   1      34.586  14.464  13.159  1.00  0.00     0.168 HD
ENDROOT
BRANCH   1  13
HETATM   13  N   UNK N   1      33.767  14.156  10.845  0.00  0.00    -0.327 N 
HETATM   14  H   UNK N   1      33.067  13.566  11.207  0.00  0.00     0.169 HD
BRANCH  13  15
HETATM   15  C   UNK N   1      33.217  15.163  10.007  0.00  0.00     0.123 A 
HETATM   16  C   UNK N   1      33.870  16.067   9.199  0.00  0.00     0.075 A 
HETATM   17  C   UNK N   1      32.845  16.788   8.627  0.00  0.00     0.025 A 
HETATM   18  C   UNK N   1      33.002  17.904   7.661  0.00  0.00     0.070 C 
HETATM   19  N   UNK N   1      31.660  16.338   9.070  0.00  0.00    -0.304 N 
HETATM   20  N   UNK N   1      31.887  15.346   9.912  0.00  0.00    -0.285 N 
HETATM   21  H   UNK N   1      30.776  16.686   8.813  0.00  0.00     0.186 HD
ATOM     22  HN  UNK N   1      31.174  14.809  10.407  1.00  0.00     0.188 HD
ENDBRANCH  13  15
ENDBRANCH   1  13
BRANCH  10  23
HETATM   23  C   UNK N   1      36.656  14.070  14.673  0.00  0.00     0.218 C 
BRANCH  23  24
HETATM   24  C   UNK N   1      36.174  13.166  15.789  0.00  0.00    -0.022 A 
HETATM   25  C   UNK N   1      36.367  11.779  15.721  0.00  0.00     0.013 A 
HETATM   26  C   UNK N   1      35.917  10.953  16.760  0.00  0.00     0.043 A 
HETATM   27  C   UNK N   1      35.271  11.510  17.871  0.00  0.00     0.116 A 
HETATM   28  C   UNK N   1      35.076  12.886  17.945  0.00  0.00     0.043 A 
HETATM   29  F   UNK N   1      34.834  10.715  18.877  0.00  0.00    -0.206 F 
HETATM   30  C   UNK N   1      35.524  13.704  16.912  0.00  0.00     0.013 A 
ENDBRANCH  23  24
BRANCH  23  31
HETATM   31  O   UNK N   1      37.284  15.272  15.010  0.00  0.00    -0.383 OA
HETATM   32  H   UNK N   1      38.076  15.265  15.572  0.00  0.00     0.211 HD
ENDBRANCH  23  31
ENDBRANCH  10  23
TORSDOF 5
ENDMDL
MODEL 3
REMARK VINA RESULT:      -8.1      4.967      8.124
REMARK  5 active torsions:
REMARK  status: ('A' for Active; 'I' for Inactive)
REMARK    1  A    between atoms: C_4  and  N_8 
REMARK    2  A    between atoms: N_8  and  C_9 
REMARK    3  A    between atoms: C_18  and  C_21 
REMARK    4  A    between atoms: C_21  and  C_22 
REMARK    5  A    between atoms: C_21  and  O_29 
ROOT
HETATM    1  C   UNK N   1      35.158  14.288  11.376  0.00  0.00     0.120 A 
HETATM    2  C   UNK N   1      36.437  13.889  10.907  0.00  0.00     0.035 A 
HETATM    3  C   UNK N   1      37.150  14.580   9.925  0.00  0.00     0.017 A 
HETATM    4  C   UNK N   1      38.406  14.140   9.503  0.00  0.00     0.001 A 
HETATM    5  C   UNK N   1      38.970  12.992  10.062  0.00  0.00     0.002 A 
HETATM    6  C   UNK N   1      38.278  12.284  11.045  0.00  0.00     0.030 A 
HETATM    7  C   UNK N   1      37.019  12.720  11.472  0.00  0.00     0.047 A 
HETATM    8  N   UNK N   1      36.358  12.019  12.431  0.00  0.00    -0.343 N 
ATOM      9  HN  UNK N   1      36.784  11.182  12.830  1.00  0.00     0.167 HD
HETATM   10  C   UNK N   1      35.137  12.422  12.861  0.00  0.00     0.117 A 
HETATM   11  N   UNK N   1      34.575  13.531  12.330  0.00  0.00    -0.329 N 
ATOM     12  HN  UNK N   1      33.657  13.813  12.670  1.00  0.00     0.168 HD
ENDROOT
BRANCH   1  13
HETATM   13  N   UNK N   1      34.401  15.422  10.945  0.00  0.00    -0.327 N 
HETATM   14  H   UNK N   1      33.727  15.684  11.614  0.00  0.00     0.169 HD
BRANCH  13  15
HETATM   15  C   UNK N   1      34.363  16.271   9.807  0.00  0.00     0.123 A 
HETATM   16  C   UNK N   1      33.952  15.981   8.525  0.00  0.00     0.075 A 
HETATM   17  C   UNK N   1      34.133  17.169   7.851  0.00  0.00     0.025 A 
HETATM   18  C   UNK N   1      33.839  17.407   6.415  0.00  0.00     0.070 C 
HETATM   19  N   UNK N   1      34.620  18.103   8.684  0.00  0.00    -0.304 N 
HETATM   20  N   UNK N   1      34.761  17.555   9.877  0.00  0.00    -0.285 N 
HETATM   21  H   UNK N   1      34.835  19.034   8.447  0.00  0.00     0.186 HD
ATOM     22  HN  UNK N   1      35.112  18.026  10.712  1.00  0.00     0.188 HD
ENDBRANCH  13  15
ENDBRANCH   1  13
BRANCH  10  23
HETATM   23  C   UNK N   1      34.388  11.661  13.921  0.00  0.00     0.218 C 
BRANCH  23  24
HETATM   24  C   UNK N   1      34.687  11.785  15.401  0.00  0.00    -0.022 A 
HETATM   25  C   UNK N   1      34.952  10.647  16.176  0.00  0.00     0.013 A 
HETATM   26  C   UNK N   1      35.228  10.776  17.544  0.00  0.00     0.043 A 
HETATM   27  C   UNK N   1      35.239  12.042  18.143  0.00  0.00     0.116 A 
HETATM   28  C   UNK N   1      34.976  13.176  17.379  0.00  0.00     0.043 A 
HETATM   29  F   UNK N   1      35.504  12.170  19.465  0.00  0.00    -0.206 F 
HETATM   30  C   UNK N   1      34.703  13.046  16.021  0.00  0.00     0.013 A 
ENDBRANCH  23  24
BRANCH  23  31
HETATM   31  O   UNK N   1      33.367  10.797  13.515  0.00  0.00    -0.383 OA
HETATM   32  H   UNK N   1      33.580   9.997  13.008  0.00  0.00     0.211 HD
ENDBRANCH  23  31
ENDBRANCH  10  23
TORSDOF 5
ENDMDL
MODEL 4
REMARK VINA RESULT:      -8.0      4.877      7.717
REMARK  5 active torsions:
REMARK  status: ('A' for Active; 'I' for Inactive)
REMARK    1  A    between atoms: C_4  and  N_8 
REMARK    2  A    between atoms: N_8  and  C_9 
REMARK    3  A    between atoms: C_18  and  C_21 
REMARK    4  A    between atoms: C_21  and  C_22 
REMARK    5  A    between atoms: C_21  and  O_29 
ROOT
HETATM    1  C   UNK N   1      35.264  13.467  11.062  0.00  0.00     0.120 A 
HETATM    2  C   UNK N   1      36.486  13.416  10.341  0.00  0.00     0.035 A 
HETATM    3  C   UNK N   1      36.594  13.716   8.981  0.00  0.00     0.017 A 
HETATM    4  C   UNK N   1      37.825  13.649   8.325  0.00  0.00     0.001 A 
HETATM    5  C   UNK N   1      38.973  13.279   9.026  0.00  0.00     0.002 A 
HETATM    6  C   UNK N   1      38.891  12.975  10.385  0.00  0.00     0.030 A 
HETATM    7  C   UNK N   1      37.662  13.039  11.049  0.00  0.00     0.047 A 
HETATM    8  N   UNK N   1      37.600  12.740  12.373  0.00  0.00    -0.343 N 
ATOM      9  HN  UNK N   1      38.448  12.471  12.872  1.00  0.00     0.167 HD
HETATM   10  C   UNK N   1      36.418  12.796  13.037  0.00  0.00     0.117 A 
HETATM   11  N   UNK N   1      35.296  13.153  12.374  0.00  0.00    -0.329 N 
ATOM     12  HN  UNK N   1      34.421  13.188  12.896  1.00  0.00     0.168 HD
ENDROOT
BRANCH   1  13
HETATM   13  N   UNK N   1      33.977  13.818  10.546  0.00  0.00    -0.327 N 
HETATM   14  H   UNK N   1      33.332  13.082  10.647  0.00  0.00     0.169 HD
BRANCH  13  15
HETATM   15  C   UNK N   1      33.383  14.950   9.927  0.00  0.00     0.123 A 
HETATM   16  C   UNK N   1      33.989  15.973   9.231  0.00  0.00     0.075 A 
HETATM   17  C   UNK N   1      32.936  16.782   8.864  0.00  0.00     0.025 A 
HETATM   18  C   UNK N   1      33.038  18.041   8.084  0.00  0.00     0.070 C 
HETATM   19  N   UNK N   1      31.779  16.269   9.315  0.00  0.00    -0.304 N 
HETATM   20  N   UNK N   1      32.053  15.151   9.964  0.00  0.00    -0.285 N 
HETATM   21  H   UNK N   1      30.885  16.657   9.185  0.00  0.00     0.186 HD
ATOM     22  HN  UNK N   1      31.369  14.543  10.416  1.00  0.00     0.188 HD
ENDBRANCH  13  15
ENDBRANCH   1  13
BRANCH  10  23
HETATM   23  C   UNK N   1      36.327  12.469  14.504  0.00  0.00     0.218 C 
BRANCH  23  24
HETATM   24  C   UNK N   1      36.329  13.523  15.592  0.00  0.00    -0.022 A 
HETATM   25  C   UNK N   1      35.510  13.388  16.721  0.00  0.00     0.013 A 
HETATM   26  C   UNK N   1      35.522  14.370  17.721  0.00  0.00     0.043 A 
HETATM   27  C   UNK N   1      36.352  15.491  17.596  0.00  0.00     0.116 A 
HETATM   28  C   UNK N   1      37.168  15.631  16.477  0.00  0.00     0.043 A 
HETATM   29  F   UNK N   1      36.366  16.443  18.560  0.00  0.00    -0.206 F 
HETATM   30  C   UNK N   1      37.155  14.654  15.485  0.00  0.00     0.013 A 
ENDBRANCH  23  24
BRANCH  23  31
HETATM   31  O   UNK N   1      36.235  11.124  14.875  0.00  0.00    -0.383 OA
HETATM   32  H   UNK N   1      35.399  10.772  15.220  0.00  0.00     0.211 HD
ENDBRANCH  23  31
ENDBRANCH  10  23
TORSDOF 5
ENDMDL
MODEL 5
REMARK VINA RESULT:      -7.8      4.031      7.789
REMARK  5 active torsions:
REMARK  status: ('A' for Active; 'I' for Inactive)
REMARK    1  A    between atoms: C_4  and  N_8 
REMARK    2  A    between atoms: N_8  and  C_9 
REMARK    3  A    between atoms: C_18  and  C_21 
REMARK    4  A    between atoms: C_21  and  C_22 
REMARK    5  A    between atoms: C_21  and  O_29 
ROOT
HETATM    1  C   UNK N   1      31.186  16.096   6.821  0.00  0.00     0.120 A 
HETATM    2  C   UNK N   1      31.859  16.199   5.575  0.00  0.00     0.035 A 
HETATM    3  C   UNK N   1      33.066  15.557   5.293  0.00  0.00     0.017 A 
HETATM    4  C   UNK N   1      33.683  15.695   4.048  0.00  0.00     0.001 A 
HETATM    5  C   UNK N   1      33.094  16.486   3.060  0.00  0.00     0.002 A 
HETATM    6  C   UNK N   1      31.888  17.138   3.317  0.00  0.00     0.030 A 
HETATM    7  C   UNK N   1      31.266  17.004   4.562  0.00  0.00     0.047 A 
HETATM    8  N   UNK N   1      30.091  17.646   4.795  0.00  0.00    -0.343 N 
ATOM      9  HN  UNK N   1      29.674  18.220   4.063  1.00  0.00     0.167 HD
HETATM   10  C   UNK N   1      29.469  17.530   5.995  0.00  0.00     0.117 A 
HETATM   11  N   UNK N   1      30.024  16.769   6.964  0.00  0.00    -0.329 N 
ATOM     12  HN  UNK N   1      29.537  16.698   7.857  1.00  0.00     0.168 HD
ENDROOT
BRANCH   1  13
HETATM   13  N   UNK N   1      31.606  15.347   7.964  0.00  0.00    -0.327 N 
HETATM   14  H   UNK N   1      31.067  14.532   8.082  0.00  0.00     0.169 HD
BRANCH  13  15
HETATM   15  C   UNK N   1      32.596  15.467   8.975  0.00  0.00     0.123 A 
HETATM   16  C   UNK N   1      33.800  16.136   8.932  0.00  0.00     0.075 A 
HETATM   17  C   UNK N   1      34.337  15.914  10.181  0.00  0.00     0.025 A 
HETATM   18  C   UNK N   1      35.645  16.422  10.667  0.00  0.00     0.070 C 
HETATM   19  N   UNK N   1      33.503  15.160  10.916  0.00  0.00    -0.304 N 
HETATM   20  N   UNK N   1      32.441  14.888  10.180  0.00  0.00    -0.285 N 
HETATM   21  H   UNK N   1      33.657  14.862  11.842  0.00  0.00     0.186 HD
ATOM     22  HN  UNK N   1      31.638  14.331  10.476  1.00  0.00     0.188 HD
ENDBRANCH  13  15
ENDBRANCH   1  13
BRANCH  10  23
HETATM   23  C   UNK N   1      28.168  18.233   6.275  0.00  0.00     0.218 C 
BRANCH  23  24
HETATM   24  C   UNK N   1      27.279  18.800   5.187  0.00  0.00    -0.022 A 
HETATM   25  C   UNK N   1      26.180  18.072   4.709  0.00  0.00     0.013 A 
HETATM   26  C   UNK N   1      25.366  18.608   3.702  0.00  0.00     0.043 A 
HETATM   27  C   UNK N   1      25.646  19.871   3.168  0.00  0.00     0.116 A 
HETATM   28  C   UNK N   1      26.736  20.599   3.638  0.00  0.00     0.043 A 
HETATM   29  F   UNK N   1      24.862  20.392   2.194  0.00  0.00    -0.206 F 
HETATM   30  C   UNK N   1      27.544  20.065   4.638  0.00  0.00     0.013 A 
ENDBRANCH  23  24
BRANCH  23  31
HETATM   31  O   UNK N   1      27.763  18.367   7.606  0.00  0.00    -0.383 OA
HETATM   32  H   UNK N   1      26.954  18.859   7.821  0.00  0.00     0.211 HD
ENDBRANCH  23  31
ENDBRANCH  10  23
TORSDOF 5
ENDMDL
MODEL 6
REMARK VINA RESULT:      -7.8     12.127     14.270
REMARK  5 active torsions:
REMARK  status: ('A' for Active; 'I' for Inactive)
REMARK    1  A    between atoms: C_4  and  N_8 
REMARK    2  A    between atoms: N_8  and  C_9 
REMARK    3  A    between atoms: C_18  and  C_21 
REMARK    4  A    between atoms: C_21  and  C_22 
REMARK    5  A    between atoms: C_21  and  O_29 
ROOT
HETATM    1  C   UNK N   1      27.584  24.531  -4.189  0.00  0.00     0.120 A 
HETATM    2  C   UNK N   1      27.372  23.873  -5.429  0.00  0.00     0.035 A 
HETATM    3  C   UNK N   1      26.302  24.153  -6.281  0.00  0.00     0.017 A 
HETATM    4  C   UNK N   1      26.145  23.472  -7.490  0.00  0.00     0.001 A 
HETATM    5  C   UNK N   1      27.065  22.493  -7.865  0.00  0.00     0.002 A 
HETATM    6  C   UNK N   1      28.144  22.194  -7.032  0.00  0.00     0.030 A 
HETATM    7  C   UNK N   1      28.306  22.873  -5.820  0.00  0.00     0.047 A 
HETATM    8  N   UNK N   1      29.362  22.569  -5.020  0.00  0.00    -0.343 N 
ATOM      9  HN  UNK N   1      30.026  21.850  -5.309  1.00  0.00     0.167 HD
HETATM   10  C   UNK N   1      29.540  23.214  -3.840  0.00  0.00     0.117 A 
HETATM   11  N   UNK N   1      28.659  24.165  -3.459  0.00  0.00    -0.329 N 
ATOM     12  HN  UNK N   1      28.815  24.635  -2.568  1.00  0.00     0.168 HD
ENDROOT
BRANCH   1  13
HETATM   13  N   UNK N   1      26.772  25.558  -3.613  0.00  0.00    -0.327 N 
HETATM   14  H   UNK N   1      26.107  25.188  -2.988  0.00  0.00     0.169 HD
BRANCH  13  15
HETATM   15  C   UNK N   1      26.671  26.972  -3.703  0.00  0.00     0.123 A 
HETATM   16  C   UNK N   1      27.390  27.842  -4.493  0.00  0.00     0.075 A 
HETATM   17  C   UNK N   1      26.872  29.076  -4.168  0.00  0.00     0.025 A 
HETATM   18  C   UNK N   1      27.302  30.377  -4.742  0.00  0.00     0.070 C 
HETATM   19  N   UNK N   1      25.906  28.944  -3.244  0.00  0.00    -0.304 N 
HETATM   20  N   UNK N   1      25.784  27.660  -2.961  0.00  0.00    -0.285 N 
HETATM   21  H   UNK N   1      25.381  29.676  -2.848  0.00  0.00     0.186 HD
ATOM     22  HN  UNK N   1      25.127  27.258  -2.292  1.00  0.00     0.188 HD
ENDBRANCH  13  15
ENDBRANCH   1  13
BRANCH  10  23
HETATM   23  C   UNK N   1      30.702  22.893  -2.938  0.00  0.00     0.218 C 
BRANCH  23  24
HETATM   24  C   UNK N   1      32.028  22.366  -3.448  0.00  0.00    -0.022 A 
HETATM   25  C   UNK N   1      32.668  22.973  -4.538  0.00  0.00     0.013 A 
HETATM   26  C   UNK N   1      33.894  22.475  -5.000  0.00  0.00     0.043 A 
HETATM   27  C   UNK N   1      34.485  21.369  -4.376  0.00  0.00     0.116 A 
HETATM   28  C   UNK N   1      33.854  20.762  -3.294  0.00  0.00     0.043 A 
HETATM   29  F   UNK N   1      35.669  20.885  -4.820  0.00  0.00    -0.206 F 
HETATM   30  C   UNK N   1      32.636  21.258  -2.836  0.00  0.00     0.013 A 
ENDBRANCH  23  24
BRANCH  23  31
HETATM   31  O   UNK N   1      30.547  23.094  -1.564  0.00  0.00    -0.383 OA
HETATM   32  H   UNK N   1      31.273  23.473  -1.043  0.00  0.00     0.211 HD
ENDBRANCH  23  31
ENDBRANCH  10  23
TORSDOF 5
ENDMDL
MODEL 7
REMARK VINA RESULT:      -7.8      8.997     12.554
REMARK  5 active torsions:
REMARK  status: ('A' for Active; 'I' for Inactive)
REMARK    1  A    between atoms: C_4  and  N_8 
REMARK    2  A    between atoms: N_8  and  C_9 
REMARK    3  A    between atoms: C_18  and  C_21 
REMARK    4  A    between atoms: C_21  and  C_22 
REMARK    5  A    between atoms: C_21  and  O_29 
ROOT
HETATM    1  C   UNK N   1      22.726  14.521   7.544  0.00  0.00     0.120 A 
HETATM    2  C   UNK N   1      22.729  13.649   8.663  0.00  0.00     0.035 A 
HETATM    3  C   UNK N   1      23.782  12.785   8.968  0.00  0.00     0.017 A 
HETATM    4  C   UNK N   1      23.729  11.948  10.084  0.00  0.00     0.001 A 
HETATM    5  C   UNK N   1      22.610  11.964  10.918  0.00  0.00     0.002 A 
HETATM    6  C   UNK N   1      21.544  12.819  10.636  0.00  0.00     0.030 A 
HETATM    7  C   UNK N   1      21.591  13.659   9.519  0.00  0.00     0.047 A 
HETATM    8  N   UNK N   1      20.544  14.486   9.258  0.00  0.00    -0.343 N 
ATOM      9  HN  UNK N   1      19.733  14.486   9.878  1.00  0.00     0.167 HD
HETATM   10  C   UNK N   1      20.568  15.310   8.181  0.00  0.00     0.117 A 
HETATM   11  N   UNK N   1      21.644  15.307   7.363  0.00  0.00    -0.329 N 
ATOM     12  HN  UNK N   1      21.637  15.936   6.560  1.00  0.00     0.168 HD
ENDROOT
BRANCH   1  13
HETATM   13  N   UNK N   1      23.760  14.667   6.566  0.00  0.00    -0.327 N 
HETATM   14  H   UNK N   1      23.651  14.030   5.825  0.00  0.00     0.169 HD
BRANCH  13  15
HETATM   15  C   UNK N   1      24.904  15.489   6.383  0.00  0.00     0.123 A 
HETATM   16  C   UNK N   1      26.205  15.261   6.773  0.00  0.00     0.075 A 
HETATM   17  C   UNK N   1      26.875  16.382   6.336  0.00  0.00     0.025 A 
HETATM   18  C   UNK N   1      28.326  16.648   6.504  0.00  0.00     0.070 C 
HETATM   19  N   UNK N   1      26.022  17.221   5.725  0.00  0.00    -0.304 N 
HETATM   20  N   UNK N   1      24.820  16.676   5.754  0.00  0.00    -0.285 N 
HETATM   21  H   UNK N   1      26.253  18.090   5.326  0.00  0.00     0.186 HD
ATOM     22  HN  UNK N   1      23.971  17.086   5.365  1.00  0.00     0.188 HD
ENDBRANCH  13  15
ENDBRANCH   1  13
BRANCH  10  23
HETATM   23  C   UNK N   1      19.419  16.232   7.874  0.00  0.00     0.218 C 
BRANCH  23  24
HETATM   24  C   UNK N   1      18.816  17.175   8.895  0.00  0.00    -0.022 A 
HETATM   25  C   UNK N   1      19.551  18.263   9.388  0.00  0.00     0.013 A 
HETATM   26  C   UNK N   1      18.980  19.128  10.332  0.00  0.00     0.043 A 
HETATM   27  C   UNK N   1      17.674  18.909  10.788  0.00  0.00     0.116 A 
HETATM   28  C   UNK N   1      16.939  17.831  10.302  0.00  0.00     0.043 A 
HETATM   29  F   UNK N   1      17.120  19.743  11.700  0.00  0.00    -0.206 F 
HETATM   30  C   UNK N   1      17.507  16.973   9.364  0.00  0.00     0.013 A 
ENDBRANCH  23  24
BRANCH  23  31
HETATM   31  O   UNK N   1      18.886  16.215   6.582  0.00  0.00    -0.383 OA
HETATM   32  H   UNK N   1      19.382  15.799   5.858  0.00  0.00     0.211 HD
ENDBRANCH  23  31
ENDBRANCH  10  23
TORSDOF 5
ENDMDL
MODEL 8
REMARK VINA RESULT:      -7.7      2.155      5.062
REMARK  5 active torsions:
REMARK  status: ('A' for Active; 'I' for Inactive)
REMARK    1  A    between atoms: C_4  and  N_8 
REMARK    2  A    between atoms: N_8  and  C_9 
REMARK    3  A    between atoms: C_18  and  C_21 
REMARK    4  A    between atoms: C_21  and  C_22 
REMARK    5  A    between atoms: C_21  and  O_29 
ROOT
HETATM    1  C   UNK N   1      31.376  17.081   6.418  0.00  0.00     0.120 A 
HETATM    2  C   UNK N   1      30.273  17.379   7.259  0.00  0.00     0.035 A 
HETATM    3  C   UNK N   1      28.941  17.282   6.853  0.00  0.00     0.017 A 
HETATM    4  C   UNK N   1      27.896  17.589   7.726  0.00  0.00     0.001 A 
HETATM    5  C   UNK N   1      28.172  18.001   9.030  0.00  0.00     0.002 A 
HETATM    6  C   UNK N   1      29.495  18.107   9.462  0.00  0.00     0.030 A 
HETATM    7  C   UNK N   1      30.546  17.801   8.591  0.00  0.00     0.047 A 
HETATM    8  N   UNK N   1      31.829  17.908   9.028  0.00  0.00    -0.343 N 
ATOM      9  HN  UNK N   1      32.015  18.211   9.984  1.00  0.00     0.167 HD
HETATM   10  C   UNK N   1      32.864  17.617   8.201  0.00  0.00     0.117 A 
HETATM   11  N   UNK N   1      32.615  17.216   6.935  0.00  0.00    -0.329 N 
ATOM     12  HN  UNK N   1      33.411  17.003   6.334  1.00  0.00     0.168 HD
ENDROOT
BRANCH   1  13
HETATM   13  N   UNK N   1      31.324  16.644   5.056  0.00  0.00    -0.327 N 
HETATM   14  H   UNK N   1      30.432  16.786   4.664  0.00  0.00     0.169 HD
BRANCH  13  15
HETATM   15  C   UNK N   1      32.219  16.061   4.121  0.00  0.00     0.123 A 
HETATM   16  C   UNK N   1      32.756  14.792   4.112  0.00  0.00     0.075 A 
HETATM   17  C   UNK N   1      33.545  14.783   2.983  0.00  0.00     0.025 A 
HETATM   18  C   UNK N   1      34.359  13.639   2.501  0.00  0.00     0.070 C 
HETATM   19  N   UNK N   1      33.478  15.973   2.363  0.00  0.00    -0.304 N 
HETATM   20  N   UNK N   1      32.669  16.752   3.057  0.00  0.00    -0.285 N 
HETATM   21  H   UNK N   1      33.950  16.220   1.535  0.00  0.00     0.186 HD
ATOM     22  HN  UNK N   1      32.427  17.716   2.826  1.00  0.00     0.188 HD
ENDBRANCH  13  15
ENDBRANCH   1  13
BRANCH  10  23
HETATM   23  C   UNK N   1      34.292  17.729   8.664  0.00  0.00     0.218 C 
BRANCH  23  24
HETATM   24  C   UNK N   1      35.017  16.621   9.399  0.00  0.00    -0.022 A 
HETATM   25  C   UNK N   1      35.362  16.763  10.750  0.00  0.00     0.013 A 
HETATM   26  C   UNK N   1      36.032  15.729  11.419  0.00  0.00     0.043 A 
HETATM   27  C   UNK N   1      36.361  14.550  10.739  0.00  0.00     0.116 A 
HETATM   28  C   UNK N   1      36.022  14.402   9.397  0.00  0.00     0.043 A 
HETATM   29  F   UNK N   1      37.009  13.549  11.382  0.00  0.00    -0.206 F 
HETATM   30  C   UNK N   1      35.356  15.430   8.735  0.00  0.00     0.013 A 
ENDBRANCH  23  24
BRANCH  23  31
HETATM   31  O   UNK N   1      34.979  18.918   8.401  0.00  0.00    -0.383 OA
HETATM   32  H   UNK N   1      35.696  18.929   7.746  0.00  0.00     0.211 HD
ENDBRANCH  23  31
ENDBRANCH  10  23
TORSDOF 5
ENDMDL
MODEL 9
REMARK VINA RESULT:      -7.7      2.288      5.388
REMARK  5 active torsions:
REMARK  status: ('A' for Active; 'I' for Inactive)
REMARK    1  A    between atoms: C_4  and  N_8 
REMARK    2  A    between atoms: N_8  and  C_9 
REMARK    3  A    between atoms: C_18  and  C_21 
REMARK    4  A    between atoms: C_21  and  C_22 
REMARK    5  A    between atoms: C_21  and  O_29 
ROOT
HETATM    1  C   UNK N   1      29.257  17.916   5.190  0.00  0.00     0.120 A 
HETATM    2  C   UNK N   1      28.284  18.944   5.298  0.00  0.00     0.035 A 
HETATM    3  C   UNK N   1      27.609  19.489   4.204  0.00  0.00     0.017 A 
HETATM    4  C   UNK N   1      26.661  20.500   4.373  0.00  0.00     0.001 A 
HETATM    5  C   UNK N   1      26.373  20.983   5.650  0.00  0.00     0.002 A 
HETATM    6  C   UNK N   1      27.034  20.456   6.759  0.00  0.00     0.030 A 
HETATM    7  C   UNK N   1      27.985  19.443   6.597  0.00  0.00     0.047 A 
HETATM    8  N   UNK N   1      28.620  18.940   7.689  0.00  0.00    -0.343 N 
ATOM      9  HN  UNK N   1      28.398  19.304   8.616  1.00  0.00     0.167 HD
HETATM   10  C   UNK N   1      29.545  17.958   7.556  0.00  0.00     0.117 A 
HETATM   11  N   UNK N   1      29.837  17.477   6.327  0.00  0.00    -0.329 N 
ATOM     12  HN  UNK N   1      30.536  16.739   6.254  1.00  0.00     0.168 HD
ENDROOT
BRANCH   1  13
HETATM   13  N   UNK N   1      29.703  17.279   3.989  0.00  0.00    -0.327 N 
HETATM   14  H   UNK N   1      29.009  17.293   3.291  0.00  0.00     0.169 HD
BRANCH  13  15
HETATM   15  C   UNK N   1      30.884  16.632   3.536  0.00  0.00     0.123 A 
HETATM   16  C   UNK N   1      31.225  15.300   3.617  0.00  0.00     0.075 A 
HETATM   17  C   UNK N   1      32.468  15.249   3.025  0.00  0.00     0.025 A 
HETATM   18  C   UNK N   1      33.297  14.030   2.848  0.00  0.00     0.070 C 
HETATM   19  N   UNK N   1      32.838  16.475   2.618  0.00  0.00    -0.304 N 
HETATM   20  N   UNK N   1      31.871  17.319   2.931  0.00  0.00    -0.285 N 
HETATM   21  H   UNK N   1      33.681  16.704   2.167  0.00  0.00     0.186 HD
ATOM     22  HN  UNK N   1      31.872  18.322   2.744  1.00  0.00     0.188 HD
ENDBRANCH  13  15
ENDBRANCH   1  13
BRANCH  10  23
HETATM   23  C   UNK N   1      30.260  17.387   8.752  0.00  0.00     0.218 C 
BRANCH  23  24
HETATM   24  C   UNK N   1      31.687  16.881   8.703  0.00  0.00    -0.022 A 
HETATM   25  C   UNK N   1      31.979  15.535   8.965  0.00  0.00     0.013 A 
HETATM   26  C   UNK N   1      33.304  15.080   8.917  0.00  0.00     0.043 A 
HETATM   27  C   UNK N   1      34.342  15.967   8.606  0.00  0.00     0.116 A 
HETATM   28  C   UNK N   1      34.058  17.305   8.344  0.00  0.00     0.043 A 
HETATM   29  F   UNK N   1      35.623  15.531   8.558  0.00  0.00    -0.206 F 
HETATM   30  C   UNK N   1      32.742  17.755   8.393  0.00  0.00     0.013 A 
ENDBRANCH  23  24
BRANCH  23  31
HETATM   31  O   UNK N   1      29.568  17.322   9.964  0.00  0.00    -0.383 OA
HETATM   32  H   UNK N   1      30.041  17.095  10.781  0.00  0.00     0.211 HD
ENDBRANCH  23  31
ENDBRANCH  10  23
TORSDOF 5
ENDMDL
