MODEL 1
REMARK VINA RESULT:      -8.6      0.000      0.000
REMARK  5 active torsions:
REMARK  status: ('A' for Active; 'I' for Inactive)
REMARK    1  A    between atoms: C_3  and  C_29 
REMARK    2  A    between atoms: C_7  and  C_5 
REMARK    3  A    between atoms: C_7  and  C_19 
REMARK    4  A    between atoms: C_14  and  N_17 
REMARK    5  A    between atoms: C_24  and  C_26 
ROOT
HETATM    1  C   UNK N   1      21.711  16.674   4.706  0.00  0.00     0.115 A 
HETATM    2  C   UNK N   1      21.572  15.760   3.497  0.00  0.00    -0.004 A 
HETATM    3  C   UNK N   1      22.347  14.656   3.113  0.00  0.00     0.011 A 
HETATM    4  C   UNK N   1      22.137  14.100   1.838  0.00  0.00     0.004 A 
HETATM    5  C   UNK N   1      21.177  14.657   0.966  0.00  0.00     0.043 A 
HETATM    6  C   UNK N   1      20.409  15.757   1.379  0.00  0.00     0.131 A 
HETATM    7  C   UNK N   1      20.631  16.280   2.649  0.00  0.00     0.055 A 
HETATM    8  C   UNK N   1      20.069  17.414   3.321  0.00  0.00     0.110 A 
HETATM    9  N   UNK N   1      20.653  17.650   4.432  0.00  0.00    -0.354 N 
ATOM     10  HN  UNK N   1      20.413  18.424   5.052  1.00  0.00     0.163 HD
HETATM   11  F   UNK N   1      19.513  16.328   0.535  0.00  0.00    -0.205 F 
ENDROOT
BRANCH   1  12
HETATM   12  C   UNK N   1      21.463  16.063   6.100  0.00  0.00    -0.020 A 
HETATM   13  C   UNK N   1      20.872  16.880   7.052  0.00  0.00     0.022 A 
HETATM   14  C   UNK N   1      20.274  16.414   8.198  0.00  0.00    -0.023 A 
HETATM   15  C   UNK N   1      20.246  15.034   8.435  0.00  0.00     0.012 A 
HETATM   16  C   UNK N   1      20.891  14.169   7.525  0.00  0.00     0.002 A 
HETATM   17  C   UNK N   1      21.471  14.676   6.340  0.00  0.00     0.010 A 
BRANCH  14  18
HETATM   18  C   UNK N   1      19.376  17.368   8.852  0.00  0.00     0.005 A 
HETATM   19  C   UNK N   1      18.063  17.054   9.194  0.00  0.00     0.102 A 
HETATM   20  N   UNK N   1      17.356  17.902   9.991  0.00  0.00    -0.361 N 
HETATM   21  C   UNK N   1      17.914  19.046  10.472  0.00  0.00     0.180 A 
ATOM     22  HN  UNK N   1      16.391  17.676  10.231  1.00  0.00     0.166 HD
HETATM   23  N   UNK N   1      19.197  19.362  10.164  0.00  0.00    -0.361 N 
HETATM   24  C   UNK N   1      19.937  18.536   9.386  0.00  0.00     0.102 A 
ATOM     25  HN  UNK N   1      19.607  20.226  10.519  1.00  0.00     0.166 HD
ENDBRANCH  14  18
ENDBRANCH   1  12
BRANCH   1  26
HETATM   26  C   UNK N   1      23.074  17.403   4.651  0.00  0.00    -0.017 A 
HETATM   27  C   UNK N   1      24.224  16.810   5.204  0.00  0.00     0.027 A 
HETATM   28  C   UNK N   1      25.471  17.406   5.031  0.00  0.00     0.089 A 
HETATM   29  N   UNK N   1      25.572  18.594   4.382  0.00  0.00    -0.365 N 
HETATM   30  C   UNK N   1      24.474  19.238   3.903  0.00  0.00     0.074 A 
ATOM     31  HN  UNK N   1      26.493  19.014   4.250  1.00  0.00     0.165 HD
HETATM   32  C   UNK N   1      23.216  18.643   4.014  0.00  0.00     0.041 A 
BRANCH  30  33
HETATM   33  C   UNK N   1      24.620  20.590   3.285  0.00  0.00     0.403 C 
HETATM   34  F   UNK N   1      23.377  21.066   2.918  0.00  0.00    -0.208 F 
HETATM   35  F   UNK N   1      25.420  20.524   2.154  0.00  0.00    -0.208 F 
ENDBRANCH  30  33
ENDBRANCH   1  26
BRANCH   8  36
HETATM   36  N   UNK N   1      19.012  18.218   2.824  0.00  0.00    -0.385 N 
HETATM   37  H   UNK N   1      18.719  19.152   2.716  0.00  0.00     0.157 HD
HETATM   38  H   UNK N   1      18.320  17.627   2.448  0.00  0.00     0.157 HD
ENDBRANCH   8  36
TORSDOF 5
ENDMDL
MODEL 2
REMARK VINA RESULT:      -8.5      4.627      8.297
REMARK  5 active torsions:
REMARK  status: ('A' for Active; 'I' for Inactive)
REMARK    1  A    between atoms: C_3  and  C_29 
REMARK    2  A    between atoms: C_7  and  C_5 
REMARK    3  A    between atoms: C_7  and  C_19 
REMARK    4  A    between atoms: C_14  and  N_17 
REMARK    5  A    between atoms: C_24  and  C_26 
ROOT
HETATM    1  C   UNK N   1      27.710  17.381   5.903  0.00  0.00     0.115 A 
HETATM    2  C   UNK N   1      29.219  17.303   6.087  0.00  0.00    -0.004 A 
HETATM    3  C   UNK N   1      30.201  16.783   5.232  0.00  0.00     0.011 A 
HETATM    4  C   UNK N   1      31.512  16.643   5.723  0.00  0.00     0.004 A 
HETATM    5  C   UNK N   1      31.819  17.005   7.052  0.00  0.00     0.043 A 
HETATM    6  C   UNK N   1      30.818  17.532   7.884  0.00  0.00     0.131 A 
HETATM    7  C   UNK N   1      29.533  17.669   7.369  0.00  0.00     0.055 A 
HETATM    8  C   UNK N   1      28.307  18.101   7.974  0.00  0.00     0.110 A 
HETATM    9  N   UNK N   1      27.307  17.939   7.197  0.00  0.00    -0.354 N 
ATOM     10  HN  UNK N   1      26.345  18.168   7.448  1.00  0.00     0.163 HD
HETATM   11  F   UNK N   1      31.089  17.844   9.177  0.00  0.00    -0.205 F 
ENDROOT
BRANCH   1  12
HETATM   12  C   UNK N   1      27.169  18.297   4.787  0.00  0.00    -0.020 A 
HETATM   13  C   UNK N   1      25.825  18.176   4.464  0.00  0.00     0.022 A 
HETATM   14  C   UNK N   1      25.115  19.122   3.767  0.00  0.00    -0.023 A 
HETATM   15  C   UNK N   1      25.768  20.289   3.351  0.00  0.00     0.012 A 
HETATM   16  C   UNK N   1      27.150  20.428   3.601  0.00  0.00     0.002 A 
HETATM   17  C   UNK N   1      27.846  19.450   4.347  0.00  0.00     0.010 A 
BRANCH  14  18
HETATM   18  C   UNK N   1      23.660  19.003   3.881  0.00  0.00     0.005 A 
HETATM   19  C   UNK N   1      23.041  18.275   4.894  0.00  0.00     0.102 A 
HETATM   20  N   UNK N   1      21.695  18.383   5.072  0.00  0.00    -0.361 N 
HETATM   21  C   UNK N   1      20.944  19.204   4.287  0.00  0.00     0.180 A 
ATOM     22  HN  UNK N   1      21.242  17.839   5.807  1.00  0.00     0.166 HD
HETATM   23  N   UNK N   1      21.531  19.935   3.307  0.00  0.00    -0.361 N 
HETATM   24  C   UNK N   1      22.869  19.864   3.108  0.00  0.00     0.102 A 
ATOM     25  HN  UNK N   1      20.962  20.540   2.715  1.00  0.00     0.166 HD
ENDBRANCH  14  18
ENDBRANCH   1  12
BRANCH   1  26
HETATM   26  C   UNK N   1      27.128  15.953   5.784  0.00  0.00    -0.017 A 
HETATM   27  C   UNK N   1      27.468  15.132   4.693  0.00  0.00     0.027 A 
HETATM   28  C   UNK N   1      27.052  13.803   4.661  0.00  0.00     0.089 A 
HETATM   29  N   UNK N   1      26.264  13.314   5.652  0.00  0.00    -0.365 N 
HETATM   30  C   UNK N   1      25.848  14.098   6.682  0.00  0.00     0.074 A 
ATOM     31  HN  UNK N   1      25.978  12.335   5.624  1.00  0.00     0.165 HD
HETATM   32  C   UNK N   1      26.289  15.420   6.771  0.00  0.00     0.041 A 
BRANCH  30  33
HETATM   33  C   UNK N   1      24.900  13.546   7.696  0.00  0.00     0.403 C 
HETATM   34  F   UNK N   1      23.700  14.226   7.623  0.00  0.00    -0.208 F 
HETATM   35  F   UNK N   1      25.415  13.695   8.975  0.00  0.00    -0.208 F 
ENDBRANCH  30  33
ENDBRANCH   1  26
BRANCH   8  36
HETATM   36  N   UNK N   1      28.183  18.621   9.286  0.00  0.00    -0.385 N 
HETATM   37  H   UNK N   1      27.841  18.411  10.186  0.00  0.00     0.157 HD
HETATM   38  H   UNK N   1      28.587  19.519   9.307  0.00  0.00     0.157 HD
ENDBRANCH   8  36
TORSDOF 5
ENDMDL
MODEL 3
REMARK VINA RESULT:      -8.4      8.788     12.462
REMARK  5 active torsions:
REMARK  status: ('A' for Active; 'I' for Inactive)
REMARK    1  A    between atoms: C_3  and  C_29 
REMARK    2  A    between atoms: C_7  and  C_5 
REMARK    3  A    between atoms: C_7  and  C_19 
REMARK    4  A    between atoms: C_14  and  N_17 
REMARK    5  A    between atoms: C_24  and  C_26 
ROOT
HETATM    1  C   UNK N   1      32.054  15.826   6.742  0.00  0.00     0.115 A 
HETATM    2  C   UNK N   1      32.566  15.707   5.313  0.00  0.00    -0.004 A 
HETATM    3  C   UNK N   1      32.699  16.691   4.322  0.00  0.00     0.011 A 
HETATM    4  C   UNK N   1      33.007  16.285   3.011  0.00  0.00     0.004 A 
HETATM    5  C   UNK N   1      33.161  14.917   2.705  0.00  0.00     0.043 A 
HETATM    6  C   UNK N   1      33.031  13.953   3.717  0.00  0.00     0.131 A 
HETATM    7  C   UNK N   1      32.737  14.383   5.007  0.00  0.00     0.055 A 
HETATM    8  C   UNK N   1      32.481  13.657   6.217  0.00  0.00     0.110 A 
HETATM    9  N   UNK N   1      32.097  14.423   7.163  0.00  0.00    -0.354 N 
ATOM     10  HN  UNK N   1      31.848  14.097   8.097  1.00  0.00     0.163 HD
HETATM   11  F   UNK N   1      33.135  12.631   3.428  0.00  0.00    -0.205 F 
ENDROOT
BRANCH   1  12
HETATM   12  C   UNK N   1      32.887  16.660   7.735  0.00  0.00    -0.020 A 
HETATM   13  C   UNK N   1      33.331  16.019   8.882  0.00  0.00     0.022 A 
HETATM   14  C   UNK N   1      34.347  16.488   9.680  0.00  0.00    -0.023 A 
HETATM   15  C   UNK N   1      34.987  17.683   9.327  0.00  0.00     0.012 A 
HETATM   16  C   UNK N   1      34.527  18.403   8.204  0.00  0.00     0.002 A 
HETATM   17  C   UNK N   1      33.500  17.878   7.387  0.00  0.00     0.010 A 
BRANCH  14  18
HETATM   18  C   UNK N   1      34.926  15.493  10.584  0.00  0.00     0.005 A 
HETATM   19  C   UNK N   1      36.016  15.766  11.406  0.00  0.00     0.102 A 
HETATM   20  N   UNK N   1      36.365  14.875  12.376  0.00  0.00    -0.361 N 
HETATM   21  C   UNK N   1      35.657  13.729  12.568  0.00  0.00     0.180 A 
ATOM     22  HN  UNK N   1      37.172  15.072  12.968  1.00  0.00     0.166 HD
HETATM   23  N   UNK N   1      34.581  13.454  11.789  0.00  0.00    -0.361 N 
HETATM   24  C   UNK N   1      34.194  14.321  10.823  0.00  0.00     0.102 A 
ATOM     25  HN  UNK N   1      34.060  12.588  11.930  1.00  0.00     0.166 HD
ENDBRANCH  14  18
ENDBRANCH   1  12
BRANCH   1  26
HETATM   26  C   UNK N   1      30.578  16.286   6.726  0.00  0.00    -0.017 A 
HETATM   27  C   UNK N   1      29.699  15.830   5.727  0.00  0.00     0.027 A 
HETATM   28  C   UNK N   1      28.342  16.137   5.795  0.00  0.00     0.089 A 
HETATM   29  N   UNK N   1      27.874  16.929   6.793  0.00  0.00    -0.365 N 
HETATM   30  C   UNK N   1      28.705  17.455   7.732  0.00  0.00     0.074 A 
ATOM     31  HN  UNK N   1      26.875  17.135   6.840  1.00  0.00     0.165 HD
HETATM   32  C   UNK N   1      30.062  17.126   7.722  0.00  0.00     0.041 A 
BRANCH  30  33
HETATM   33  C   UNK N   1      28.164  18.404   8.751  0.00  0.00     0.403 C 
HETATM   34  F   UNK N   1      27.646  19.516   8.116  0.00  0.00    -0.208 F 
HETATM   35  F   UNK N   1      29.168  18.815   9.614  0.00  0.00    -0.208 F 
ENDBRANCH  30  33
ENDBRANCH   1  26
BRANCH   8  36
HETATM   36  N   UNK N   1      32.601  12.252   6.367  0.00  0.00    -0.385 N 
HETATM   37  H   UNK N   1      32.380  11.505   6.968  0.00  0.00     0.157 HD
HETATM   38  H   UNK N   1      33.079  11.893   5.584  0.00  0.00     0.157 HD
ENDBRANCH   8  36
TORSDOF 5
ENDMDL
MODEL 4
REMARK VINA RESULT:      -8.2      4.491      8.122
REMARK  5 active torsions:
REMARK  status: ('A' for Active; 'I' for Inactive)
REMARK    1  A    between atoms: C_3  and  C_29 
REMARK    2  A    between atoms: C_7  and  C_5 
REMARK    3  A    between atoms: C_7  and  C_19 
REMARK    4  A    between atoms: C_14  and  N_17 
REMARK    5  A    between atoms: C_24  and  C_26 
ROOT
HETATM    1  C   UNK N   1      27.626  17.372   5.561  0.00  0.00     0.115 A 
HETATM    2  C   UNK N   1      29.123  17.430   5.828  0.00  0.00    -0.004 A 
HETATM    3  C   UNK N   1      30.198  17.129   4.979  0.00  0.00     0.011 A 
HETATM    4  C   UNK N   1      31.491  17.067   5.531  0.00  0.00     0.004 A 
HETATM    5  C   UNK N   1      31.690  17.288   6.910  0.00  0.00     0.043 A 
HETATM    6  C   UNK N   1      30.598  17.596   7.736  0.00  0.00     0.131 A 
HETATM    7  C   UNK N   1      29.332  17.661   7.162  0.00  0.00     0.055 A 
HETATM    8  C   UNK N   1      28.037  17.883   7.737  0.00  0.00     0.110 A 
HETATM    9  N   UNK N   1      27.101  17.716   6.885  0.00  0.00    -0.354 N 
ATOM     10  HN  UNK N   1      26.108  17.809   7.101  1.00  0.00     0.163 HD
HETATM   11  F   UNK N   1      30.769  17.769   9.071  0.00  0.00    -0.205 F 
ENDROOT
BRANCH   1  12
HETATM   12  C   UNK N   1      27.041  18.359   4.532  0.00  0.00    -0.020 A 
HETATM   13  C   UNK N   1      25.685  18.259   4.258  0.00  0.00     0.022 A 
HETATM   14  C   UNK N   1      24.948  19.250   3.656  0.00  0.00    -0.023 A 
HETATM   15  C   UNK N   1      25.586  20.442   3.292  0.00  0.00     0.012 A 
HETATM   16  C   UNK N   1      26.977  20.565   3.492  0.00  0.00     0.002 A 
HETATM   17  C   UNK N   1      27.702  19.540   4.142  0.00  0.00     0.010 A 
BRANCH  14  18
HETATM   18  C   UNK N   1      23.499  19.122   3.822  0.00  0.00     0.005 A 
HETATM   19  C   UNK N   1      22.588  19.902   3.114  0.00  0.00     0.102 A 
HETATM   20  N   UNK N   1      21.263  19.586   3.150  0.00  0.00    -0.361 N 
HETATM   21  C   UNK N   1      20.814  18.510   3.853  0.00  0.00     0.180 A 
ATOM     22  HN  UNK N   1      20.597  20.166   2.640  1.00  0.00     0.166 HD
HETATM   23  N   UNK N   1      21.688  17.728   4.535  0.00  0.00    -0.361 N 
HETATM   24  C   UNK N   1      23.015  18.002   4.512  0.00  0.00     0.102 A 
ATOM     25  HN  UNK N   1      21.345  16.929   5.069  1.00  0.00     0.166 HD
ENDBRANCH  14  18
ENDBRANCH   1  12
BRANCH   1  26
HETATM   26  C   UNK N   1      27.214  15.917   5.235  0.00  0.00    -0.017 A 
HETATM   27  C   UNK N   1      26.603  15.113   6.214  0.00  0.00     0.027 A 
HETATM   28  C   UNK N   1      26.111  13.854   5.878  0.00  0.00     0.089 A 
HETATM   29  N   UNK N   1      26.276  13.373   4.619  0.00  0.00    -0.365 N 
HETATM   30  C   UNK N   1      26.932  14.089   3.666  0.00  0.00     0.074 A 
ATOM     31  HN  UNK N   1      25.899  12.456   4.381  1.00  0.00     0.165 HD
HETATM   32  C   UNK N   1      27.392  15.374   3.956  0.00  0.00     0.041 A 
BRANCH  30  33
HETATM   33  C   UNK N   1      27.179  13.480   2.324  0.00  0.00     0.403 C 
HETATM   34  F   UNK N   1      28.048  14.281   1.608  0.00  0.00    -0.208 F 
HETATM   35  F   UNK N   1      25.993  13.369   1.614  0.00  0.00    -0.208 F 
ENDBRANCH  30  33
ENDBRANCH   1  26
BRANCH   8  36
HETATM   36  N   UNK N   1      27.792  18.216   9.092  0.00  0.00    -0.385 N 
HETATM   37  H   UNK N   1      27.855  17.867  10.011  0.00  0.00     0.157 HD
HETATM   38  H   UNK N   1      27.426  19.130   9.129  0.00  0.00     0.157 HD
ENDBRANCH   8  36
TORSDOF 5
ENDMDL
MODEL 5
REMARK VINA RESULT:      -8.1      4.211      7.763
REMARK  5 active torsions:
REMARK  status: ('A' for Active; 'I' for Inactive)
REMARK    1  A    between atoms: C_3  and  C_29 
REMARK    2  A    between atoms: C_7  and  C_5 
REMARK    3  A    between atoms: C_7  and  C_19 
REMARK    4  A    between atoms: C_14  and  N_17 
REMARK    5  A    between atoms: C_24  and  C_26 
ROOT
HETATM    1  C   UNK N   1      28.317  16.934   5.994  0.00  0.00     0.115 A 
HETATM    2  C   UNK N   1      28.905  17.323   7.343  0.00  0.00    -0.004 A 
HETATM    3  C   UNK N   1      28.259  17.715   8.524  0.00  0.00     0.011 A 
HETATM    4  C   UNK N   1      29.039  18.222   9.579  0.00  0.00     0.004 A 
HETATM    5  C   UNK N   1      30.438  18.346   9.437  0.00  0.00     0.043 A 
HETATM    6  C   UNK N   1      31.061  17.938   8.248  0.00  0.00     0.131 A 
HETATM    7  C   UNK N   1      30.266  17.430   7.224  0.00  0.00     0.055 A 
HETATM    8  C   UNK N   1      30.587  17.001   5.895  0.00  0.00     0.110 A 
HETATM    9  N   UNK N   1      29.541  16.742   5.210  0.00  0.00    -0.354 N 
ATOM     10  HN  UNK N   1      29.555  16.440   4.235  1.00  0.00     0.163 HD
HETATM   11  F   UNK N   1      32.399  18.090   8.082  0.00  0.00    -0.205 F 
ENDROOT
BRANCH   1  12
HETATM   12  C   UNK N   1      27.482  15.641   5.920  0.00  0.00    -0.020 A 
HETATM   13  C   UNK N   1      26.168  15.711   6.357  0.00  0.00     0.022 A 
HETATM   14  C   UNK N   1      25.205  14.781   6.047  0.00  0.00    -0.023 A 
HETATM   15  C   UNK N   1      25.551  13.692   5.238  0.00  0.00     0.012 A 
HETATM   16  C   UNK N   1      26.892  13.545   4.822  0.00  0.00     0.002 A 
HETATM   17  C   UNK N   1      27.852  14.534   5.133  0.00  0.00     0.010 A 
BRANCH  14  18
HETATM   18  C   UNK N   1      23.828  15.233   6.254  0.00  0.00     0.005 A 
HETATM   19  C   UNK N   1      22.976  14.649   7.188  0.00  0.00     0.102 A 
HETATM   20  N   UNK N   1      21.791  15.252   7.485  0.00  0.00    -0.361 N 
HETATM   21  C   UNK N   1      21.431  16.425   6.898  0.00  0.00     0.180 A 
ATOM     22  HN  UNK N   1      21.163  14.815   8.161  1.00  0.00     0.166 HD
HETATM   23  N   UNK N   1      22.255  17.019   5.999  0.00  0.00    -0.361 N 
HETATM   24  C   UNK N   1      23.448  16.458   5.688  0.00  0.00     0.102 A 
ATOM     25  HN  UNK N   1      21.975  17.894   5.554  1.00  0.00     0.166 HD
ENDBRANCH  14  18
ENDBRANCH   1  12
BRANCH   1  26
HETATM   26  C   UNK N   1      27.542  18.134   5.401  0.00  0.00    -0.017 A 
HETATM   27  C   UNK N   1      26.904  18.024   4.152  0.00  0.00     0.027 A 
HETATM   28  C   UNK N   1      26.095  19.058   3.687  0.00  0.00     0.089 A 
HETATM   29  N   UNK N   1      25.969  20.201   4.408  0.00  0.00    -0.365 N 
HETATM   30  C   UNK N   1      26.633  20.376   5.582  0.00  0.00     0.074 A 
ATOM     31  HN  UNK N   1      25.362  20.945   4.064  1.00  0.00     0.165 HD
HETATM   32  C   UNK N   1      27.412  19.340   6.102  0.00  0.00     0.041 A 
BRANCH  30  33
HETATM   33  C   UNK N   1      26.546  21.688   6.293  0.00  0.00     0.403 C 
HETATM   34  F   UNK N   1      27.814  22.218   6.438  0.00  0.00    -0.208 F 
HETATM   35  F   UNK N   1      25.990  21.522   7.552  0.00  0.00    -0.208 F 
ENDBRANCH  30  33
ENDBRANCH   1  26
BRANCH   8  36
HETATM   36  N   UNK N   1      31.897  16.898   5.364  0.00  0.00    -0.385 N 
HETATM   37  H   UNK N   1      32.412  16.529   4.610  0.00  0.00     0.157 HD
HETATM   38  H   UNK N   1      32.517  17.367   5.968  0.00  0.00     0.157 HD
ENDBRANCH   8  36
TORSDOF 5
ENDMDL
MODEL 6
REMARK VINA RESULT:      -8.1      5.505      8.984
REMARK  5 active torsions:
REMARK  status: ('A' for Active; 'I' for Inactive)
REMARK    1  A    between atoms: C_3  and  C_29 
REMARK    2  A    between atoms: C_7  and  C_5 
REMARK    3  A    between atoms: C_7  and  C_19 
REMARK    4  A    between atoms: C_14  and  N_17 
REMARK    5  A    between atoms: C_24  and  C_26 
ROOT
HETATM    1  C   UNK N   1      29.145  16.921   6.137  0.00  0.00     0.115 A 
HETATM    2  C   UNK N   1      28.361  18.114   5.607  0.00  0.00    -0.004 A 
HETATM    3  C   UNK N   1      28.237  18.595   4.296  0.00  0.00     0.011 A 
HETATM    4  C   UNK N   1      27.616  19.842   4.095  0.00  0.00     0.004 A 
HETATM    5  C   UNK N   1      27.147  20.591   5.195  0.00  0.00     0.043 A 
HETATM    6  C   UNK N   1      27.277  20.082   6.497  0.00  0.00     0.131 A 
HETATM    7  C   UNK N   1      27.885  18.843   6.665  0.00  0.00     0.055 A 
HETATM    8  C   UNK N   1      28.219  18.099   7.845  0.00  0.00     0.110 A 
HETATM    9  N   UNK N   1      28.913  17.062   7.577  0.00  0.00    -0.354 N 
ATOM     10  HN  UNK N   1      29.266  16.412   8.280  1.00  0.00     0.163 HD
HETATM   11  F   UNK N   1      26.869  20.811   7.566  0.00  0.00    -0.205 F 
ENDROOT
BRANCH   1  12
HETATM   12  C   UNK N   1      28.690  15.514   5.704  0.00  0.00    -0.020 A 
HETATM   13  C   UNK N   1      27.350  15.353   5.381  0.00  0.00     0.022 A 
HETATM   14  C   UNK N   1      26.856  14.293   4.660  0.00  0.00    -0.023 A 
HETATM   15  C   UNK N   1      27.743  13.306   4.214  0.00  0.00     0.012 A 
HETATM   16  C   UNK N   1      29.105  13.393   4.573  0.00  0.00     0.002 A 
HETATM   17  C   UNK N   1      29.588  14.512   5.289  0.00  0.00     0.010 A 
BRANCH  14  18
HETATM   18  C   UNK N   1      25.525  14.508   4.088  0.00  0.00     0.005 A 
HETATM   19  C   UNK N   1      24.884  15.744   4.117  0.00  0.00     0.102 A 
HETATM   20  N   UNK N   1      23.754  15.931   3.381  0.00  0.00    -0.361 N 
HETATM   21  C   UNK N   1      23.247  14.935   2.603  0.00  0.00     0.180 A 
ATOM     22  HN  UNK N   1      23.279  16.833   3.413  1.00  0.00     0.166 HD
HETATM   23  N   UNK N   1      23.867  13.730   2.548  0.00  0.00    -0.361 N 
HETATM   24  C   UNK N   1      25.001  13.510   3.255  0.00  0.00     0.102 A 
ATOM     25  HN  UNK N   1      23.477  12.984   1.972  1.00  0.00     0.166 HD
ENDBRANCH  14  18
ENDBRANCH   1  12
BRANCH   1  26
HETATM   26  C   UNK N   1      30.652  17.129   5.862  0.00  0.00    -0.017 A 
HETATM   27  C   UNK N   1      31.126  17.268   4.544  0.00  0.00     0.027 A 
HETATM   28  C   UNK N   1      32.460  17.590   4.309  0.00  0.00     0.089 A 
HETATM   29  N   UNK N   1      33.323  17.711   5.350  0.00  0.00    -0.365 N 
HETATM   30  C   UNK N   1      32.922  17.507   6.634  0.00  0.00     0.074 A 
ATOM     31  HN  UNK N   1      34.295  17.962   5.166  1.00  0.00     0.165 HD
HETATM   32  C   UNK N   1      31.580  17.232   6.907  0.00  0.00     0.041 A 
BRANCH  30  33
HETATM   33  C   UNK N   1      33.926  17.550   7.738  0.00  0.00     0.403 C 
HETATM   34  F   UNK N   1      33.492  16.763   8.787  0.00  0.00    -0.208 F 
HETATM   35  F   UNK N   1      34.087  18.849   8.199  0.00  0.00    -0.208 F 
ENDBRANCH  30  33
ENDBRANCH   1  26
BRANCH   8  36
HETATM   36  N   UNK N   1      27.861  18.463   9.167  0.00  0.00    -0.385 N 
HETATM   37  H   UNK N   1      27.624  19.233   9.733  0.00  0.00     0.157 HD
HETATM   38  H   UNK N   1      27.843  17.650   9.722  0.00  0.00     0.157 HD
ENDBRANCH   8  36
TORSDOF 5
ENDMDL
MODEL 7
REMARK VINA RESULT:      -8.1     12.999     15.949
REMARK  5 active torsions:
REMARK  status: ('A' for Active; 'I' for Inactive)
REMARK    1  A    between atoms: C_3  and  C_29 
REMARK    2  A    between atoms: C_7  and  C_5 
REMARK    3  A    between atoms: C_7  and  C_19 
REMARK    4  A    between atoms: C_14  and  N_17 
REMARK    5  A    between atoms: C_24  and  C_26 
ROOT
HETATM    1  C   UNK N   1      27.759  25.155  -5.264  0.00  0.00     0.115 A 
HETATM    2  C   UNK N   1      27.183  26.447  -4.703  0.00  0.00    -0.004 A 
HETATM    3  C   UNK N   1      26.017  26.658  -3.953  0.00  0.00     0.011 A 
HETATM    4  C   UNK N   1      25.594  27.981  -3.727  0.00  0.00     0.004 A 
HETATM    5  C   UNK N   1      26.325  29.064  -4.260  0.00  0.00     0.043 A 
HETATM    6  C   UNK N   1      27.493  28.826  -5.000  0.00  0.00     0.131 A 
HETATM    7  C   UNK N   1      27.893  27.508  -5.199  0.00  0.00     0.055 A 
HETATM    8  C   UNK N   1      28.978  26.947  -5.950  0.00  0.00     0.110 A 
HETATM    9  N   UNK N   1      28.913  25.673  -6.006  0.00  0.00    -0.354 N 
ATOM     10  HN  UNK N   1      29.580  25.087  -6.508  1.00  0.00     0.163 HD
HETATM   11  F   UNK N   1      28.182  29.856  -5.555  0.00  0.00    -0.205 F 
ENDROOT
BRANCH   1  12
HETATM   12  C   UNK N   1      28.259  24.097  -4.262  0.00  0.00    -0.020 A 
HETATM   13  C   UNK N   1      29.503  23.534  -4.502  0.00  0.00     0.022 A 
HETATM   14  C   UNK N   1      30.237  22.858  -3.557  0.00  0.00    -0.023 A 
HETATM   15  C   UNK N   1      29.714  22.722  -2.265  0.00  0.00     0.012 A 
HETATM   16  C   UNK N   1      28.424  23.223  -1.990  0.00  0.00     0.002 A 
HETATM   17  C   UNK N   1      27.708  23.940  -2.976  0.00  0.00     0.010 A 
BRANCH  14  18
HETATM   18  C   UNK N   1      31.656  22.702  -3.880  0.00  0.00     0.005 A 
HETATM   19  C   UNK N   1      32.408  21.607  -3.461  0.00  0.00     0.102 A 
HETATM   20  N   UNK N   1      33.654  21.413  -3.975  0.00  0.00    -0.361 N 
HETATM   21  C   UNK N   1      34.174  22.261  -4.904  0.00  0.00     0.180 A 
ATOM     22  HN  UNK N   1      34.207  20.616  -3.658  1.00  0.00     0.166 HD
HETATM   23  N   UNK N   1      33.450  23.324  -5.338  0.00  0.00    -0.361 N 
HETATM   24  C   UNK N   1      32.201  23.542  -4.861  0.00  0.00     0.102 A 
ATOM     25  HN  UNK N   1      33.849  23.962  -6.026  1.00  0.00     0.166 HD
ENDBRANCH  14  18
ENDBRANCH   1  12
BRANCH   1  26
HETATM   26  C   UNK N   1      26.764  24.541  -6.276  0.00  0.00    -0.017 A 
HETATM   27  C   UNK N   1      26.275  25.306  -7.351  0.00  0.00     0.027 A 
HETATM   28  C   UNK N   1      25.489  24.710  -8.334  0.00  0.00     0.089 A 
HETATM   29  N   UNK N   1      25.140  23.403  -8.225  0.00  0.00    -0.365 N 
HETATM   30  C   UNK N   1      25.527  22.650  -7.160  0.00  0.00     0.074 A 
ATOM     31  HN  UNK N   1      24.576  22.974  -8.959  1.00  0.00     0.165 HD
HETATM   32  C   UNK N   1      26.357  23.203  -6.183  0.00  0.00     0.041 A 
BRANCH  30  33
HETATM   33  C   UNK N   1      25.036  21.246  -7.029  0.00  0.00     0.403 C 
HETATM   34  F   UNK N   1      25.101  20.619  -8.259  0.00  0.00    -0.208 F 
HETATM   35  F   UNK N   1      23.719  21.229  -6.594  0.00  0.00    -0.208 F 
ENDBRANCH  30  33
ENDBRANCH   1  26
BRANCH   8  36
HETATM   36  N   UNK N   1      30.000  27.692  -6.591  0.00  0.00    -0.385 N 
HETATM   37  H   UNK N   1      30.178  28.279  -7.361  0.00  0.00     0.157 HD
HETATM   38  H   UNK N   1      30.834  27.584  -6.079  0.00  0.00     0.157 HD
ENDBRANCH   8  36
TORSDOF 5
ENDMDL
MODEL 8
REMARK VINA RESULT:      -8.0     20.273     22.128
REMARK  5 active torsions:
REMARK  status: ('A' for Active; 'I' for Inactive)
REMARK    1  A    between atoms: C_3  and  C_29 
REMARK    2  A    between atoms: C_7  and  C_5 
REMARK    3  A    between atoms: C_7  and  C_19 
REMARK    4  A    between atoms: C_14  and  N_17 
REMARK    5  A    between atoms: C_24  and  C_26 
ROOT
HETATM    1  C   UNK N   1      35.228  10.227  19.980  0.00  0.00     0.115 A 
HETATM    2  C   UNK N   1      35.264  10.767  18.558  0.00  0.00    -0.004 A 
HETATM    3  C   UNK N   1      35.567  10.111  17.356  0.00  0.00     0.011 A 
HETATM    4  C   UNK N   1      35.730  10.884  16.192  0.00  0.00     0.004 A 
HETATM    5  C   UNK N   1      35.605  12.288  16.245  0.00  0.00     0.043 A 
HETATM    6  C   UNK N   1      35.292  12.920  17.459  0.00  0.00     0.131 A 
HETATM    7  C   UNK N   1      35.127  12.130  18.592  0.00  0.00     0.055 A 
HETATM    8  C   UNK N   1      34.875  12.472  19.962  0.00  0.00     0.110 A 
HETATM    9  N   UNK N   1      34.940  11.454  20.729  0.00  0.00    -0.354 N 
ATOM     10  HN  UNK N   1      34.810  11.490  21.741  1.00  0.00     0.163 HD
HETATM   11  F   UNK N   1      35.211  14.272  17.533  0.00  0.00    -0.205 F 
ENDROOT
BRANCH   1  12
HETATM   12  C   UNK N   1      34.150   9.181  20.325  0.00  0.00    -0.020 A 
HETATM   13  C   UNK N   1      33.773   9.074  21.655  0.00  0.00     0.022 A 
HETATM   14  C   UNK N   1      32.616   8.467  22.080  0.00  0.00    -0.023 A 
HETATM   15  C   UNK N   1      31.750   7.919  21.126  0.00  0.00     0.012 A 
HETATM   16  C   UNK N   1      32.122   7.947  19.765  0.00  0.00     0.002 A 
HETATM   17  C   UNK N   1      33.304   8.606  19.357  0.00  0.00     0.010 A 
BRANCH  14  18
HETATM   18  C   UNK N   1      32.210   8.808  23.444  0.00  0.00     0.005 A 
HETATM   19  C   UNK N   1      32.159  10.120  23.909  0.00  0.00     0.102 A 
HETATM   20  N   UNK N   1      31.567  10.385  25.107  0.00  0.00    -0.361 N 
HETATM   21  C   UNK N   1      31.010   9.392  25.852  0.00  0.00     0.180 A 
ATOM     22  HN  UNK N   1      31.542  11.345  25.451  1.00  0.00     0.166 HD
HETATM   23  N   UNK N   1      31.034   8.110  25.408  0.00  0.00    -0.361 N 
HETATM   24  C   UNK N   1      31.600   7.809  24.216  0.00  0.00     0.102 A 
ATOM     25  HN  UNK N   1      30.624   7.368  25.976  1.00  0.00     0.166 HD
ENDBRANCH  14  18
ENDBRANCH   1  12
BRANCH   1  26
HETATM   26  C   UNK N   1      36.636   9.730  20.381  0.00  0.00    -0.017 A 
HETATM   27  C   UNK N   1      37.162   8.549  19.823  0.00  0.00     0.027 A 
HETATM   28  C   UNK N   1      38.480   8.180  20.081  0.00  0.00     0.089 A 
HETATM   29  N   UNK N   1      39.242   8.924  20.922  0.00  0.00    -0.365 N 
HETATM   30  C   UNK N   1      38.746  10.028  21.543  0.00  0.00     0.074 A 
ATOM     31  HN  UNK N   1      40.210   8.651  21.092  1.00  0.00     0.165 HD
HETATM   32  C   UNK N   1      37.445  10.454  21.267  0.00  0.00     0.041 A 
BRANCH  30  33
HETATM   33  C   UNK N   1      39.587  10.759  22.537  0.00  0.00     0.403 C 
HETATM   34  F   UNK N   1      38.938  11.913  22.930  0.00  0.00    -0.208 F 
HETATM   35  F   UNK N   1      40.808  11.107  21.979  0.00  0.00    -0.208 F 
ENDBRANCH  30  33
ENDBRANCH   1  26
BRANCH   8  36
HETATM   36  N   UNK N   1      34.614  13.780  20.442  0.00  0.00    -0.385 N 
HETATM   37  H   UNK N   1      34.464  14.299  21.265  0.00  0.00     0.157 HD
HETATM   38  H   UNK N   1      34.567  14.392  19.672  0.00  0.00     0.157 HD
ENDBRANCH   8  36
TORSDOF 5
ENDMDL
MODEL 9
REMARK VINA RESULT:      -7.9      5.345      7.557
REMARK  5 active torsions:
REMARK  status: ('A' for Active; 'I' for Inactive)
REMARK    1  A    between atoms: C_3  and  C_29 
REMARK    2  A    between atoms: C_7  and  C_5 
REMARK    3  A    between atoms: C_7  and  C_19 
REMARK    4  A    between atoms: C_14  and  N_17 
REMARK    5  A    between atoms: C_24  and  C_26 
ROOT
HETATM    1  C   UNK N   1      27.085  16.401   6.213  0.00  0.00     0.115 A 
HETATM    2  C   UNK N   1      27.087  17.747   5.502  0.00  0.00    -0.004 A 
HETATM    3  C   UNK N   1      26.955  18.040   4.137  0.00  0.00     0.011 A 
HETATM    4  C   UNK N   1      27.195  19.359   3.707  0.00  0.00     0.004 A 
HETATM    5  C   UNK N   1      27.575  20.353   4.634  0.00  0.00     0.043 A 
HETATM    6  C   UNK N   1      27.691  20.034   5.996  0.00  0.00     0.131 A 
HETATM    7  C   UNK N   1      27.438  18.725   6.394  0.00  0.00     0.055 A 
HETATM    8  C   UNK N   1      27.534  18.084   7.673  0.00  0.00     0.110 A 
HETATM    9  N   UNK N   1      27.359  16.823   7.590  0.00  0.00    -0.354 N 
ATOM     10  HN  UNK N   1      27.406  16.185   8.385  1.00  0.00     0.163 HD
HETATM   11  F   UNK N   1      28.096  20.970   6.892  0.00  0.00    -0.205 F 
ENDROOT
BRANCH   1  12
HETATM   12  C   UNK N   1      25.777  15.586   6.203  0.00  0.00    -0.020 A 
HETATM   13  C   UNK N   1      25.668  14.553   7.122  0.00  0.00     0.022 A 
HETATM   14  C   UNK N   1      24.479  13.968   7.483  0.00  0.00    -0.023 A 
HETATM   15  C   UNK N   1      23.292  14.431   6.901  0.00  0.00     0.012 A 
HETATM   16  C   UNK N   1      23.360  15.437   5.914  0.00  0.00     0.002 A 
HETATM   17  C   UNK N   1      24.596  16.040   5.586  0.00  0.00     0.010 A 
BRANCH  14  18
HETATM   18  C   UNK N   1      24.526  13.201   8.730  0.00  0.00     0.005 A 
HETATM   19  C   UNK N   1      25.394  13.514   9.773  0.00  0.00     0.102 A 
HETATM   20  N   UNK N   1      25.237  12.905  10.982  0.00  0.00    -0.361 N 
HETATM   21  C   UNK N   1      24.236  12.007  11.193  0.00  0.00     0.180 A 
ATOM     22  HN  UNK N   1      25.881  13.127  11.741  1.00  0.00     0.166 HD
HETATM   23  N   UNK N   1      23.370  11.703  10.194  0.00  0.00    -0.361 N 
HETATM   24  C   UNK N   1      23.485  12.298   8.983  0.00  0.00     0.102 A 
ATOM     25  HN  UNK N   1      22.629  11.021  10.356  1.00  0.00     0.166 HD
ENDBRANCH  14  18
ENDBRANCH   1  12
BRANCH   1  26
HETATM   26  C   UNK N   1      28.277  15.551   5.716  0.00  0.00    -0.017 A 
HETATM   27  C   UNK N   1      28.058  14.405   4.929  0.00  0.00     0.027 A 
HETATM   28  C   UNK N   1      29.136  13.723   4.371  0.00  0.00     0.089 A 
HETATM   29  N   UNK N   1      30.405  14.124   4.637  0.00  0.00    -0.365 N 
HETATM   30  C   UNK N   1      30.660  15.178   5.457  0.00  0.00     0.074 A 
ATOM     31  HN  UNK N   1      31.186  13.624   4.211  1.00  0.00     0.165 HD
HETATM   32  C   UNK N   1      29.602  15.915   5.992  0.00  0.00     0.041 A 
BRANCH  30  33
HETATM   33  C   UNK N   1      32.073  15.522   5.803  0.00  0.00     0.403 C 
HETATM   34  F   UNK N   1      32.213  16.895   5.854  0.00  0.00    -0.208 F 
HETATM   35  F   UNK N   1      32.942  15.024   4.844  0.00  0.00    -0.208 F 
ENDBRANCH  30  33
ENDBRANCH   1  26
BRANCH   8  36
HETATM   36  N   UNK N   1      27.819  18.741   8.896  0.00  0.00    -0.385 N 
HETATM   37  H   UNK N   1      28.065  19.614   9.280  0.00  0.00     0.157 HD
HETATM   38  H   UNK N   1      27.742  18.087   9.628  0.00  0.00     0.157 HD
ENDBRANCH   8  36
TORSDOF 5
ENDMDL
