MODEL 1
REMARK VINA RESULT:      -7.4      0.000      0.000
REMARK  4 active torsions:
REMARK  status: ('A' for Active; 'I' for Inactive)
REMARK    1  A    between atoms: C_3  and  C_6 
REMARK    2  A    between atoms: C_6  and  O_8 
REMARK    3  A    between atoms: O_8  and  C_9 
REMARK       I    between atoms: N_18  and  C_19 
REMARK    4  A    between atoms: C_19  and  C_21 
ROOT
HETATM    1  C   UNK N   1      32.654  17.797   7.323  0.00  0.00     0.080 A 
HETATM    2  C   UNK N   1      32.121  17.148   6.214  0.00  0.00     0.039 A 
HETATM    3  C   UNK N   1      30.764  16.853   6.155  0.00  0.00     0.033 A 
HETATM    4  C   UNK N   1      29.891  17.191   7.191  0.00  0.00     0.043 A 
HETATM    5  C   UNK N   1      30.437  17.846   8.328  0.00  0.00    -0.028 A 
HETATM    6  C   UNK N   1      31.805  18.146   8.384  0.00  0.00     0.046 A 
HETATM    7  C   UNK N   1      29.573  18.222   9.492  0.00  0.00     0.042 C 
HETATM    8  C   UNK N   1      28.350  17.325   9.567  0.00  0.00     0.025 C 
HETATM    9  C   UNK N   1      27.632  17.372   8.229  0.00  0.00     0.132 C 
HETATM   10  N   UNK N   1      28.472  16.886   7.140  0.00  0.00    -0.315 N 
HETATM   11  C   UNK N   1      27.831  16.205   6.116  0.00  0.00     0.257 C 
HETATM   12  O   UNK N   1      26.626  16.010   6.204  0.00  0.00    -0.270 OA
ENDROOT
BRANCH   1  13
HETATM   13  O   UNK N   1      33.984  18.064   7.320  0.00  0.00    -0.273 OA
BRANCH  13  14
HETATM   14  C   UNK N   1      34.805  18.278   8.381  0.00  0.00     0.322 C 
HETATM   15  O   UNK N   1      35.358  19.353   8.555  0.00  0.00    -0.257 OA
BRANCH  14  16
HETATM   16  C   UNK N   1      35.016  17.178   9.330  0.00  0.00     0.150 A 
HETATM   17  C   UNK N   1      34.729  15.847   9.116  0.00  0.00     0.045 A 
HETATM   18  C   UNK N   1      35.098  15.203  10.284  0.00  0.00     0.027 A 
HETATM   19  C   UNK N   1      35.583  16.182  11.135  0.00  0.00     0.143 A 
HETATM   20  O   UNK N   1      35.518  17.343  10.527  0.00  0.00    -0.317 OA
ENDBRANCH  14  16
ENDBRANCH  13  14
ENDBRANCH   1  13
BRANCH  11  21
HETATM   21  C   UNK N   1      28.483  15.684   4.855  0.00  0.00     0.270 C 
HETATM   22 Cl   UNK N   1      28.857  13.935   4.865  0.00  0.00    -0.098 Cl
HETATM   23 Cl   UNK N   1      27.839  16.304   3.307  0.00  0.00    -0.098 Cl
ENDBRANCH  11  21
TORSDOF 4
ENDMDL
MODEL 2
REMARK VINA RESULT:      -7.3      5.209      8.521
REMARK  4 active torsions:
REMARK  status: ('A' for Active; 'I' for Inactive)
REMARK    1  A    between atoms: C_3  and  C_6 
REMARK    2  A    between atoms: C_6  and  O_8 
REMARK    3  A    between atoms: O_8  and  C_9 
REMARK       I    between atoms: N_18  and  C_19 
REMARK    4  A    between atoms: C_19  and  C_21 
ROOT
HETATM    1  C   UNK N   1      34.963  16.345  10.020  0.00  0.00     0.080 A 
HETATM    2  C   UNK N   1      34.858  16.049  11.374  0.00  0.00     0.039 A 
HETATM    3  C   UNK N   1      35.541  14.967  11.915  0.00  0.00     0.033 A 
HETATM    4  C   UNK N   1      36.352  14.143  11.132  0.00  0.00     0.043 A 
HETATM    5  C   UNK N   1      36.452  14.439   9.746  0.00  0.00    -0.028 A 
HETATM    6  C   UNK N   1      35.765  15.533   9.203  0.00  0.00     0.046 A 
HETATM    7  C   UNK N   1      37.282  13.591   8.832  0.00  0.00     0.042 C 
HETATM    8  C   UNK N   1      37.426  12.184   9.386  0.00  0.00     0.025 C 
HETATM    9  C   UNK N   1      37.967  12.273  10.802  0.00  0.00     0.132 C 
HETATM   10  N   UNK N   1      37.070  13.008  11.686  0.00  0.00    -0.315 N 
HETATM   11  C   UNK N   1      37.010  12.584  13.005  0.00  0.00     0.257 C 
HETATM   12  O   UNK N   1      37.664  11.604  13.338  0.00  0.00    -0.270 OA
ENDROOT
BRANCH   1  13
HETATM   13  O   UNK N   1      34.277  17.418   9.552  0.00  0.00    -0.273 OA
BRANCH  13  14
HETATM   14  C   UNK N   1      34.500  18.135   8.421  0.00  0.00     0.322 C 
HETATM   15  O   UNK N   1      35.303  19.057   8.396  0.00  0.00    -0.257 OA
BRANCH  14  16
HETATM   16  C   UNK N   1      33.752  17.777   7.210  0.00  0.00     0.150 A 
HETATM   17  C   UNK N   1      32.436  17.375   7.151  0.00  0.00     0.045 A 
HETATM   18  C   UNK N   1      32.182  17.151   5.809  0.00  0.00     0.027 A 
HETATM   19  C   UNK N   1      33.360  17.429   5.137  0.00  0.00     0.143 A 
HETATM   20  O   UNK N   1      34.269  17.799   6.007  0.00  0.00    -0.317 OA
ENDBRANCH  14  16
ENDBRANCH  13  14
ENDBRANCH   1  13
BRANCH  11  21
HETATM   21  C   UNK N   1      36.215  13.240  14.111  0.00  0.00     0.270 C 
HETATM   22 Cl   UNK N   1      34.808  12.300  14.690  0.00  0.00    -0.098 Cl
HETATM   23 Cl   UNK N   1      37.154  14.052  15.397  0.00  0.00    -0.098 Cl
ENDBRANCH  11  21
TORSDOF 4
ENDMDL
MODEL 3
REMARK VINA RESULT:      -7.0     10.665     11.832
REMARK  4 active torsions:
REMARK  status: ('A' for Active; 'I' for Inactive)
REMARK    1  A    between atoms: C_3  and  C_6 
REMARK    2  A    between atoms: C_6  and  O_8 
REMARK    3  A    between atoms: O_8  and  C_9 
REMARK       I    between atoms: N_18  and  C_19 
REMARK    4  A    between atoms: C_19  and  C_21 
ROOT
HETATM    1  C   UNK N   1      21.125  16.217   6.189  0.00  0.00     0.080 A 
HETATM    2  C   UNK N   1      20.932  15.250   5.209  0.00  0.00     0.039 A 
HETATM    3  C   UNK N   1      20.746  15.617   3.882  0.00  0.00     0.033 A 
HETATM    4  C   UNK N   1      20.746  16.955   3.482  0.00  0.00     0.043 A 
HETATM    5  C   UNK N   1      20.934  17.945   4.484  0.00  0.00    -0.028 A 
HETATM    6  C   UNK N   1      21.126  17.572   5.821  0.00  0.00     0.046 A 
HETATM    7  C   UNK N   1      20.925  19.403   4.142  0.00  0.00     0.042 C 
HETATM    8  C   UNK N   1      20.123  19.654   2.878  0.00  0.00     0.025 C 
HETATM    9  C   UNK N   1      20.670  18.768   1.772  0.00  0.00     0.132 C 
HETATM   10  N   UNK N   1      20.552  17.350   2.098  0.00  0.00    -0.315 N 
HETATM   11  C   UNK N   1      20.303  16.487   1.041  0.00  0.00     0.257 C 
HETATM   12  O   UNK N   1      20.152  16.958  -0.079  0.00  0.00    -0.270 OA
ENDROOT
BRANCH   1  13
HETATM   13  O   UNK N   1      21.308  15.797   7.466  0.00  0.00    -0.273 OA
BRANCH  13  14
HETATM   14  C   UNK N   1      20.385  15.308   8.334  0.00  0.00     0.322 C 
HETATM   15  O   UNK N   1      19.237  15.724   8.350  0.00  0.00    -0.257 OA
BRANCH  14  16
HETATM   16  C   UNK N   1      20.799  14.252   9.267  0.00  0.00     0.150 A 
HETATM   17  C   UNK N   1      22.083  13.797   9.470  0.00  0.00     0.045 A 
HETATM   18  C   UNK N   1      21.973  12.809  10.432  0.00  0.00     0.027 A 
HETATM   19  C   UNK N   1      20.628  12.724  10.752  0.00  0.00     0.143 A 
HETATM   20  O   UNK N   1      19.964  13.600  10.037  0.00  0.00    -0.317 OA
ENDBRANCH  14  16
ENDBRANCH  13  14
ENDBRANCH   1  13
BRANCH  11  21
HETATM   21  C   UNK N   1      20.222  14.980   1.129  0.00  0.00     0.270 C 
HETATM   22 Cl   UNK N   1      18.709  14.268   0.496  0.00  0.00    -0.098 Cl
HETATM   23 Cl   UNK N   1      21.707  14.074   0.718  0.00  0.00    -0.098 Cl
ENDBRANCH  11  21
TORSDOF 4
ENDMDL
MODEL 4
REMARK VINA RESULT:      -7.0     11.123     12.367
REMARK  4 active torsions:
REMARK  status: ('A' for Active; 'I' for Inactive)
REMARK    1  A    between atoms: C_3  and  C_6 
REMARK    2  A    between atoms: C_6  and  O_8 
REMARK    3  A    between atoms: O_8  and  C_9 
REMARK       I    between atoms: N_18  and  C_19 
REMARK    4  A    between atoms: C_19  and  C_21 
ROOT
HETATM    1  C   UNK N   1      21.067  16.048   6.019  0.00  0.00     0.080 A 
HETATM    2  C   UNK N   1      20.809  15.123   5.014  0.00  0.00     0.039 A 
HETATM    3  C   UNK N   1      20.621  15.539   3.702  0.00  0.00     0.033 A 
HETATM    4  C   UNK N   1      20.683  16.887   3.342  0.00  0.00     0.043 A 
HETATM    5  C   UNK N   1      20.937  17.835   4.370  0.00  0.00    -0.028 A 
HETATM    6  C   UNK N   1      21.130  17.412   5.692  0.00  0.00     0.046 A 
HETATM    7  C   UNK N   1      20.996  19.301   4.072  0.00  0.00     0.042 C 
HETATM    8  C   UNK N   1      20.187  19.631   2.829  0.00  0.00     0.025 C 
HETATM    9  C   UNK N   1      20.671  18.753   1.688  0.00  0.00     0.132 C 
HETATM   10  N   UNK N   1      20.486  17.334   1.974  0.00  0.00    -0.315 N 
HETATM   11  C   UNK N   1      20.178  16.517   0.896  0.00  0.00     0.257 C 
HETATM   12  O   UNK N   1      20.033  17.029  -0.206  0.00  0.00    -0.270 OA
ENDROOT
BRANCH   1  13
HETATM   13  O   UNK N   1      21.248  15.581   7.279  0.00  0.00    -0.273 OA
BRANCH  13  14
HETATM   14  C   UNK N   1      20.316  15.362   8.242  0.00  0.00     0.322 C 
HETATM   15  O   UNK N   1      20.056  14.235   8.636  0.00  0.00    -0.257 OA
BRANCH  14  16
HETATM   16  C   UNK N   1      19.618  16.522   8.810  0.00  0.00     0.150 A 
HETATM   17  C   UNK N   1      18.294  16.574   9.189  0.00  0.00     0.045 A 
HETATM   18  C   UNK N   1      18.100  17.860   9.661  0.00  0.00     0.027 A 
HETATM   19  C   UNK N   1      19.317  18.510   9.537  0.00  0.00     0.143 A 
HETATM   20  O   UNK N   1      20.193  17.677   9.027  0.00  0.00    -0.317 OA
ENDBRANCH  14  16
ENDBRANCH  13  14
ENDBRANCH   1  13
BRANCH  11  21
HETATM   21  C   UNK N   1      20.021  15.014   0.940  0.00  0.00     0.270 C 
HETATM   22 Cl   UNK N   1      18.535  14.387   0.170  0.00  0.00    -0.098 Cl
HETATM   23 Cl   UNK N   1      21.493  14.048   0.629  0.00  0.00    -0.098 Cl
ENDBRANCH  11  21
TORSDOF 4
ENDMDL
MODEL 5
REMARK VINA RESULT:      -7.0      2.126      3.489
REMARK  4 active torsions:
REMARK  status: ('A' for Active; 'I' for Inactive)
REMARK    1  A    between atoms: C_3  and  C_6 
REMARK    2  A    between atoms: C_6  and  O_8 
REMARK    3  A    between atoms: O_8  and  C_9 
REMARK       I    between atoms: N_18  and  C_19 
REMARK    4  A    between atoms: C_19  and  C_21 
ROOT
HETATM    1  C   UNK N   1      33.386  17.646   7.849  0.00  0.00     0.080 A 
HETATM    2  C   UNK N   1      32.039  17.705   8.186  0.00  0.00     0.039 A 
HETATM    3  C   UNK N   1      31.061  17.469   7.227  0.00  0.00     0.033 A 
HETATM    4  C   UNK N   1      31.386  17.165   5.904  0.00  0.00     0.043 A 
HETATM    5  C   UNK N   1      32.763  17.115   5.557  0.00  0.00    -0.028 A 
HETATM    6  C   UNK N   1      33.748  17.349   6.526  0.00  0.00     0.046 A 
HETATM    7  C   UNK N   1      33.196  16.818   4.154  0.00  0.00     0.042 C 
HETATM    8  C   UNK N   1      32.111  17.203   3.163  0.00  0.00     0.025 C 
HETATM    9  C   UNK N   1      30.820  16.512   3.566  0.00  0.00     0.132 C 
HETATM   10  N   UNK N   1      30.373  16.918   4.893  0.00  0.00    -0.315 N 
HETATM   11  C   UNK N   1      29.002  16.993   5.092  0.00  0.00     0.257 C 
HETATM   12  O   UNK N   1      28.257  16.765   4.148  0.00  0.00    -0.270 OA
ENDROOT
BRANCH   1  13
HETATM   13  O   UNK N   1      34.294  17.880   8.829  0.00  0.00    -0.273 OA
BRANCH  13  14
HETATM   14  C   UNK N   1      34.916  16.982   9.637  0.00  0.00     0.322 C 
HETATM   15  O   UNK N   1      35.630  17.341  10.562  0.00  0.00    -0.257 OA
BRANCH  14  16
HETATM   16  C   UNK N   1      34.711  15.552   9.376  0.00  0.00     0.150 A 
HETATM   17  C   UNK N   1      33.760  14.743   9.958  0.00  0.00     0.045 A 
HETATM   18  C   UNK N   1      33.955  13.492   9.402  0.00  0.00     0.027 A 
HETATM   19  C   UNK N   1      35.013  13.618   8.517  0.00  0.00     0.143 A 
HETATM   20  O   UNK N   1      35.433  14.860   8.532  0.00  0.00    -0.317 OA
ENDBRANCH  14  16
ENDBRANCH  13  14
ENDBRANCH   1  13
BRANCH  11  21
HETATM   21  C   UNK N   1      28.313  17.314   6.399  0.00  0.00     0.270 C 
HETATM   22 Cl   UNK N   1      27.922  19.041   6.643  0.00  0.00    -0.098 Cl
HETATM   23 Cl   UNK N   1      27.043  16.175   6.933  0.00  0.00    -0.098 Cl
ENDBRANCH  11  21
TORSDOF 4
ENDMDL
MODEL 6
REMARK VINA RESULT:      -6.8     13.698     15.282
REMARK  4 active torsions:
REMARK  status: ('A' for Active; 'I' for Inactive)
REMARK    1  A    between atoms: C_3  and  C_6 
REMARK    2  A    between atoms: C_6  and  O_8 
REMARK    3  A    between atoms: O_8  and  C_9 
REMARK       I    between atoms: N_18  and  C_19 
REMARK    4  A    between atoms: C_19  and  C_21 
ROOT
HETATM    1  C   UNK N   1      28.973  24.057  -3.834  0.00  0.00     0.080 A 
HETATM    2  C   UNK N   1      29.702  25.240  -3.780  0.00  0.00     0.039 A 
HETATM    3  C   UNK N   1      29.095  26.456  -4.067  0.00  0.00     0.033 A 
HETATM    4  C   UNK N   1      27.746  26.541  -4.418  0.00  0.00     0.043 A 
HETATM    5  C   UNK N   1      27.003  25.331  -4.483  0.00  0.00    -0.028 A 
HETATM    6  C   UNK N   1      27.616  24.106  -4.188  0.00  0.00     0.046 A 
HETATM    7  C   UNK N   1      25.557  25.332  -4.873  0.00  0.00     0.042 C 
HETATM    8  C   UNK N   1      25.231  26.545  -5.726  0.00  0.00     0.025 C 
HETATM    9  C   UNK N   1      25.666  27.794  -4.979  0.00  0.00     0.132 C 
HETATM   10  N   UNK N   1      27.102  27.806  -4.723  0.00  0.00    -0.315 N 
HETATM   11  C   UNK N   1      27.729  29.043  -4.749  0.00  0.00     0.257 C 
HETATM   12  O   UNK N   1      27.065  30.033  -5.028  0.00  0.00    -0.270 OA
ENDROOT
BRANCH   1  13
HETATM   13  O   UNK N   1      29.619  22.901  -3.536  0.00  0.00    -0.273 OA
BRANCH  13  14
HETATM   14  C   UNK N   1      30.571  22.685  -2.593  0.00  0.00     0.322 C 
HETATM   15  O   UNK N   1      30.398  22.999  -1.424  0.00  0.00    -0.257 OA
BRANCH  14  16
HETATM   16  C   UNK N   1      31.830  22.054  -3.007  0.00  0.00     0.150 A 
HETATM   17  C   UNK N   1      32.369  22.060  -4.275  0.00  0.00     0.045 A 
HETATM   18  C   UNK N   1      33.550  21.345  -4.173  0.00  0.00     0.027 A 
HETATM   19  C   UNK N   1      33.653  20.948  -2.851  0.00  0.00     0.143 A 
HETATM   20  O   UNK N   1      32.610  21.391  -2.191  0.00  0.00    -0.317 OA
ENDBRANCH  14  16
ENDBRANCH  13  14
ENDBRANCH   1  13
BRANCH  11  21
HETATM   21  C   UNK N   1      29.185  29.305  -4.437  0.00  0.00     0.270 C 
HETATM   22 Cl   UNK N   1      30.165  29.868  -5.822  0.00  0.00    -0.098 Cl
HETATM   23 Cl   UNK N   1      29.535  30.126  -2.887  0.00  0.00    -0.098 Cl
ENDBRANCH  11  21
TORSDOF 4
ENDMDL
MODEL 7
REMARK VINA RESULT:      -6.8      2.711      4.180
REMARK  4 active torsions:
REMARK  status: ('A' for Active; 'I' for Inactive)
REMARK    1  A    between atoms: C_3  and  C_6 
REMARK    2  A    between atoms: C_6  and  O_8 
REMARK    3  A    between atoms: O_8  and  C_9 
REMARK       I    between atoms: N_18  and  C_19 
REMARK    4  A    between atoms: C_19  and  C_21 
ROOT
HETATM    1  C   UNK N   1      34.447  15.502   8.640  0.00  0.00     0.080 A 
HETATM    2  C   UNK N   1      33.254  15.846   9.267  0.00  0.00     0.039 A 
HETATM    3  C   UNK N   1      32.198  16.372   8.534  0.00  0.00     0.033 A 
HETATM    4  C   UNK N   1      32.288  16.574   7.155  0.00  0.00     0.043 A 
HETATM    5  C   UNK N   1      33.510  16.231   6.515  0.00  0.00    -0.028 A 
HETATM    6  C   UNK N   1      34.572  15.696   7.256  0.00  0.00     0.046 A 
HETATM    7  C   UNK N   1      33.696  16.437   5.043  0.00  0.00     0.042 C 
HETATM    8  C   UNK N   1      32.780  17.536   4.534  0.00  0.00     0.025 C 
HETATM    9  C   UNK N   1      31.353  17.201   4.931  0.00  0.00     0.132 C 
HETATM   10  N   UNK N   1      31.191  17.125   6.379  0.00  0.00    -0.315 N 
HETATM   11  C   UNK N   1      29.975  17.549   6.893  0.00  0.00     0.257 C 
HETATM   12  O   UNK N   1      29.137  18.001   6.123  0.00  0.00    -0.270 OA
ENDROOT
BRANCH   1  13
HETATM   13  O   UNK N   1      35.440  14.986   9.408  0.00  0.00    -0.273 OA
BRANCH  13  14
HETATM   14  C   UNK N   1      35.916  15.445  10.594  0.00  0.00     0.322 C 
HETATM   15  O   UNK N   1      36.466  16.533  10.684  0.00  0.00    -0.257 OA
BRANCH  14  16
HETATM   16  C   UNK N   1      35.753  14.600  11.783  0.00  0.00     0.150 A 
HETATM   17  C   UNK N   1      35.105  13.387  11.841  0.00  0.00     0.045 A 
HETATM   18  C   UNK N   1      35.213  12.978  13.159  0.00  0.00     0.027 A 
HETATM   19  C   UNK N   1      35.919  13.969  13.819  0.00  0.00     0.143 A 
HETATM   20  O   UNK N   1      36.222  14.917  12.964  0.00  0.00    -0.317 OA
ENDBRANCH  14  16
ENDBRANCH  13  14
ENDBRANCH   1  13
BRANCH  11  21
HETATM   21  C   UNK N   1      29.556  17.488   8.344  0.00  0.00     0.270 C 
HETATM   22 Cl   UNK N   1      30.161  18.828   9.361  0.00  0.00    -0.098 Cl
HETATM   23 Cl   UNK N   1      27.866  17.002   8.669  0.00  0.00    -0.098 Cl
ENDBRANCH  11  21
TORSDOF 4
ENDMDL
MODEL 8
REMARK VINA RESULT:      -6.7      8.838     11.155
REMARK  4 active torsions:
REMARK  status: ('A' for Active; 'I' for Inactive)
REMARK    1  A    between atoms: C_3  and  C_6 
REMARK    2  A    between atoms: C_6  and  O_8 
REMARK    3  A    between atoms: O_8  and  C_9 
REMARK       I    between atoms: N_18  and  C_19 
REMARK    4  A    between atoms: C_19  and  C_21 
ROOT
HETATM    1  C   UNK N   1      20.958  16.806   5.816  0.00  0.00     0.080 A 
HETATM    2  C   UNK N   1      22.305  17.128   5.943  0.00  0.00     0.039 A 
HETATM    3  C   UNK N   1      22.884  18.081   5.115  0.00  0.00     0.033 A 
HETATM    4  C   UNK N   1      22.148  18.747   4.132  0.00  0.00     0.043 A 
HETATM    5  C   UNK N   1      20.774  18.411   3.995  0.00  0.00    -0.028 A 
HETATM    6  C   UNK N   1      20.191  17.453   4.835  0.00  0.00     0.046 A 
HETATM    7  C   UNK N   1      19.920  19.063   2.951  0.00  0.00     0.042 C 
HETATM    8  C   UNK N   1      20.768  19.552   1.790  0.00  0.00     0.025 C 
HETATM    9  C   UNK N   1      21.864  20.451   2.335  0.00  0.00     0.132 C 
HETATM   10  N   UNK N   1      22.744  19.743   3.260  0.00  0.00    -0.315 N 
HETATM   11  C   UNK N   1      24.079  20.116   3.256  0.00  0.00     0.257 C 
HETATM   12  O   UNK N   1      24.450  20.969   2.460  0.00  0.00    -0.270 OA
ENDROOT
BRANCH   1  13
HETATM   13  O   UNK N   1      20.448  15.873   6.658  0.00  0.00    -0.273 OA
BRANCH  13  14
HETATM   14  C   UNK N   1      20.833  14.581   6.821  0.00  0.00     0.322 C 
HETATM   15  O   UNK N   1      21.009  13.840   5.865  0.00  0.00    -0.257 OA
BRANCH  14  16
HETATM   16  C   UNK N   1      21.040  14.084   8.187  0.00  0.00     0.150 A 
HETATM   17  C   UNK N   1      22.248  13.757   8.764  0.00  0.00     0.045 A 
HETATM   18  C   UNK N   1      21.938  13.343  10.047  0.00  0.00     0.027 A 
HETATM   19  C   UNK N   1      20.562  13.441  10.169  0.00  0.00     0.143 A 
HETATM   20  O   UNK N   1      20.067  13.887   9.039  0.00  0.00    -0.317 OA
ENDBRANCH  14  16
ENDBRANCH  13  14
ENDBRANCH   1  13
BRANCH  11  21
HETATM   21  C   UNK N   1      25.151  19.580   4.178  0.00  0.00     0.270 C 
HETATM   22 Cl   UNK N   1      26.119  18.234   3.508  0.00  0.00    -0.098 Cl
HETATM   23 Cl   UNK N   1      26.087  20.788   5.105  0.00  0.00    -0.098 Cl
ENDBRANCH  11  21
TORSDOF 4
ENDMDL
MODEL 9
REMARK VINA RESULT:      -6.7      3.826      7.723
REMARK  4 active torsions:
REMARK  status: ('A' for Active; 'I' for Inactive)
REMARK    1  A    between atoms: C_3  and  C_6 
REMARK    2  A    between atoms: C_6  and  O_8 
REMARK    3  A    between atoms: O_8  and  C_9 
REMARK       I    between atoms: N_18  and  C_19 
REMARK    4  A    between atoms: C_19  and  C_21 
ROOT
HETATM    1  C   UNK N   1      29.144  17.626   6.044  0.00  0.00     0.080 A 
HETATM    2  C   UNK N   1      30.085  17.607   7.068  0.00  0.00     0.039 A 
HETATM    3  C   UNK N   1      31.391  17.207   6.817  0.00  0.00     0.033 A 
HETATM    4  C   UNK N   1      31.809  16.811   5.545  0.00  0.00     0.043 A 
HETATM    5  C   UNK N   1      30.845  16.821   4.500  0.00  0.00    -0.028 A 
HETATM    6  C   UNK N   1      29.529  17.229   4.754  0.00  0.00     0.046 A 
HETATM    7  C   UNK N   1      31.206  16.390   3.112  0.00  0.00     0.042 C 
HETATM    8  C   UNK N   1      32.386  15.435   3.134  0.00  0.00     0.025 C 
HETATM    9  C   UNK N   1      33.528  16.093   3.889  0.00  0.00     0.132 C 
HETATM   10  N   UNK N   1      33.172  16.389   5.272  0.00  0.00    -0.315 N 
HETATM   11  C   UNK N   1      34.185  16.283   6.212  0.00  0.00     0.257 C 
HETATM   12  O   UNK N   1      35.291  15.908   5.845  0.00  0.00    -0.270 OA
ENDROOT
BRANCH   1  13
HETATM   13  O   UNK N   1      27.886  18.033   6.349  0.00  0.00    -0.273 OA
BRANCH  13  14
HETATM   14  C   UNK N   1      27.366  19.286   6.291  0.00  0.00     0.322 C 
HETATM   15  O   UNK N   1      27.517  20.083   7.205  0.00  0.00    -0.257 OA
BRANCH  14  16
HETATM   16  C   UNK N   1      26.610  19.671   5.093  0.00  0.00     0.150 A 
HETATM   17  C   UNK N   1      27.139  20.094   3.894  0.00  0.00     0.045 A 
HETATM   18  C   UNK N   1      26.047  20.340   3.080  0.00  0.00     0.027 A 
HETATM   19  C   UNK N   1      24.923  20.053   3.837  0.00  0.00     0.143 A 
HETATM   20  O   UNK N   1      25.303  19.658   5.028  0.00  0.00    -0.317 OA
ENDBRANCH  14  16
ENDBRANCH  13  14
ENDBRANCH   1  13
BRANCH  11  21
HETATM   21  C   UNK N   1      34.068  16.616   7.682  0.00  0.00     0.270 C 
HETATM   22 Cl   UNK N   1      34.602  15.322   8.795  0.00  0.00    -0.098 Cl
HETATM   23 Cl   UNK N   1      34.548  18.269   8.168  0.00  0.00    -0.098 Cl
ENDBRANCH  11  21
TORSDOF 4
ENDMDL
