MODEL 1
REMARK VINA RESULT:      -6.9      0.000      0.000
REMARK  10 active torsions:
REMARK  status: ('A' for Active; 'I' for Inactive)
REMARK    1  A    between atoms: C_4  and  C_3 
REMARK    2  A    between atoms: C_5  and  C_3 
REMARK    3  A    between atoms: N_19  and  C_4 
REMARK    4  A    between atoms: N_24  and  C_5 
REMARK    5  A    between atoms: C_14  and  C_9 
REMARK    6  A    between atoms: N_19  and  C_9 
REMARK    7  A    between atoms: C_14  and  C_11 
REMARK    8  A    between atoms: O_25  and  C_12 
REMARK    9  A    between atoms: O_26  and  C_13 
REMARK   10  A    between atoms: O_27  and  C_14 
ROOT
HETATM    1  C   UNK N   1      19.850  15.517   6.034  0.00  0.00     0.115 C 
ENDROOT
BRANCH   1   2
HETATM    2  C   UNK N   1      19.641  14.934   4.649  0.00  0.00     0.039 C 
BRANCH   2   3
HETATM    3  C   UNK N   1      20.808  15.289   3.736  0.00  0.00     0.132 C 
BRANCH   3   4
HETATM    4  N   UNK N   1      20.603  16.615   3.181  0.00  0.00    -0.335 N 
HETATM    5  C   UNK N   1      19.540  17.021   2.444  0.00  0.00     0.185 A 
HETATM    6  N   UNK N   1      19.679  18.317   2.052  0.00  0.00    -0.336 N 
HETATM    7  C   UNK N   1      20.863  18.696   2.572  0.00  0.00     0.145 A 
ATOM      8  HN  UNK N   1      19.033  18.875   1.492  1.00  0.00     0.168 HD
HETATM    9  C   UNK N   1      21.418  17.677   3.258  0.00  0.00     0.149 A 
HETATM   10  N   UNK N   1      21.464  19.905   2.450  0.00  0.00    -0.287 N 
HETATM   11  C   UNK N   1      22.647  17.832   3.889  0.00  0.00     0.282 A 
HETATM   12  N   UNK N   1      23.284  19.052   3.780  0.00  0.00    -0.269 N 
HETATM   13  O   UNK N   1      23.148  16.917   4.522  0.00  0.00    -0.265 OA
HETATM   14  C   UNK N   1      24.581  19.250   4.421  0.00  0.00     0.164 C 
HETATM   15  C   UNK N   1      22.698  20.090   3.058  0.00  0.00     0.332 A 
HETATM   16  O   UNK N   1      23.270  21.163   2.962  0.00  0.00    -0.246 OA
HETATM   17  C   UNK N   1      20.828  20.973   1.690  0.00  0.00     0.163 C 
ENDBRANCH   3   4
ENDBRANCH   2   3
ENDBRANCH   1   2
BRANCH   1  18
HETATM   18  N   UNK N   1      21.233  15.343   6.447  0.00  0.00    -0.418 N 
HETATM   19  H   UNK N   1      22.036  15.879   6.118  0.00  0.00     0.153 HD
BRANCH  18  20
HETATM   20  C   UNK N   1      21.256  14.262   7.419  0.00  0.00     0.150 C 
BRANCH  20  21
HETATM   21  C   UNK N   1      22.664  14.006   7.929  0.00  0.00     0.168 C 
BRANCH  21  22
HETATM   22  C   UNK N   1      22.708  13.270   9.245  0.00  0.00    -0.023 A 
HETATM   23  C   UNK N   1      23.952  12.948   9.799  0.00  0.00     0.046 A 
HETATM   24  C   UNK N   1      24.026  12.260  11.014  0.00  0.00     0.069 A 
HETATM   25  C   UNK N   1      22.856  11.904  11.690  0.00  0.00     0.073 A 
HETATM   26  C   UNK N   1      21.611  12.230  11.150  0.00  0.00     0.069 A 
HETATM   27  C   UNK N   1      21.536  12.902   9.930  0.00  0.00     0.046 A 
BRANCH  24  28
HETATM   28  O   UNK N   1      25.224  11.939  11.527  0.00  0.00    -0.361 OA
HETATM   29  H   UNK N   1      25.579  12.438  12.236  0.00  0.00     0.217 HD
ENDBRANCH  24  28
BRANCH  26  30
HETATM   30  O   UNK N   1      20.486  11.899  11.804  0.00  0.00    -0.361 OA
HETATM   31  H   UNK N   1      20.033  11.104  11.603  0.00  0.00     0.217 HD
ENDBRANCH  26  30
ENDBRANCH  21  22
BRANCH  21  32
HETATM   32  O   UNK N   1      23.350  13.276   6.958  0.00  0.00    -0.389 OA
HETATM   33  H   UNK N   1      23.471  13.327   5.997  0.00  0.00     0.210 HD
ENDBRANCH  21  32
ENDBRANCH  20  21
ENDBRANCH  18  20
ENDBRANCH   1  18
TORSDOF 10
ENDMDL
MODEL 2
REMARK VINA RESULT:      -6.9     13.377     15.244
REMARK  10 active torsions:
REMARK  status: ('A' for Active; 'I' for Inactive)
REMARK    1  A    between atoms: C_4  and  C_3 
REMARK    2  A    between atoms: C_5  and  C_3 
REMARK    3  A    between atoms: N_19  and  C_4 
REMARK    4  A    between atoms: N_24  and  C_5 
REMARK    5  A    between atoms: C_14  and  C_9 
REMARK    6  A    between atoms: N_19  and  C_9 
REMARK    7  A    between atoms: C_14  and  C_11 
REMARK    8  A    between atoms: O_25  and  C_12 
REMARK    9  A    between atoms: O_26  and  C_13 
REMARK   10  A    between atoms: O_27  and  C_14 
ROOT
HETATM    1  C   UNK N   1      37.558  12.120  12.293  0.00  0.00     0.115 C 
ENDROOT
BRANCH   1   2
HETATM    2  C   UNK N   1      37.280  13.216  11.282  0.00  0.00     0.039 C 
BRANCH   2   3
HETATM    3  C   UNK N   1      35.799  13.253  10.923  0.00  0.00     0.132 C 
BRANCH   3   4
HETATM    4  N   UNK N   1      35.444  14.587  10.472  0.00  0.00    -0.335 N 
HETATM    5  C   UNK N   1      35.230  15.669  11.259  0.00  0.00     0.185 A 
HETATM    6  N   UNK N   1      34.879  16.755  10.516  0.00  0.00    -0.336 N 
HETATM    7  C   UNK N   1      34.885  16.304   9.246  0.00  0.00     0.145 A 
ATOM      8  HN  UNK N   1      34.662  17.696  10.846  1.00  0.00     0.168 HD
HETATM    9  C   UNK N   1      35.232  15.003   9.215  0.00  0.00     0.149 A 
HETATM   10  N   UNK N   1      34.586  17.006   8.125  0.00  0.00    -0.287 N 
HETATM   11  C   UNK N   1      35.309  14.317   8.008  0.00  0.00     0.282 A 
HETATM   12  N   UNK N   1      35.008  15.005   6.850  0.00  0.00    -0.269 N 
HETATM   13  O   UNK N   1      35.635  13.142   7.973  0.00  0.00    -0.265 OA
HETATM   14  C   UNK N   1      35.068  14.317   5.563  0.00  0.00     0.164 C 
HETATM   15  C   UNK N   1      34.643  16.349   6.904  0.00  0.00     0.332 A 
HETATM   16  O   UNK N   1      34.373  16.949   5.876  0.00  0.00    -0.246 OA
HETATM   17  C   UNK N   1      34.208  18.411   8.211  0.00  0.00     0.163 C 
ENDBRANCH   3   4
ENDBRANCH   2   3
ENDBRANCH   1   2
BRANCH   1  18
HETATM   18  N   UNK N   1      37.170  12.557  13.625  0.00  0.00    -0.418 N 
HETATM   19  H   UNK N   1      37.445  13.426  14.082  0.00  0.00     0.153 HD
BRANCH  18  20
HETATM   20  C   UNK N   1      36.315  11.520  14.182  0.00  0.00     0.150 C 
BRANCH  20  21
HETATM   21  C   UNK N   1      35.064  12.113  14.806  0.00  0.00     0.168 C 
BRANCH  21  22
HETATM   22  C   UNK N   1      35.151  12.273  16.303  0.00  0.00    -0.023 A 
HETATM   23  C   UNK N   1      35.272  11.130  17.101  0.00  0.00     0.046 A 
HETATM   24  C   UNK N   1      35.348  11.244  18.492  0.00  0.00     0.069 A 
HETATM   25  C   UNK N   1      35.321  12.505  19.094  0.00  0.00     0.073 A 
HETATM   26  C   UNK N   1      35.210  13.653  18.306  0.00  0.00     0.069 A 
HETATM   27  C   UNK N   1      35.117  13.538  16.919  0.00  0.00     0.046 A 
BRANCH  24  28
HETATM   28  O   UNK N   1      35.445  10.140  19.249  0.00  0.00    -0.361 OA
HETATM   29  H   UNK N   1      35.917   9.395  18.933  0.00  0.00     0.217 HD
ENDBRANCH  24  28
BRANCH  26  30
HETATM   30  O   UNK N   1      35.195  14.865  18.881  0.00  0.00    -0.361 OA
HETATM   31  H   UNK N   1      35.971  15.222  19.266  0.00  0.00     0.217 HD
ENDBRANCH  26  30
ENDBRANCH  21  22
BRANCH  21  32
HETATM   32  O   UNK N   1      34.831  13.354  14.213  0.00  0.00    -0.389 OA
HETATM   33  H   UNK N   1      34.842  14.281  14.498  0.00  0.00     0.210 HD
ENDBRANCH  21  32
ENDBRANCH  20  21
ENDBRANCH  18  20
ENDBRANCH   1  18
TORSDOF 10
ENDMDL
MODEL 3
REMARK VINA RESULT:      -6.8      1.905      3.380
REMARK  10 active torsions:
REMARK  status: ('A' for Active; 'I' for Inactive)
REMARK    1  A    between atoms: C_4  and  C_3 
REMARK    2  A    between atoms: C_5  and  C_3 
REMARK    3  A    between atoms: N_19  and  C_4 
REMARK    4  A    between atoms: N_24  and  C_5 
REMARK    5  A    between atoms: C_14  and  C_9 
REMARK    6  A    between atoms: N_19  and  C_9 
REMARK    7  A    between atoms: C_14  and  C_11 
REMARK    8  A    between atoms: O_25  and  C_12 
REMARK    9  A    between atoms: O_26  and  C_13 
REMARK   10  A    between atoms: O_27  and  C_14 
ROOT
HETATM    1  C   UNK N   1      21.359  16.227   7.475  0.00  0.00     0.115 C 
ENDROOT
BRANCH   1   2
HETATM    2  C   UNK N   1      21.132  17.557   6.781  0.00  0.00     0.039 C 
BRANCH   2   3
HETATM    3  C   UNK N   1      22.196  17.797   5.717  0.00  0.00     0.132 C 
BRANCH   3   4
HETATM    4  N   UNK N   1      21.581  17.759   4.401  0.00  0.00    -0.335 N 
HETATM    5  C   UNK N   1      20.906  18.771   3.802  0.00  0.00     0.185 A 
HETATM    6  N   UNK N   1      20.429  18.390   2.586  0.00  0.00    -0.336 N 
HETATM    7  C   UNK N   1      20.833  17.111   2.456  0.00  0.00     0.145 A 
ATOM      8  HN  UNK N   1      19.888  18.947   1.922  1.00  0.00     0.168 HD
HETATM    9  C   UNK N   1      21.533  16.731   3.543  0.00  0.00     0.149 A 
HETATM   10  N   UNK N   1      20.593  16.277   1.414  0.00  0.00    -0.287 N 
HETATM   11  C   UNK N   1      22.057  15.446   3.636  0.00  0.00     0.282 A 
HETATM   12  N   UNK N   1      21.827  14.574   2.591  0.00  0.00    -0.269 N 
HETATM   13  O   UNK N   1      22.703  15.101   4.612  0.00  0.00    -0.265 OA
HETATM   14  C   UNK N   1      22.353  13.213   2.657  0.00  0.00     0.164 C 
HETATM   15  C   UNK N   1      21.093  14.983   1.480  0.00  0.00     0.332 A 
HETATM   16  O   UNK N   1      20.890  14.204   0.563  0.00  0.00    -0.246 OA
HETATM   17  C   UNK N   1      19.823  16.732   0.264  0.00  0.00     0.163 C 
ENDBRANCH   3   4
ENDBRANCH   2   3
ENDBRANCH   1   2
BRANCH   1  18
HETATM   18  N   UNK N   1      20.527  15.199   6.871  0.00  0.00    -0.418 N 
HETATM   19  H   UNK N   1      19.798  15.341   6.172  0.00  0.00     0.153 HD
BRANCH  18  20
HETATM   20  C   UNK N   1      20.930  13.928   7.452  0.00  0.00     0.150 C 
BRANCH  20  21
HETATM   21  C   UNK N   1      22.369  13.974   7.937  0.00  0.00     0.168 C 
BRANCH  21  22
HETATM   22  C   UNK N   1      22.591  13.256   9.244  0.00  0.00    -0.023 A 
HETATM   23  C   UNK N   1      21.480  12.844   9.988  0.00  0.00     0.046 A 
HETATM   24  C   UNK N   1      21.652  12.182  11.207  0.00  0.00     0.069 A 
HETATM   25  C   UNK N   1      22.938  11.914  11.683  0.00  0.00     0.073 A 
HETATM   26  C   UNK N   1      24.054  12.312  10.943  0.00  0.00     0.069 A 
HETATM   27  C   UNK N   1      23.882  12.987   9.734  0.00  0.00     0.046 A 
BRANCH  24  28
HETATM   28  O   UNK N   1      20.579  11.809  11.922  0.00  0.00    -0.361 OA
HETATM   29  H   UNK N   1      19.723  11.860  11.544  0.00  0.00     0.217 HD
ENDBRANCH  24  28
BRANCH  26  30
HETATM   30  O   UNK N   1      25.290  12.045  11.393  0.00  0.00    -0.361 OA
HETATM   31  H   UNK N   1      25.955  11.737  10.809  0.00  0.00     0.217 HD
ENDBRANCH  26  30
ENDBRANCH  21  22
BRANCH  21  32
HETATM   32  O   UNK N   1      23.176  13.411   6.948  0.00  0.00    -0.389 OA
HETATM   33  H   UNK N   1      23.616  13.720   6.141  0.00  0.00     0.210 HD
ENDBRANCH  21  32
ENDBRANCH  20  21
ENDBRANCH  18  20
ENDBRANCH   1  18
TORSDOF 10
ENDMDL
MODEL 4
REMARK VINA RESULT:      -6.7     13.328     15.419
REMARK  10 active torsions:
REMARK  status: ('A' for Active; 'I' for Inactive)
REMARK    1  A    between atoms: C_4  and  C_3 
REMARK    2  A    between atoms: C_5  and  C_3 
REMARK    3  A    between atoms: N_19  and  C_4 
REMARK    4  A    between atoms: N_24  and  C_5 
REMARK    5  A    between atoms: C_14  and  C_9 
REMARK    6  A    between atoms: N_19  and  C_9 
REMARK    7  A    between atoms: C_14  and  C_11 
REMARK    8  A    between atoms: O_25  and  C_12 
REMARK    9  A    between atoms: O_26  and  C_13 
REMARK   10  A    between atoms: O_27  and  C_14 
ROOT
HETATM    1  C   UNK N   1      35.695  11.833  12.515  0.00  0.00     0.115 C 
ENDROOT
BRANCH   1   2
HETATM    2  C   UNK N   1      35.248  13.231  12.134  0.00  0.00     0.039 C 
BRANCH   2   3
HETATM    3  C   UNK N   1      36.343  13.952  11.356  0.00  0.00     0.132 C 
BRANCH   3   4
HETATM    4  N   UNK N   1      35.788  15.137  10.724  0.00  0.00    -0.335 N 
HETATM    5  C   UNK N   1      35.416  16.280  11.350  0.00  0.00     0.185 A 
HETATM    6  N   UNK N   1      34.903  17.179  10.466  0.00  0.00    -0.336 N 
HETATM    7  C   UNK N   1      34.970  16.551   9.276  0.00  0.00     0.145 A 
ATOM      8  HN  UNK N   1      34.548  18.116  10.661  1.00  0.00     0.168 HD
HETATM    9  C   UNK N   1      35.510  15.325   9.427  0.00  0.00     0.149 A 
HETATM   10  N   UNK N   1      34.564  17.026   8.073  0.00  0.00    -0.287 N 
HETATM   11  C   UNK N   1      35.684  14.487   8.331  0.00  0.00     0.282 A 
HETATM   12  N   UNK N   1      35.277  14.943   7.093  0.00  0.00    -0.269 N 
HETATM   13  O   UNK N   1      36.183  13.381   8.459  0.00  0.00    -0.265 OA
HETATM   14  C   UNK N   1      35.434  14.088   5.920  0.00  0.00     0.164 C 
HETATM   15  C   UNK N   1      34.713  16.211   6.960  0.00  0.00     0.332 A 
HETATM   16  O   UNK N   1      34.351  16.604   5.863  0.00  0.00    -0.246 OA
HETATM   17  C   UNK N   1      33.979  18.356   7.963  0.00  0.00     0.163 C 
ENDBRANCH   3   4
ENDBRANCH   2   3
ENDBRANCH   1   2
BRANCH   1  18
HETATM   18  N   UNK N   1      36.180  11.818  13.886  0.00  0.00    -0.418 N 
HETATM   19  H   UNK N   1      37.140  11.657  14.188  0.00  0.00     0.153 HD
BRANCH  18  20
HETATM   20  C   UNK N   1      35.035  12.077  14.745  0.00  0.00     0.150 C 
BRANCH  20  21
HETATM   21  C   UNK N   1      35.377  13.079  15.835  0.00  0.00     0.168 C 
BRANCH  21  22
HETATM   22  C   UNK N   1      35.401  12.484  17.220  0.00  0.00    -0.023 A 
HETATM   23  C   UNK N   1      35.046  13.288  18.309  0.00  0.00     0.046 A 
HETATM   24  C   UNK N   1      35.064  12.768  19.606  0.00  0.00     0.069 A 
HETATM   25  C   UNK N   1      35.423  11.434  19.821  0.00  0.00     0.073 A 
HETATM   26  C   UNK N   1      35.769  10.621  18.740  0.00  0.00     0.069 A 
HETATM   27  C   UNK N   1      35.767  11.145  17.447  0.00  0.00     0.046 A 
BRANCH  24  28
HETATM   28  O   UNK N   1      34.740  13.553  20.645  0.00  0.00    -0.361 OA
HETATM   29  H   UNK N   1      34.484  13.169  21.461  0.00  0.00     0.217 HD
ENDBRANCH  24  28
BRANCH  26  30
HETATM   30  O   UNK N   1      36.104   9.337  18.943  0.00  0.00    -0.361 OA
HETATM   31  H   UNK N   1      37.003   9.079  18.988  0.00  0.00     0.217 HD
ENDBRANCH  26  30
ENDBRANCH  21  22
BRANCH  21  32
HETATM   32  O   UNK N   1      36.624  13.631  15.538  0.00  0.00    -0.389 OA
HETATM   33  H   UNK N   1      37.197  13.691  14.758  0.00  0.00     0.210 HD
ENDBRANCH  21  32
ENDBRANCH  20  21
ENDBRANCH  18  20
ENDBRANCH   1  18
TORSDOF 10
ENDMDL
MODEL 5
REMARK VINA RESULT:      -6.7      5.473      7.867
REMARK  10 active torsions:
REMARK  status: ('A' for Active; 'I' for Inactive)
REMARK    1  A    between atoms: C_4  and  C_3 
REMARK    2  A    between atoms: C_5  and  C_3 
REMARK    3  A    between atoms: N_19  and  C_4 
REMARK    4  A    between atoms: N_24  and  C_5 
REMARK    5  A    between atoms: C_14  and  C_9 
REMARK    6  A    between atoms: N_19  and  C_9 
REMARK    7  A    between atoms: C_14  and  C_11 
REMARK    8  A    between atoms: O_25  and  C_12 
REMARK    9  A    between atoms: O_26  and  C_13 
REMARK   10  A    between atoms: O_27  and  C_14 
ROOT
HETATM    1  C   UNK N   1      27.344  16.355   7.371  0.00  0.00     0.115 C 
ENDROOT
BRANCH   1   2
HETATM    2  C   UNK N   1      26.120  15.674   6.789  0.00  0.00     0.039 C 
BRANCH   2   3
HETATM    3  C   UNK N   1      25.982  15.994   5.305  0.00  0.00     0.132 C 
BRANCH   3   4
HETATM    4  N   UNK N   1      24.719  16.671   5.071  0.00  0.00    -0.335 N 
HETATM    5  C   UNK N   1      23.489  16.218   5.416  0.00  0.00     0.185 A 
HETATM    6  N   UNK N   1      22.516  17.083   5.019  0.00  0.00    -0.336 N 
HETATM    7  C   UNK N   1      23.188  18.084   4.417  0.00  0.00     0.145 A 
ATOM      8  HN  UNK N   1      21.508  16.994   5.148  1.00  0.00     0.168 HD
HETATM    9  C   UNK N   1      24.514  17.843   4.454  0.00  0.00     0.149 A 
HETATM   10  N   UNK N   1      22.664  19.191   3.835  0.00  0.00    -0.287 N 
HETATM   11  C   UNK N   1      25.415  18.743   3.895  0.00  0.00     0.282 A 
HETATM   12  N   UNK N   1      24.910  19.878   3.293  0.00  0.00    -0.269 N 
HETATM   13  O   UNK N   1      26.617  18.536   3.936  0.00  0.00    -0.265 OA
HETATM   14  C   UNK N   1      25.824  20.842   2.686  0.00  0.00     0.164 C 
HETATM   15  C   UNK N   1      23.535  20.105   3.257  0.00  0.00     0.332 A 
HETATM   16  O   UNK N   1      23.096  21.108   2.719  0.00  0.00    -0.246 OA
HETATM   17  C   UNK N   1      21.223  19.403   3.813  0.00  0.00     0.163 C 
ENDBRANCH   3   4
ENDBRANCH   2   3
ENDBRANCH   1   2
BRANCH   1  18
HETATM   18  N   UNK N   1      27.490  17.689   6.810  0.00  0.00    -0.418 N 
HETATM   19  H   UNK N   1      26.850  18.147   6.161  0.00  0.00     0.153 HD
BRANCH  18  20
HETATM   20  C   UNK N   1      28.720  18.246   7.349  0.00  0.00     0.150 C 
BRANCH  20  21
HETATM   21  C   UNK N   1      29.780  17.173   7.529  0.00  0.00     0.168 C 
BRANCH  21  22
HETATM   22  C   UNK N   1      30.920  17.277   6.547  0.00  0.00    -0.023 A 
HETATM   23  C   UNK N   1      30.640  17.212   5.177  0.00  0.00     0.046 A 
HETATM   24  C   UNK N   1      31.674  17.298   4.240  0.00  0.00     0.069 A 
HETATM   25  C   UNK N   1      32.994  17.466   4.668  0.00  0.00     0.073 A 
HETATM   26  C   UNK N   1      33.282  17.542   6.032  0.00  0.00     0.069 A 
HETATM   27  C   UNK N   1      32.252  17.439   6.967  0.00  0.00     0.046 A 
BRANCH  24  28
HETATM   28  O   UNK N   1      31.397  17.216   2.930  0.00  0.00    -0.361 OA
HETATM   29  H   UNK N   1      31.000  16.442   2.582  0.00  0.00     0.217 HD
ENDBRANCH  24  28
BRANCH  26  30
HETATM   30  O   UNK N   1      34.548  17.713   6.445  0.00  0.00    -0.361 OA
HETATM   31  H   UNK N   1      34.755  17.726   7.358  0.00  0.00     0.217 HD
ENDBRANCH  26  30
ENDBRANCH  21  22
BRANCH  21  32
HETATM   32  O   UNK N   1      30.273  17.266   8.831  0.00  0.00    -0.389 OA
HETATM   33  H   UNK N   1      30.576  16.646   9.513  0.00  0.00     0.210 HD
ENDBRANCH  21  32
ENDBRANCH  20  21
ENDBRANCH  18  20
ENDBRANCH   1  18
TORSDOF 10
ENDMDL
MODEL 6
REMARK VINA RESULT:      -6.6      1.655      2.851
REMARK  10 active torsions:
REMARK  status: ('A' for Active; 'I' for Inactive)
REMARK    1  A    between atoms: C_4  and  C_3 
REMARK    2  A    between atoms: C_5  and  C_3 
REMARK    3  A    between atoms: N_19  and  C_4 
REMARK    4  A    between atoms: N_24  and  C_5 
REMARK    5  A    between atoms: C_14  and  C_9 
REMARK    6  A    between atoms: N_19  and  C_9 
REMARK    7  A    between atoms: C_14  and  C_11 
REMARK    8  A    between atoms: O_25  and  C_12 
REMARK    9  A    between atoms: O_26  and  C_13 
REMARK   10  A    between atoms: O_27  and  C_14 
ROOT
HETATM    1  C   UNK N   1      22.497  15.192   6.907  0.00  0.00     0.115 C 
ENDROOT
BRANCH   1   2
HETATM    2  C   UNK N   1      22.247  16.530   6.237  0.00  0.00     0.039 C 
BRANCH   2   3
HETATM    3  C   UNK N   1      20.753  16.769   6.055  0.00  0.00     0.132 C 
BRANCH   3   4
HETATM    4  N   UNK N   1      20.401  16.595   4.657  0.00  0.00    -0.335 N 
HETATM    5  C   UNK N   1      19.918  15.465   4.086  0.00  0.00     0.185 A 
HETATM    6  N   UNK N   1      19.727  15.632   2.749  0.00  0.00    -0.336 N 
HETATM    7  C   UNK N   1      20.109  16.903   2.515  0.00  0.00     0.145 A 
ATOM      8  HN  UNK N   1      19.374  14.950   2.076  1.00  0.00     0.168 HD
HETATM    9  C   UNK N   1      20.508  17.487   3.662  0.00  0.00     0.149 A 
HETATM   10  N   UNK N   1      20.123  17.551   1.324  0.00  0.00    -0.287 N 
HETATM   11  C   UNK N   1      20.947  18.807   3.672  0.00  0.00     0.282 A 
HETATM   12  N   UNK N   1      20.974  19.491   2.473  0.00  0.00    -0.269 N 
HETATM   13  O   UNK N   1      21.297  19.345   4.709  0.00  0.00    -0.265 OA
HETATM   14  C   UNK N   1      21.438  20.875   2.440  0.00  0.00     0.164 C 
HETATM   15  C   UNK N   1      20.566  18.866   1.296  0.00  0.00     0.332 A 
HETATM   16  O   UNK N   1      20.597  19.475   0.240  0.00  0.00    -0.246 OA
HETATM   17  C   UNK N   1      19.689  16.873   0.109  0.00  0.00     0.163 C 
ENDBRANCH   3   4
ENDBRANCH   2   3
ENDBRANCH   1   2
BRANCH   1  18
HETATM   18  N   UNK N   1      22.475  14.125   5.919  0.00  0.00    -0.418 N 
HETATM   19  H   UNK N   1      22.766  14.195   4.945  0.00  0.00     0.153 HD
BRANCH  18  20
HETATM   20  C   UNK N   1      21.959  12.939   6.584  0.00  0.00     0.150 C 
BRANCH  20  21
HETATM   21  C   UNK N   1      23.069  12.167   7.277  0.00  0.00     0.168 C 
BRANCH  21  22
HETATM   22  C   UNK N   1      22.981  12.198   8.782  0.00  0.00    -0.023 A 
HETATM   23  C   UNK N   1      21.720  12.272   9.385  0.00  0.00     0.046 A 
HETATM   24  C   UNK N   1      21.605  12.309  10.777  0.00  0.00     0.069 A 
HETATM   25  C   UNK N   1      22.750  12.255  11.577  0.00  0.00     0.073 A 
HETATM   26  C   UNK N   1      24.012  12.171  10.985  0.00  0.00     0.069 A 
HETATM   27  C   UNK N   1      24.128  12.151   9.595  0.00  0.00     0.046 A 
BRANCH  24  28
HETATM   28  O   UNK N   1      20.392  12.400  11.345  0.00  0.00    -0.361 OA
HETATM   29  H   UNK N   1      19.652  11.997  10.936  0.00  0.00     0.217 HD
ENDBRANCH  24  28
BRANCH  26  30
HETATM   30  O   UNK N   1      25.112  12.108  11.751  0.00  0.00    -0.361 OA
HETATM   31  H   UNK N   1      25.044  11.948  12.672  0.00  0.00     0.217 HD
ENDBRANCH  26  30
ENDBRANCH  21  22
BRANCH  21  32
HETATM   32  O   UNK N   1      23.021  10.846   6.829  0.00  0.00    -0.389 OA
HETATM   33  H   UNK N   1      22.332  10.226   6.545  0.00  0.00     0.210 HD
ENDBRANCH  21  32
ENDBRANCH  20  21
ENDBRANCH  18  20
ENDBRANCH   1  18
TORSDOF 10
ENDMDL
MODEL 7
REMARK VINA RESULT:      -6.5      5.991      9.776
REMARK  10 active torsions:
REMARK  status: ('A' for Active; 'I' for Inactive)
REMARK    1  A    between atoms: C_4  and  C_3 
REMARK    2  A    between atoms: C_5  and  C_3 
REMARK    3  A    between atoms: N_19  and  C_4 
REMARK    4  A    between atoms: N_24  and  C_5 
REMARK    5  A    between atoms: C_14  and  C_9 
REMARK    6  A    between atoms: N_19  and  C_9 
REMARK    7  A    between atoms: C_14  and  C_11 
REMARK    8  A    between atoms: O_25  and  C_12 
REMARK    9  A    between atoms: O_26  and  C_13 
REMARK   10  A    between atoms: O_27  and  C_14 
ROOT
HETATM    1  C   UNK N   1      25.879  15.883   5.690  0.00  0.00     0.115 C 
ENDROOT
BRANCH   1   2
HETATM    2  C   UNK N   1      27.348  15.935   6.064  0.00  0.00     0.039 C 
BRANCH   2   3
HETATM    3  C   UNK N   1      27.791  17.374   6.303  0.00  0.00     0.132 C 
BRANCH   3   4
HETATM    4  N   UNK N   1      29.035  17.380   7.052  0.00  0.00    -0.335 N 
HETATM    5  C   UNK N   1      29.158  17.417   8.402  0.00  0.00     0.185 A 
HETATM    6  N   UNK N   1      30.467  17.447   8.775  0.00  0.00    -0.336 N 
HETATM    7  C   UNK N   1      31.145  17.427   7.610  0.00  0.00     0.145 A 
ATOM      8  HN  UNK N   1      30.848  17.477   9.721  1.00  0.00     0.168 HD
HETATM    9  C   UNK N   1      30.286  17.379   6.573  0.00  0.00     0.149 A 
HETATM   10  N   UNK N   1      32.490  17.458   7.443  0.00  0.00    -0.287 N 
HETATM   11  C   UNK N   1      30.756  17.348   5.264  0.00  0.00     0.282 A 
HETATM   12  N   UNK N   1      32.121  17.381   5.063  0.00  0.00    -0.269 N 
HETATM   13  O   UNK N   1      29.983  17.291   4.321  0.00  0.00    -0.265 OA
HETATM   14  C   UNK N   1      32.652  17.359   3.702  0.00  0.00     0.164 C 
HETATM   15  C   UNK N   1      32.992  17.440   6.149  0.00  0.00     0.332 A 
HETATM   16  O   UNK N   1      34.197  17.474   5.962  0.00  0.00    -0.246 OA
HETATM   17  C   UNK N   1      33.378  17.519   8.597  0.00  0.00     0.163 C 
ENDBRANCH   3   4
ENDBRANCH   2   3
ENDBRANCH   1   2
BRANCH   1  18
HETATM   18  N   UNK N   1      25.402  17.213   5.349  0.00  0.00    -0.418 N 
HETATM   19  H   UNK N   1      25.660  18.087   5.807  0.00  0.00     0.153 HD
BRANCH  18  20
HETATM   20  C   UNK N   1      24.484  17.064   4.230  0.00  0.00     0.150 C 
BRANCH  20  21
HETATM   21  C   UNK N   1      23.038  17.170   4.683  0.00  0.00     0.168 C 
BRANCH  21  22
HETATM   22  C   UNK N   1      22.181  18.022   3.781  0.00  0.00    -0.023 A 
HETATM   23  C   UNK N   1      22.477  19.384   3.655  0.00  0.00     0.046 A 
HETATM   24  C   UNK N   1      21.699  20.203   2.832  0.00  0.00     0.069 A 
HETATM   25  C   UNK N   1      20.627  19.660   2.117  0.00  0.00     0.073 A 
HETATM   26  C   UNK N   1      20.330  18.300   2.228  0.00  0.00     0.069 A 
HETATM   27  C   UNK N   1      21.097  17.487   3.062  0.00  0.00     0.046 A 
BRANCH  24  28
HETATM   28  O   UNK N   1      21.979  21.511   2.733  0.00  0.00    -0.361 OA
HETATM   29  H   UNK N   1      21.960  22.054   3.497  0.00  0.00     0.217 HD
ENDBRANCH  24  28
BRANCH  26  30
HETATM   30  O   UNK N   1      19.309  17.776   1.533  0.00  0.00    -0.361 OA
HETATM   31  H   UNK N   1      18.477  18.205   1.509  0.00  0.00     0.217 HD
ENDBRANCH  26  30
ENDBRANCH  21  22
BRANCH  21  32
HETATM   32  O   UNK N   1      22.511  15.880   4.752  0.00  0.00    -0.389 OA
HETATM   33  H   UNK N   1      21.674  15.450   4.515  0.00  0.00     0.210 HD
ENDBRANCH  21  32
ENDBRANCH  20  21
ENDBRANCH  18  20
ENDBRANCH   1  18
TORSDOF 10
ENDMDL
MODEL 8
REMARK VINA RESULT:      -6.5      4.615      6.763
REMARK  10 active torsions:
REMARK  status: ('A' for Active; 'I' for Inactive)
REMARK    1  A    between atoms: C_4  and  C_3 
REMARK    2  A    between atoms: C_5  and  C_3 
REMARK    3  A    between atoms: N_19  and  C_4 
REMARK    4  A    between atoms: N_24  and  C_5 
REMARK    5  A    between atoms: C_14  and  C_9 
REMARK    6  A    between atoms: N_19  and  C_9 
REMARK    7  A    between atoms: C_14  and  C_11 
REMARK    8  A    between atoms: O_25  and  C_12 
REMARK    9  A    between atoms: O_26  and  C_13 
REMARK   10  A    between atoms: O_27  and  C_14 
ROOT
HETATM    1  C   UNK N   1      27.447  16.537   3.376  0.00  0.00     0.115 C 
ENDROOT
BRANCH   1   2
HETATM    2  C   UNK N   1      25.931  16.542   3.399  0.00  0.00     0.039 C 
BRANCH   2   3
HETATM    3  C   UNK N   1      25.414  17.434   4.522  0.00  0.00     0.132 C 
BRANCH   3   4
HETATM    4  N   UNK N   1      24.514  18.433   3.973  0.00  0.00    -0.335 N 
HETATM    5  C   UNK N   1      24.850  19.684   3.577  0.00  0.00     0.185 A 
HETATM    6  N   UNK N   1      23.758  20.372   3.143  0.00  0.00    -0.336 N 
HETATM    7  C   UNK N   1      22.739  19.502   3.284  0.00  0.00     0.145 A 
ATOM      8  HN  UNK N   1      23.720  21.329   2.789  1.00  0.00     0.168 HD
HETATM    9  C   UNK N   1      23.192  18.332   3.776  0.00  0.00     0.149 A 
HETATM   10  N   UNK N   1      21.431  19.716   3.001  0.00  0.00    -0.287 N 
HETATM   11  C   UNK N   1      22.319  17.273   4.006  0.00  0.00     0.282 A 
HETATM   12  N   UNK N   1      20.980  17.464   3.729  0.00  0.00    -0.269 N 
HETATM   13  O   UNK N   1      22.725  16.207   4.439  0.00  0.00    -0.265 OA
HETATM   14  C   UNK N   1      20.031  16.379   3.966  0.00  0.00     0.164 C 
HETATM   15  C   UNK N   1      20.531  18.685   3.229  0.00  0.00     0.332 A 
HETATM   16  O   UNK N   1      19.345  18.847   2.991  0.00  0.00    -0.246 OA
HETATM   17  C   UNK N   1      20.989  21.003   2.478  0.00  0.00     0.163 C 
ENDBRANCH   3   4
ENDBRANCH   2   3
ENDBRANCH   1   2
BRANCH   1  18
HETATM   18  N   UNK N   1      27.958  15.498   4.257  0.00  0.00    -0.418 N 
HETATM   19  H   UNK N   1      27.452  14.675   4.581  0.00  0.00     0.153 HD
BRANCH  18  20
HETATM   20  C   UNK N   1      29.328  15.856   4.588  0.00  0.00     0.150 C 
BRANCH  20  21
HETATM   21  C   UNK N   1      29.429  17.306   5.030  0.00  0.00     0.168 C 
BRANCH  21  22
HETATM   22  C   UNK N   1      29.564  17.476   6.523  0.00  0.00    -0.023 A 
HETATM   23  C   UNK N   1      28.432  17.815   7.271  0.00  0.00     0.046 A 
HETATM   24  C   UNK N   1      28.525  17.987   8.655  0.00  0.00     0.069 A 
HETATM   25  C   UNK N   1      29.750  17.804   9.303  0.00  0.00     0.073 A 
HETATM   26  C   UNK N   1      30.884  17.455   8.566  0.00  0.00     0.069 A 
HETATM   27  C   UNK N   1      30.794  17.301   7.182  0.00  0.00     0.046 A 
BRANCH  24  28
HETATM   28  O   UNK N   1      27.437  18.331   9.361  0.00  0.00    -0.361 OA
HETATM   29  H   UNK N   1      27.292  17.961  10.209  0.00  0.00     0.217 HD
ENDBRANCH  24  28
BRANCH  26  30
HETATM   30  O   UNK N   1      32.059  17.268   9.187  0.00  0.00    -0.361 OA
HETATM   31  H   UNK N   1      32.111  17.271  10.123  0.00  0.00     0.217 HD
ENDBRANCH  26  30
ENDBRANCH  21  22
BRANCH  21  32
HETATM   32  O   UNK N   1      30.529  17.878   4.390  0.00  0.00    -0.389 OA
HETATM   33  H   UNK N   1      31.438  18.112   4.632  0.00  0.00     0.210 HD
ENDBRANCH  21  32
ENDBRANCH  20  21
ENDBRANCH  18  20
ENDBRANCH   1  18
TORSDOF 10
ENDMDL
MODEL 9
REMARK VINA RESULT:      -6.4     12.024     14.845
REMARK  10 active torsions:
REMARK  status: ('A' for Active; 'I' for Inactive)
REMARK    1  A    between atoms: C_4  and  C_3 
REMARK    2  A    between atoms: C_5  and  C_3 
REMARK    3  A    between atoms: N_19  and  C_4 
REMARK    4  A    between atoms: N_24  and  C_5 
REMARK    5  A    between atoms: C_14  and  C_9 
REMARK    6  A    between atoms: N_19  and  C_9 
REMARK    7  A    between atoms: C_14  and  C_11 
REMARK    8  A    between atoms: O_25  and  C_12 
REMARK    9  A    between atoms: O_26  and  C_13 
REMARK   10  A    between atoms: O_27  and  C_14 
ROOT
HETATM    1  C   UNK N   1      35.534  11.425  11.329  0.00  0.00     0.115 C 
ENDROOT
BRANCH   1   2
HETATM    2  C   UNK N   1      35.910  12.871  11.591  0.00  0.00     0.039 C 
BRANCH   2   3
HETATM    3  C   UNK N   1      34.663  13.721  11.804  0.00  0.00     0.132 C 
BRANCH   3   4
HETATM    4  N   UNK N   1      34.796  14.968  11.071  0.00  0.00    -0.335 N 
HETATM    5  C   UNK N   1      35.434  16.085  11.497  0.00  0.00     0.185 A 
HETATM    6  N   UNK N   1      35.340  17.086  10.579  0.00  0.00    -0.336 N 
HETATM    7  C   UNK N   1      34.623  16.547   9.573  0.00  0.00     0.145 A 
ATOM      8  HN  UNK N   1      35.726  18.029  10.639  1.00  0.00     0.168 HD
HETATM    9  C   UNK N   1      34.301  15.271   9.863  0.00  0.00     0.149 A 
HETATM   10  N   UNK N   1      34.243  17.152   8.421  0.00  0.00    -0.287 N 
HETATM   11  C   UNK N   1      33.560  14.505   8.968  0.00  0.00     0.282 A 
HETATM   12  N   UNK N   1      33.157  15.096   7.787  0.00  0.00    -0.269 N 
HETATM   13  O   UNK N   1      33.277  13.346   9.219  0.00  0.00    -0.265 OA
HETATM   14  C   UNK N   1      32.370  14.327   6.827  0.00  0.00     0.164 C 
HETATM   15  C   UNK N   1      33.494  16.419   7.510  0.00  0.00     0.332 A 
HETATM   16  O   UNK N   1      33.129  16.935   6.467  0.00  0.00    -0.246 OA
HETATM   17  C   UNK N   1      34.610  18.537   8.157  0.00  0.00     0.163 C 
ENDBRANCH   3   4
ENDBRANCH   2   3
ENDBRANCH   1   2
BRANCH   1  18
HETATM   18  N   UNK N   1      35.055  10.803  12.554  0.00  0.00    -0.418 N 
HETATM   19  H   UNK N   1      34.238  10.201  12.648  0.00  0.00     0.153 HD
BRANCH  18  20
HETATM   20  C   UNK N   1      35.961  11.203  13.618  0.00  0.00     0.150 C 
BRANCH  20  21
HETATM   21  C   UNK N   1      35.220  11.405  14.929  0.00  0.00     0.168 C 
BRANCH  21  22
HETATM   22  C   UNK N   1      35.658  12.631  15.690  0.00  0.00    -0.023 A 
HETATM   23  C   UNK N   1      35.180  12.827  16.991  0.00  0.00     0.046 A 
HETATM   24  C   UNK N   1      35.562  13.956  17.721  0.00  0.00     0.069 A 
HETATM   25  C   UNK N   1      36.439  14.889  17.160  0.00  0.00     0.073 A 
HETATM   26  C   UNK N   1      36.929  14.697  15.867  0.00  0.00     0.069 A 
HETATM   27  C   UNK N   1      36.534  13.579  15.132  0.00  0.00     0.046 A 
BRANCH  24  28
HETATM   28  O   UNK N   1      35.083  14.144  18.960  0.00  0.00    -0.361 OA
HETATM   29  H   UNK N   1      35.189  14.973  19.383  0.00  0.00     0.217 HD
ENDBRANCH  24  28
BRANCH  26  30
HETATM   30  O   UNK N   1      37.779  15.587  15.331  0.00  0.00    -0.361 OA
HETATM   31  H   UNK N   1      38.676  15.613  15.601  0.00  0.00     0.217 HD
ENDBRANCH  26  30
ENDBRANCH  21  22
BRANCH  21  32
HETATM   32  O   UNK N   1      33.856  11.490  14.645  0.00  0.00    -0.389 OA
HETATM   33  H   UNK N   1      33.029  11.406  15.145  0.00  0.00     0.210 HD
ENDBRANCH  21  32
ENDBRANCH  20  21
ENDBRANCH  18  20
ENDBRANCH   1  18
TORSDOF 10
ENDMDL
