MODEL 1
REMARK VINA RESULT:      -7.6      0.000      0.000
REMARK  10 active torsions:
REMARK  status: ('A' for Active; 'I' for Inactive)
REMARK    1  A    between atoms: C_2  and  C_5 
REMARK    2  A    between atoms: C_7  and  C_16 
REMARK    3  A    between atoms: C_10  and  N_11 
REMARK    4  A    between atoms: C_18  and  C_26 
REMARK    5  A    between atoms: C_21  and  O_22 
REMARK    6  A    between atoms: O_22  and  C_23 
REMARK    7  A    between atoms: C_23  and  C_24 
REMARK    8  A    between atoms: C_24  and  O_25 
REMARK    9  A    between atoms: C_29  and  C_32 
REMARK   10  A    between atoms: C_32  and  O_34 
ROOT
HETATM    1  C   UNK N   1      35.056  14.444   9.225  0.00  0.00     0.008 A 
HETATM    2  C   UNK N   1      33.848  15.141   9.088  0.00  0.00     0.027 A 
HETATM    3  C   UNK N   1      33.403  15.723   7.916  0.00  0.00    -0.025 A 
HETATM    4  C   UNK N   1      34.184  15.600   6.772  0.00  0.00     0.015 A 
HETATM    5  C   UNK N   1      35.392  14.899   6.835  0.00  0.00     0.038 A 
HETATM    6  C   UNK N   1      35.872  14.323   8.029  0.00  0.00     0.080 A 
ENDROOT
BRANCH   1   7
HETATM    7  C   UNK N   1      35.303  13.988  10.651  0.00  0.00    -0.022 A 
HETATM    8  C   UNK N   1      34.954  12.669  10.976  0.00  0.00     0.022 A 
HETATM    9  C   UNK N   1      35.036  12.116  12.261  0.00  0.00    -0.023 A 
HETATM   10  C   UNK N   1      35.508  12.973  13.321  0.00  0.00     0.037 A 
HETATM   11  C   UNK N   1      35.880  14.290  12.981  0.00  0.00     0.031 A 
HETATM   12  C   UNK N   1      35.776  14.782  11.682  0.00  0.00     0.014 A 
BRANCH   9  13
HETATM   13  C   UNK N   1      34.593  10.649  12.394  0.00  0.00    -0.022 C 
HETATM   14  C   UNK N   1      33.671  10.460  13.587  0.00  0.00     0.019 C 
HETATM   15  C   UNK N   1      35.797   9.727  12.473  0.00  0.00     0.019 C 
HETATM   16  C   UNK N   1      33.786  10.159  11.191  0.00  0.00     0.019 C 
ENDBRANCH   9  13
BRANCH  10  17
HETATM   17  N   UNK N   1      35.609  12.601  14.712  0.00  0.00    -0.380 N 
HETATM   18  C   UNK N   1      34.646  13.072  15.670  0.00  0.00     0.123 C 
HETATM   19  C   UNK N   1      34.909  12.289  16.941  0.00  0.00     0.021 C 
HETATM   20  C   UNK N   1      36.224  11.553  16.731  0.00  0.00     0.021 C 
HETATM   21  C   UNK N   1      36.563  11.686  15.261  0.00  0.00     0.123 C 
ENDBRANCH  10  17
ENDBRANCH   1   7
BRANCH   6  22
HETATM   22  O   UNK N   1      37.086  13.716   7.910  0.00  0.00    -0.348 OA
BRANCH  22  23
HETATM   23  C   UNK N   1      38.259  13.959   8.566  0.00  0.00     0.201 C 
BRANCH  23  24
HETATM   24  C   UNK N   1      38.522  12.837   9.550  0.00  0.00     0.190 C 
BRANCH  24  25
HETATM   25  O   UNK N   1      38.884  13.375  10.785  0.00  0.00    -0.399 OA
HETATM   26  H   UNK N   1      39.480  14.139  10.831  0.00  0.00     0.209 HD
ENDBRANCH  24  25
ENDBRANCH  23  24
ENDBRANCH  22  23
ENDBRANCH   6  22
BRANCH   3  27
HETATM   27  C   UNK N   1      32.157  16.523   7.963  0.00  0.00    -0.026 A 
HETATM   28  C   UNK N   1      31.054  16.114   7.192  0.00  0.00     0.013 A 
HETATM   29  C   UNK N   1      29.840  16.788   7.267  0.00  0.00     0.019 A 
HETATM   30  C   UNK N   1      29.697  17.882   8.123  0.00  0.00     0.037 A 
HETATM   31  C   UNK N   1      30.795  18.308   8.889  0.00  0.00     0.019 A 
HETATM   32  C   UNK N   1      32.020  17.633   8.809  0.00  0.00     0.013 A 
BRANCH  30  33
HETATM   33  C   UNK N   1      28.394  18.564   8.230  0.00  0.00     0.176 C 
HETATM   34  O   UNK N   1      28.044  19.362   7.371  0.00  0.00    -0.646 OA
BRANCH  33  35
HETATM   35  O   UNK N   1      27.571  18.300   9.262  0.00  0.00    -0.773 OA
HETATM   36  H   UNK N   1      27.260  18.990   9.815  0.00  0.00     0.167 HD
ENDBRANCH  33  35
ENDBRANCH  30  33
ENDBRANCH   3  27
TORSDOF 10
ENDMDL
MODEL 2
REMARK VINA RESULT:      -7.6      6.748     13.168
REMARK  10 active torsions:
REMARK  status: ('A' for Active; 'I' for Inactive)
REMARK    1  A    between atoms: C_2  and  C_5 
REMARK    2  A    between atoms: C_7  and  C_16 
REMARK    3  A    between atoms: C_10  and  N_11 
REMARK    4  A    between atoms: C_18  and  C_26 
REMARK    5  A    between atoms: C_21  and  O_22 
REMARK    6  A    between atoms: O_22  and  C_23 
REMARK    7  A    between atoms: C_23  and  C_24 
REMARK    8  A    between atoms: C_24  and  O_25 
REMARK    9  A    between atoms: C_29  and  C_32 
REMARK   10  A    between atoms: C_32  and  O_34 
ROOT
HETATM    1  C   UNK N   1      26.117  18.186   4.810  0.00  0.00     0.008 A 
HETATM    2  C   UNK N   1      27.242  17.832   5.568  0.00  0.00     0.027 A 
HETATM    3  C   UNK N   1      27.896  18.674   6.449  0.00  0.00    -0.025 A 
HETATM    4  C   UNK N   1      27.403  19.962   6.628  0.00  0.00     0.015 A 
HETATM    5  C   UNK N   1      26.271  20.373   5.918  0.00  0.00     0.038 A 
HETATM    6  C   UNK N   1      25.610  19.534   4.997  0.00  0.00     0.080 A 
ENDROOT
BRANCH   1   7
HETATM    7  C   UNK N   1      25.674  17.073   3.880  0.00  0.00    -0.022 A 
HETATM    8  C   UNK N   1      24.368  16.582   4.037  0.00  0.00     0.022 A 
HETATM    9  C   UNK N   1      23.831  15.504   3.321  0.00  0.00    -0.023 A 
HETATM   10  C   UNK N   1      24.688  14.854   2.360  0.00  0.00     0.037 A 
HETATM   11  C   UNK N   1      25.990  15.369   2.191  0.00  0.00     0.031 A 
HETATM   12  C   UNK N   1      26.467  16.447   2.934  0.00  0.00     0.014 A 
BRANCH   9  13
HETATM   13  C   UNK N   1      22.379  15.126   3.659  0.00  0.00    -0.022 C 
HETATM   14  C   UNK N   1      22.257  13.647   3.984  0.00  0.00     0.019 C 
HETATM   15  C   UNK N   1      21.442  15.525   2.533  0.00  0.00     0.019 C 
HETATM   16  C   UNK N   1      21.850  15.847   4.899  0.00  0.00     0.019 C 
ENDBRANCH   9  13
BRANCH  10  17
HETATM   17  N   UNK N   1      24.333  13.700   1.570  0.00  0.00    -0.380 N 
HETATM   18  C   UNK N   1      23.529  13.839   0.385  0.00  0.00     0.123 C 
HETATM   19  C   UNK N   1      23.579  12.493  -0.309  0.00  0.00     0.021 C 
HETATM   20  C   UNK N   1      24.225  11.524   0.671  0.00  0.00     0.021 C 
HETATM   21  C   UNK N   1      24.795  12.364   1.795  0.00  0.00     0.123 C 
ENDBRANCH  10  17
ENDBRANCH   1   7
BRANCH   6  22
HETATM   22  O   UNK N   1      24.551  20.118   4.368  0.00  0.00    -0.348 OA
BRANCH  22  23
HETATM   23  C   UNK N   1      24.382  20.444   3.052  0.00  0.00     0.201 C 
BRANCH  23  24
HETATM   24  C   UNK N   1      22.904  20.412   2.717  0.00  0.00     0.190 C 
BRANCH  24  25
HETATM   25  O   UNK N   1      22.378  21.701   2.807  0.00  0.00    -0.399 OA
HETATM   26  H   UNK N   1      22.710  22.321   3.474  0.00  0.00     0.209 HD
ENDBRANCH  24  25
ENDBRANCH  23  24
ENDBRANCH  22  23
ENDBRANCH   6  22
BRANCH   3  27
HETATM   27  C   UNK N   1      29.139  18.186   7.090  0.00  0.00    -0.026 A 
HETATM   28  C   UNK N   1      30.025  17.390   6.341  0.00  0.00     0.013 A 
HETATM   29  C   UNK N   1      31.240  16.977   6.877  0.00  0.00     0.019 A 
HETATM   30  C   UNK N   1      31.603  17.358   8.170  0.00  0.00     0.037 A 
HETATM   31  C   UNK N   1      30.720  18.142   8.933  0.00  0.00     0.019 A 
HETATM   32  C   UNK N   1      29.492  18.554   8.396  0.00  0.00     0.013 A 
BRANCH  30  33
HETATM   33  C   UNK N   1      32.912  16.953   8.714  0.00  0.00     0.176 C 
HETATM   34  O   UNK N   1      33.930  17.538   8.369  0.00  0.00    -0.646 OA
BRANCH  33  35
HETATM   35  O   UNK N   1      32.996  15.950   9.609  0.00  0.00    -0.773 OA
HETATM   36  H   UNK N   1      33.475  15.170   9.409  0.00  0.00     0.167 HD
ENDBRANCH  33  35
ENDBRANCH  30  33
ENDBRANCH   3  27
TORSDOF 10
ENDMDL
MODEL 3
REMARK VINA RESULT:      -7.6      5.782      9.726
REMARK  10 active torsions:
REMARK  status: ('A' for Active; 'I' for Inactive)
REMARK    1  A    between atoms: C_2  and  C_5 
REMARK    2  A    between atoms: C_7  and  C_16 
REMARK    3  A    between atoms: C_10  and  N_11 
REMARK    4  A    between atoms: C_18  and  C_26 
REMARK    5  A    between atoms: C_21  and  O_22 
REMARK    6  A    between atoms: O_22  and  C_23 
REMARK    7  A    between atoms: C_23  and  C_24 
REMARK    8  A    between atoms: C_24  and  O_25 
REMARK    9  A    between atoms: C_29  and  C_32 
REMARK   10  A    between atoms: C_32  and  O_34 
ROOT
HETATM    1  C   UNK N   1      26.988  16.390   6.066  0.00  0.00     0.008 A 
HETATM    2  C   UNK N   1      26.293  15.506   6.902  0.00  0.00     0.027 A 
HETATM    3  C   UNK N   1      24.986  15.098   6.706  0.00  0.00    -0.025 A 
HETATM    4  C   UNK N   1      24.302  15.569   5.591  0.00  0.00     0.015 A 
HETATM    5  C   UNK N   1      24.944  16.438   4.704  0.00  0.00     0.038 A 
HETATM    6  C   UNK N   1      26.267  16.883   4.905  0.00  0.00     0.080 A 
ENDROOT
BRANCH   1   7
HETATM    7  C   UNK N   1      28.378  16.705   6.584  0.00  0.00    -0.022 A 
HETATM    8  C   UNK N   1      29.461  16.429   5.736  0.00  0.00     0.022 A 
HETATM    9  C   UNK N   1      30.808  16.580   6.089  0.00  0.00    -0.023 A 
HETATM   10  C   UNK N   1      31.095  17.046   7.424  0.00  0.00     0.037 A 
HETATM   11  C   UNK N   1      30.001  17.344   8.261  0.00  0.00     0.031 A 
HETATM   12  C   UNK N   1      28.680  17.174   7.851  0.00  0.00     0.014 A 
BRANCH   9  13
HETATM   13  C   UNK N   1      31.836  16.211   5.006  0.00  0.00    -0.022 C 
HETATM   14  C   UNK N   1      32.592  17.438   4.525  0.00  0.00     0.019 C 
HETATM   15  C   UNK N   1      31.167  15.485   3.852  0.00  0.00     0.019 C 
HETATM   16  C   UNK N   1      32.917  15.256   5.512  0.00  0.00     0.019 C 
ENDBRANCH   9  13
BRANCH  10  17
HETATM   17  N   UNK N   1      32.414  17.211   7.986  0.00  0.00    -0.380 N 
HETATM   18  C   UNK N   1      32.997  16.184   8.807  0.00  0.00     0.123 C 
HETATM   19  C   UNK N   1      34.448  16.577   8.994  0.00  0.00     0.021 C 
HETATM   20  C   UNK N   1      34.584  17.996   8.464  0.00  0.00     0.021 C 
HETATM   21  C   UNK N   1      33.299  18.306   7.724  0.00  0.00     0.123 C 
ENDBRANCH  10  17
ENDBRANCH   1   7
BRANCH   6  22
HETATM   22  O   UNK N   1      26.712  17.759   3.961  0.00  0.00    -0.348 OA
BRANCH  22  23
HETATM   23  C   UNK N   1      26.480  19.098   3.825  0.00  0.00     0.201 C 
BRANCH  23  24
HETATM   24  C   UNK N   1      27.455  19.866   4.694  0.00  0.00     0.190 C 
BRANCH  24  25
HETATM   25  O   UNK N   1      28.759  19.616   4.265  0.00  0.00    -0.399 OA
HETATM   26  H   UNK N   1      28.968  18.803   3.779  0.00  0.00     0.209 HD
ENDBRANCH  24  25
ENDBRANCH  23  24
ENDBRANCH  22  23
ENDBRANCH   6  22
BRANCH   3  27
HETATM   27  C   UNK N   1      24.357  14.249   7.744  0.00  0.00    -0.026 A 
HETATM   28  C   UNK N   1      25.167  13.674   8.739  0.00  0.00     0.013 A 
HETATM   29  C   UNK N   1      24.609  12.936   9.778  0.00  0.00     0.019 A 
HETATM   30  C   UNK N   1      23.225  12.764   9.851  0.00  0.00     0.037 A 
HETATM   31  C   UNK N   1      22.405  13.324   8.855  0.00  0.00     0.019 A 
HETATM   32  C   UNK N   1      22.968  14.062   7.806  0.00  0.00     0.013 A 
BRANCH  30  33
HETATM   33  C   UNK N   1      22.637  12.019  10.979  0.00  0.00     0.176 C 
HETATM   34  O   UNK N   1      23.354  11.583  11.870  0.00  0.00    -0.646 OA
BRANCH  33  35
HETATM   35  O   UNK N   1      21.307  11.827  11.048  0.00  0.00    -0.773 OA
HETATM   36  H   UNK N   1      20.864  11.307  10.407  0.00  0.00     0.167 HD
ENDBRANCH  33  35
ENDBRANCH  30  33
ENDBRANCH   3  27
TORSDOF 10
ENDMDL
MODEL 4
REMARK VINA RESULT:      -7.5      7.545     11.355
REMARK  10 active torsions:
REMARK  status: ('A' for Active; 'I' for Inactive)
REMARK    1  A    between atoms: C_2  and  C_5 
REMARK    2  A    between atoms: C_7  and  C_16 
REMARK    3  A    between atoms: C_10  and  N_11 
REMARK    4  A    between atoms: C_18  and  C_26 
REMARK    5  A    between atoms: C_21  and  O_22 
REMARK    6  A    between atoms: O_22  and  C_23 
REMARK    7  A    between atoms: C_23  and  C_24 
REMARK    8  A    between atoms: C_24  and  O_25 
REMARK    9  A    between atoms: C_29  and  C_32 
REMARK   10  A    between atoms: C_32  and  O_34 
ROOT
HETATM    1  C   UNK N   1      25.097  14.963   6.043  0.00  0.00     0.008 A 
HETATM    2  C   UNK N   1      24.804  14.276   7.229  0.00  0.00     0.027 A 
HETATM    3  C   UNK N   1      23.532  13.924   7.643  0.00  0.00    -0.025 A 
HETATM    4  C   UNK N   1      22.454  14.245   6.825  0.00  0.00     0.015 A 
HETATM    5  C   UNK N   1      22.678  14.913   5.618  0.00  0.00     0.038 A 
HETATM    6  C   UNK N   1      23.966  15.301   5.196  0.00  0.00     0.080 A 
ENDROOT
BRANCH   1   7
HETATM    7  C   UNK N   1      26.575  15.271   5.904  0.00  0.00    -0.022 A 
HETATM    8  C   UNK N   1      27.114  16.248   6.755  0.00  0.00     0.022 A 
HETATM    9  C   UNK N   1      28.435  16.712   6.700  0.00  0.00    -0.023 A 
HETATM   10  C   UNK N   1      29.296  16.143   5.691  0.00  0.00     0.037 A 
HETATM   11  C   UNK N   1      28.753  15.145   4.857  0.00  0.00     0.031 A 
HETATM   12  C   UNK N   1      27.429  14.724   4.960  0.00  0.00     0.014 A 
BRANCH   9  13
HETATM   13  C   UNK N   1      28.814  17.795   7.724  0.00  0.00    -0.022 C 
HETATM   14  C   UNK N   1      28.009  17.647   9.004  0.00  0.00     0.019 C 
HETATM   15  C   UNK N   1      28.653  19.182   7.127  0.00  0.00     0.019 C 
HETATM   16  C   UNK N   1      30.275  17.712   8.166  0.00  0.00     0.019 C 
ENDBRANCH   9  13
BRANCH  10  17
HETATM   17  N   UNK N   1      30.664  16.530   5.446  0.00  0.00    -0.380 N 
HETATM   18  C   UNK N   1      31.753  15.751   5.971  0.00  0.00     0.123 C 
HETATM   19  C   UNK N   1      33.005  16.292   5.310  0.00  0.00     0.021 C 
HETATM   20  C   UNK N   1      32.599  17.573   4.598  0.00  0.00     0.021 C 
HETATM   21  C   UNK N   1      31.085  17.613   4.610  0.00  0.00     0.123 C 
ENDBRANCH  10  17
ENDBRANCH   1   7
BRANCH   6  22
HETATM   22  O   UNK N   1      23.988  15.978   4.014  0.00  0.00    -0.348 OA
BRANCH  22  23
HETATM   23  C   UNK N   1      23.573  17.246   3.719  0.00  0.00     0.201 C 
BRANCH  23  24
HETATM   24  C   UNK N   1      24.721  18.211   3.940  0.00  0.00     0.190 C 
BRANCH  24  25
HETATM   25  O   UNK N   1      24.779  18.565   5.289  0.00  0.00    -0.399 OA
HETATM   26  H   UNK N   1      24.135  19.186   5.661  0.00  0.00     0.209 HD
ENDBRANCH  24  25
ENDBRANCH  23  24
ENDBRANCH  22  23
ENDBRANCH   6  22
BRANCH   3  27
HETATM   27  C   UNK N   1      23.379  13.300   8.977  0.00  0.00    -0.026 A 
HETATM   28  C   UNK N   1      24.523  12.825   9.644  0.00  0.00     0.013 A 
HETATM   29  C   UNK N   1      24.436  12.305  10.931  0.00  0.00     0.019 A 
HETATM   30  C   UNK N   1      23.204  12.257  11.586  0.00  0.00     0.037 A 
HETATM   31  C   UNK N   1      22.051  12.718  10.926  0.00  0.00     0.019 A 
HETATM   32  C   UNK N   1      22.138  13.236   9.627  0.00  0.00     0.013 A 
BRANCH  30  33
HETATM   33  C   UNK N   1      23.127  11.746  12.967  0.00  0.00     0.176 C 
HETATM   34  O   UNK N   1      23.920  12.136  13.813  0.00  0.00    -0.646 OA
BRANCH  33  35
HETATM   35  O   UNK N   1      22.174  10.860  13.312  0.00  0.00    -0.773 OA
HETATM   36  H   UNK N   1      22.392   9.967  13.490  0.00  0.00     0.167 HD
ENDBRANCH  33  35
ENDBRANCH  30  33
ENDBRANCH   3  27
TORSDOF 10
ENDMDL
MODEL 5
REMARK VINA RESULT:      -7.5      7.591     11.413
REMARK  10 active torsions:
REMARK  status: ('A' for Active; 'I' for Inactive)
REMARK    1  A    between atoms: C_2  and  C_5 
REMARK    2  A    between atoms: C_7  and  C_16 
REMARK    3  A    between atoms: C_10  and  N_11 
REMARK    4  A    between atoms: C_18  and  C_26 
REMARK    5  A    between atoms: C_21  and  O_22 
REMARK    6  A    between atoms: O_22  and  C_23 
REMARK    7  A    between atoms: C_23  and  C_24 
REMARK    8  A    between atoms: C_24  and  O_25 
REMARK    9  A    between atoms: C_29  and  C_32 
REMARK   10  A    between atoms: C_32  and  O_34 
ROOT
HETATM    1  C   UNK N   1      24.744  14.839   6.881  0.00  0.00     0.008 A 
HETATM    2  C   UNK N   1      23.850  15.661   6.182  0.00  0.00     0.027 A 
HETATM    3  C   UNK N   1      22.473  15.582   6.270  0.00  0.00    -0.025 A 
HETATM    4  C   UNK N   1      21.913  14.642   7.128  0.00  0.00     0.015 A 
HETATM    5  C   UNK N   1      22.749  13.803   7.872  0.00  0.00     0.038 A 
HETATM    6  C   UNK N   1      24.155  13.854   7.772  0.00  0.00     0.080 A 
ENDROOT
BRANCH   1   7
HETATM    7  C   UNK N   1      26.190  15.115   6.517  0.00  0.00    -0.022 A 
HETATM    8  C   UNK N   1      26.836  16.166   7.188  0.00  0.00     0.022 A 
HETATM    9  C   UNK N   1      28.136  16.607   6.913  0.00  0.00    -0.023 A 
HETATM   10  C   UNK N   1      28.856  15.932   5.860  0.00  0.00     0.037 A 
HETATM   11  C   UNK N   1      28.209  14.862   5.208  0.00  0.00     0.031 A 
HETATM   12  C   UNK N   1      26.912  14.469   5.528  0.00  0.00     0.014 A 
BRANCH   9  13
HETATM   13  C   UNK N   1      28.646  17.781   7.766  0.00  0.00    -0.022 C 
HETATM   14  C   UNK N   1      27.973  17.804   9.128  0.00  0.00     0.019 C 
HETATM   15  C   UNK N   1      28.460  19.099   7.034  0.00  0.00     0.019 C 
HETATM   16  C   UNK N   1      30.142  17.693   8.067  0.00  0.00     0.019 C 
ENDBRANCH   9  13
BRANCH  10  17
HETATM   17  N   UNK N   1      30.179  16.277   5.399  0.00  0.00    -0.380 N 
HETATM   18  C   UNK N   1      30.378  17.378   4.495  0.00  0.00     0.123 C 
HETATM   19  C   UNK N   1      31.875  17.603   4.440  0.00  0.00     0.021 C 
HETATM   20  C   UNK N   1      32.518  16.418   5.144  0.00  0.00     0.021 C 
HETATM   21  C   UNK N   1      31.399  15.672   5.841  0.00  0.00     0.123 C 
ENDBRANCH  10  17
ENDBRANCH   1   7
BRANCH   6  22
HETATM   22  O   UNK N   1      24.804  12.934   8.540  0.00  0.00    -0.348 OA
BRANCH  22  23
HETATM   23  C   UNK N   1      24.304  11.955   9.350  0.00  0.00     0.201 C 
BRANCH  23  24
HETATM   24  C   UNK N   1      24.729  12.224  10.780  0.00  0.00     0.190 C 
BRANCH  24  25
HETATM   25  O   UNK N   1      25.611  13.304  10.808  0.00  0.00    -0.399 OA
HETATM   26  H   UNK N   1      25.760  13.838  10.012  0.00  0.00     0.209 HD
ENDBRANCH  24  25
ENDBRANCH  23  24
ENDBRANCH  22  23
ENDBRANCH   6  22
BRANCH   3  27
HETATM   27  C   UNK N   1      21.665  16.447   5.379  0.00  0.00    -0.026 A 
HETATM   28  C   UNK N   1      21.860  17.839   5.419  0.00  0.00     0.013 A 
HETATM   29  C   UNK N   1      21.182  18.681   4.545  0.00  0.00     0.019 A 
HETATM   30  C   UNK N   1      20.299  18.150   3.602  0.00  0.00     0.037 A 
HETATM   31  C   UNK N   1      20.086  16.762   3.561  0.00  0.00     0.019 A 
HETATM   32  C   UNK N   1      20.765  15.913   4.446  0.00  0.00     0.013 A 
BRANCH  30  33
HETATM   33  C   UNK N   1      19.618  19.046   2.650  0.00  0.00     0.176 C 
HETATM   34  O   UNK N   1      20.245  19.924   2.074  0.00  0.00    -0.646 OA
BRANCH  33  35
HETATM   35  O   UNK N   1      18.305  18.892   2.392  0.00  0.00    -0.773 OA
HETATM   36  H   UNK N   1      17.988  18.119   1.970  0.00  0.00     0.167 HD
ENDBRANCH  33  35
ENDBRANCH  30  33
ENDBRANCH   3  27
TORSDOF 10
ENDMDL
MODEL 6
REMARK VINA RESULT:      -7.4      6.965     13.387
REMARK  10 active torsions:
REMARK  status: ('A' for Active; 'I' for Inactive)
REMARK    1  A    between atoms: C_2  and  C_5 
REMARK    2  A    between atoms: C_7  and  C_16 
REMARK    3  A    between atoms: C_10  and  N_11 
REMARK    4  A    between atoms: C_18  and  C_26 
REMARK    5  A    between atoms: C_21  and  O_22 
REMARK    6  A    between atoms: O_22  and  C_23 
REMARK    7  A    between atoms: C_23  and  C_24 
REMARK    8  A    between atoms: C_24  and  O_25 
REMARK    9  A    between atoms: C_29  and  C_32 
REMARK   10  A    between atoms: C_32  and  O_34 
ROOT
HETATM    1  C   UNK N   1      25.535  18.611   4.922  0.00  0.00     0.008 A 
HETATM    2  C   UNK N   1      26.605  18.103   5.672  0.00  0.00     0.027 A 
HETATM    3  C   UNK N   1      27.640  18.864   6.184  0.00  0.00    -0.025 A 
HETATM    4  C   UNK N   1      27.624  20.238   5.971  0.00  0.00     0.015 A 
HETATM    5  C   UNK N   1      26.575  20.812   5.248  0.00  0.00     0.038 A 
HETATM    6  C   UNK N   1      25.527  20.046   4.698  0.00  0.00     0.080 A 
ENDROOT
BRANCH   1   7
HETATM    7  C   UNK N   1      24.601  17.520   4.436  0.00  0.00    -0.022 A 
HETATM    8  C   UNK N   1      25.136  16.543   3.583  0.00  0.00     0.022 A 
HETATM    9  C   UNK N   1      24.395  15.520   2.978  0.00  0.00    -0.023 A 
HETATM   10  C   UNK N   1      22.979  15.477   3.252  0.00  0.00     0.037 A 
HETATM   11  C   UNK N   1      22.454  16.447   4.129  0.00  0.00     0.031 A 
HETATM   12  C   UNK N   1      23.244  17.441   4.702  0.00  0.00     0.014 A 
BRANCH   9  13
HETATM   13  C   UNK N   1      25.184  14.560   2.071  0.00  0.00    -0.022 C 
HETATM   14  C   UNK N   1      25.302  13.182   2.698  0.00  0.00     0.019 C 
HETATM   15  C   UNK N   1      26.549  15.134   1.735  0.00  0.00     0.019 C 
HETATM   16  C   UNK N   1      24.503  14.322   0.722  0.00  0.00     0.019 C 
ENDBRANCH   9  13
BRANCH  10  17
HETATM   17  N   UNK N   1      22.047  14.535   2.681  0.00  0.00    -0.380 N 
HETATM   18  C   UNK N   1      21.325  14.853   1.478  0.00  0.00     0.123 C 
HETATM   19  C   UNK N   1      20.659  13.563   1.042  0.00  0.00     0.021 C 
HETATM   20  C   UNK N   1      20.825  12.581   2.191  0.00  0.00     0.021 C 
HETATM   21  C   UNK N   1      21.816  13.203   3.152  0.00  0.00     0.123 C 
ENDBRANCH  10  17
ENDBRANCH   1   7
BRANCH   6  22
HETATM   22  O   UNK N   1      24.615  20.771   3.991  0.00  0.00    -0.348 OA
BRANCH  22  23
HETATM   23  C   UNK N   1      24.156  20.601   2.716  0.00  0.00     0.201 C 
BRANCH  23  24
HETATM   24  C   UNK N   1      22.649  20.442   2.744  0.00  0.00     0.190 C 
BRANCH  24  25
HETATM   25  O   UNK N   1      22.048  21.701   2.771  0.00  0.00    -0.399 OA
HETATM   26  H   UNK N   1      22.552  22.479   3.054  0.00  0.00     0.209 HD
ENDBRANCH  24  25
ENDBRANCH  23  24
ENDBRANCH  22  23
ENDBRANCH   6  22
BRANCH   3  27
HETATM   27  C   UNK N   1      28.756  18.161   6.858  0.00  0.00    -0.026 A 
HETATM   28  C   UNK N   1      29.580  17.306   6.104  0.00  0.00     0.013 A 
HETATM   29  C   UNK N   1      30.686  16.690   6.678  0.00  0.00     0.019 A 
HETATM   30  C   UNK N   1      31.001  16.921   8.018  0.00  0.00     0.037 A 
HETATM   31  C   UNK N   1      30.179  17.763   8.786  0.00  0.00     0.019 A 
HETATM   32  C   UNK N   1      29.060  18.380   8.210  0.00  0.00     0.013 A 
BRANCH  30  33
HETATM   33  C   UNK N   1      32.201  16.298   8.607  0.00  0.00     0.176 C 
HETATM   34  O   UNK N   1      32.364  15.088   8.537  0.00  0.00    -0.646 OA
BRANCH  33  35
HETATM   35  O   UNK N   1      33.135  17.058   9.210  0.00  0.00    -0.773 OA
HETATM   36  H   UNK N   1      33.471  17.825   8.791  0.00  0.00     0.167 HD
ENDBRANCH  33  35
ENDBRANCH  30  33
ENDBRANCH   3  27
TORSDOF 10
ENDMDL
MODEL 7
REMARK VINA RESULT:      -7.2      5.476     10.116
REMARK  10 active torsions:
REMARK  status: ('A' for Active; 'I' for Inactive)
REMARK    1  A    between atoms: C_2  and  C_5 
REMARK    2  A    between atoms: C_7  and  C_16 
REMARK    3  A    between atoms: C_10  and  N_11 
REMARK    4  A    between atoms: C_18  and  C_26 
REMARK    5  A    between atoms: C_21  and  O_22 
REMARK    6  A    between atoms: O_22  and  C_23 
REMARK    7  A    between atoms: C_23  and  C_24 
REMARK    8  A    between atoms: C_24  and  O_25 
REMARK    9  A    between atoms: C_29  and  C_32 
REMARK   10  A    between atoms: C_32  and  O_34 
ROOT
HETATM    1  C   UNK N   1      27.690  18.441   4.930  0.00  0.00     0.008 A 
HETATM    2  C   UNK N   1      27.032  17.390   4.277  0.00  0.00     0.027 A 
HETATM    3  C   UNK N   1      25.889  17.529   3.512  0.00  0.00    -0.025 A 
HETATM    4  C   UNK N   1      25.351  18.801   3.346  0.00  0.00     0.015 A 
HETATM    5  C   UNK N   1      25.969  19.897   3.954  0.00  0.00     0.038 A 
HETATM    6  C   UNK N   1      27.120  19.766   4.758  0.00  0.00     0.080 A 
ENDROOT
BRANCH   1   7
HETATM    7  C   UNK N   1      28.870  17.962   5.753  0.00  0.00    -0.022 A 
HETATM    8  C   UNK N   1      30.032  17.587   5.060  0.00  0.00     0.022 A 
HETATM    9  C   UNK N   1      31.176  17.045   5.658  0.00  0.00    -0.023 A 
HETATM   10  C   UNK N   1      31.151  16.856   7.088  0.00  0.00     0.037 A 
HETATM   11  C   UNK N   1      29.990  17.258   7.780  0.00  0.00     0.031 A 
HETATM   12  C   UNK N   1      28.881  17.793   7.128  0.00  0.00     0.014 A 
BRANCH   9  13
HETATM   13  C   UNK N   1      32.334  16.697   4.707  0.00  0.00    -0.022 C 
HETATM   14  C   UNK N   1      32.592  15.200   4.680  0.00  0.00     0.019 C 
HETATM   15  C   UNK N   1      33.588  17.468   5.079  0.00  0.00     0.019 C 
HETATM   16  C   UNK N   1      32.044  17.073   3.254  0.00  0.00     0.019 C 
ENDBRANCH   9  13
BRANCH  10  17
HETATM   17  N   UNK N   1      32.209  16.265   7.871  0.00  0.00    -0.380 N 
HETATM   18  C   UNK N   1      33.226  17.086   8.471  0.00  0.00     0.123 C 
HETATM   19  C   UNK N   1      33.993  16.175   9.408  0.00  0.00     0.021 C 
HETATM   20  C   UNK N   1      33.530  14.757   9.110  0.00  0.00     0.021 C 
HETATM   21  C   UNK N   1      32.312  14.880   8.218  0.00  0.00     0.123 C 
ENDBRANCH  10  17
ENDBRANCH   1   7
BRANCH   6  22
HETATM   22  O   UNK N   1      27.559  20.936   5.302  0.00  0.00    -0.348 OA
BRANCH  22  23
HETATM   23  C   UNK N   1      27.028  21.692   6.308  0.00  0.00     0.201 C 
BRANCH  23  24
HETATM   24  C   UNK N   1      26.739  20.802   7.501  0.00  0.00     0.190 C 
BRANCH  24  25
HETATM   25  O   UNK N   1      25.698  21.350   8.250  0.00  0.00    -0.399 OA
HETATM   26  H   UNK N   1      24.782  21.285   7.937  0.00  0.00     0.209 HD
ENDBRANCH  24  25
ENDBRANCH  23  24
ENDBRANCH  22  23
ENDBRANCH   6  22
BRANCH   3  27
HETATM   27  C   UNK N   1      25.250  16.303   2.981  0.00  0.00    -0.026 A 
HETATM   28  C   UNK N   1      23.949  15.975   3.400  0.00  0.00     0.013 A 
HETATM   29  C   UNK N   1      23.281  14.879   2.867  0.00  0.00     0.019 A 
HETATM   30  C   UNK N   1      23.895  14.088   1.894  0.00  0.00     0.037 A 
HETATM   31  C   UNK N   1      25.201  14.398   1.475  0.00  0.00     0.019 A 
HETATM   32  C   UNK N   1      25.877  15.500   2.017  0.00  0.00     0.013 A 
BRANCH  30  33
HETATM   33  C   UNK N   1      23.164  12.953   1.301  0.00  0.00     0.176 C 
HETATM   34  O   UNK N   1      23.200  11.852   1.833  0.00  0.00    -0.646 OA
BRANCH  33  35
HETATM   35  O   UNK N   1      22.435  13.123   0.182  0.00  0.00    -0.773 OA
HETATM   36  H   UNK N   1      22.343  12.428  -0.439  0.00  0.00     0.167 HD
ENDBRANCH  33  35
ENDBRANCH  30  33
ENDBRANCH   3  27
TORSDOF 10
ENDMDL
MODEL 8
REMARK VINA RESULT:      -7.2      4.868      8.408
REMARK  10 active torsions:
REMARK  status: ('A' for Active; 'I' for Inactive)
REMARK    1  A    between atoms: C_2  and  C_5 
REMARK    2  A    between atoms: C_7  and  C_16 
REMARK    3  A    between atoms: C_10  and  N_11 
REMARK    4  A    between atoms: C_18  and  C_26 
REMARK    5  A    between atoms: C_21  and  O_22 
REMARK    6  A    between atoms: O_22  and  C_23 
REMARK    7  A    between atoms: C_23  and  C_24 
REMARK    8  A    between atoms: C_24  and  O_25 
REMARK    9  A    between atoms: C_29  and  C_32 
REMARK   10  A    between atoms: C_32  and  O_34 
ROOT
HETATM    1  C   UNK N   1      30.652  17.046   6.625  0.00  0.00     0.008 A 
HETATM    2  C   UNK N   1      29.634  17.688   5.907  0.00  0.00     0.027 A 
HETATM    3  C   UNK N   1      28.566  18.354   6.479  0.00  0.00    -0.025 A 
HETATM    4  C   UNK N   1      28.491  18.425   7.866  0.00  0.00     0.015 A 
HETATM    5  C   UNK N   1      29.485  17.823   8.642  0.00  0.00     0.038 A 
HETATM    6  C   UNK N   1      30.566  17.118   8.073  0.00  0.00     0.080 A 
ENDROOT
BRANCH   1   7
HETATM    7  C   UNK N   1      31.641  16.339   5.718  0.00  0.00    -0.022 A 
HETATM    8  C   UNK N   1      31.268  15.086   5.208  0.00  0.00     0.022 A 
HETATM    9  C   UNK N   1      32.094  14.265   4.429  0.00  0.00    -0.023 A 
HETATM   10  C   UNK N   1      33.423  14.746   4.139  0.00  0.00     0.037 A 
HETATM   11  C   UNK N   1      33.781  16.016   4.636  0.00  0.00     0.031 A 
HETATM   12  C   UNK N   1      32.914  16.788   5.406  0.00  0.00     0.014 A 
BRANCH   9  13
HETATM   13  C   UNK N   1      31.485  12.926   3.981  0.00  0.00    -0.022 C 
HETATM   14  C   UNK N   1      32.240  11.751   4.579  0.00  0.00     0.019 C 
HETATM   15  C   UNK N   1      31.432  12.836   2.466  0.00  0.00     0.019 C 
HETATM   16  C   UNK N   1      30.040  12.744   4.447  0.00  0.00     0.019 C 
ENDBRANCH   9  13
BRANCH  10  17
HETATM   17  N   UNK N   1      34.431  14.022   3.403  0.00  0.00    -0.380 N 
HETATM   18  C   UNK N   1      34.593  14.223   1.988  0.00  0.00     0.123 C 
HETATM   19  C   UNK N   1      35.880  13.515   1.614  0.00  0.00     0.021 C 
HETATM   20  C   UNK N   1      36.289  12.692   2.826  0.00  0.00     0.021 C 
HETATM   21  C   UNK N   1      35.408  13.144   3.972  0.00  0.00     0.123 C 
ENDBRANCH  10  17
ENDBRANCH   1   7
BRANCH   6  22
HETATM   22  O   UNK N   1      31.414  16.563   8.984  0.00  0.00    -0.348 OA
BRANCH  22  23
HETATM   23  C   UNK N   1      31.887  15.285   9.080  0.00  0.00     0.201 C 
BRANCH  23  24
HETATM   24  C   UNK N   1      33.264  15.307   9.712  0.00  0.00     0.190 C 
BRANCH  24  25
HETATM   25  O   UNK N   1      33.165  14.953  11.058  0.00  0.00    -0.399 OA
HETATM   26  H   UNK N   1      32.372  14.503  11.390  0.00  0.00     0.209 HD
ENDBRANCH  24  25
ENDBRANCH  23  24
ENDBRANCH  22  23
ENDBRANCH   6  22
BRANCH   3  27
HETATM   27  C   UNK N   1      27.512  18.884   5.583  0.00  0.00    -0.026 A 
HETATM   28  C   UNK N   1      27.408  20.274   5.397  0.00  0.00     0.013 A 
HETATM   29  C   UNK N   1      26.487  20.809   4.504  0.00  0.00     0.019 A 
HETATM   30  C   UNK N   1      25.652  19.966   3.768  0.00  0.00     0.037 A 
HETATM   31  C   UNK N   1      25.737  18.575   3.954  0.00  0.00     0.019 A 
HETATM   32  C   UNK N   1      26.662  18.036   4.858  0.00  0.00     0.013 A 
BRANCH  30  33
HETATM   33  C   UNK N   1      24.708  20.539   2.791  0.00  0.00     0.176 C 
HETATM   34  O   UNK N   1      25.000  20.580   1.603  0.00  0.00    -0.646 OA
BRANCH  33  35
HETATM   35  O   UNK N   1      23.511  21.004   3.194  0.00  0.00    -0.773 OA
HETATM   36  H   UNK N   1      23.442  21.563   3.943  0.00  0.00     0.167 HD
ENDBRANCH  33  35
ENDBRANCH  30  33
ENDBRANCH   3  27
TORSDOF 10
ENDMDL
MODEL 9
REMARK VINA RESULT:      -7.0      6.630     13.239
REMARK  10 active torsions:
REMARK  status: ('A' for Active; 'I' for Inactive)
REMARK    1  A    between atoms: C_2  and  C_5 
REMARK    2  A    between atoms: C_7  and  C_16 
REMARK    3  A    between atoms: C_10  and  N_11 
REMARK    4  A    between atoms: C_18  and  C_26 
REMARK    5  A    between atoms: C_21  and  O_22 
REMARK    6  A    between atoms: O_22  and  C_23 
REMARK    7  A    between atoms: C_23  and  C_24 
REMARK    8  A    between atoms: C_24  and  O_25 
REMARK    9  A    between atoms: C_29  and  C_32 
REMARK   10  A    between atoms: C_32  and  O_34 
ROOT
HETATM    1  C   UNK N   1      35.901  10.528  20.187  0.00  0.00     0.008 A 
HETATM    2  C   UNK N   1      37.183  10.770  20.699  0.00  0.00     0.027 A 
HETATM    3  C   UNK N   1      37.616  10.385  21.954  0.00  0.00    -0.025 A 
HETATM    4  C   UNK N   1      36.738   9.685  22.775  0.00  0.00     0.015 A 
HETATM    5  C   UNK N   1      35.450   9.392  22.318  0.00  0.00     0.038 A 
HETATM    6  C   UNK N   1      34.986   9.801  21.050  0.00  0.00     0.080 A 
ENDROOT
BRANCH   1   7
HETATM    7  C   UNK N   1      35.703  11.137  18.812  0.00  0.00    -0.022 A 
HETATM    8  C   UNK N   1      36.211  10.430  17.712  0.00  0.00     0.022 A 
HETATM    9  C   UNK N   1      36.190  10.890  16.389  0.00  0.00    -0.023 A 
HETATM   10  C   UNK N   1      35.606  12.187  16.148  0.00  0.00     0.037 A 
HETATM   11  C   UNK N   1      35.076  12.881  17.255  0.00  0.00     0.031 A 
HETATM   12  C   UNK N   1      35.127  12.369  18.550  0.00  0.00     0.014 A 
BRANCH   9  13
HETATM   13  C   UNK N   1      36.811   9.954  15.338  0.00  0.00    -0.022 C 
HETATM   14  C   UNK N   1      37.849  10.680  14.500  0.00  0.00     0.019 C 
HETATM   15  C   UNK N   1      35.734   9.330  14.468  0.00  0.00     0.019 C 
HETATM   16  C   UNK N   1      37.561   8.776  15.960  0.00  0.00     0.019 C 
ENDBRANCH   9  13
BRANCH  10  17
HETATM   17  N   UNK N   1      35.541  12.849  14.868  0.00  0.00    -0.380 N 
HETATM   18  C   UNK N   1      36.441  13.925  14.551  0.00  0.00     0.123 C 
HETATM   19  C   UNK N   1      36.263  14.191  13.070  0.00  0.00     0.021 C 
HETATM   20  C   UNK N   1      35.041  13.398  12.631  0.00  0.00     0.021 C 
HETATM   21  C   UNK N   1      34.695  12.469  13.777  0.00  0.00     0.123 C 
ENDBRANCH  10  17
ENDBRANCH   1   7
BRANCH   6  22
HETATM   22  O   UNK N   1      33.692   9.463  20.792  0.00  0.00    -0.348 OA
BRANCH  22  23
HETATM   23  C   UNK N   1      33.158   8.763  19.747  0.00  0.00     0.201 C 
BRANCH  23  24
HETATM   24  C   UNK N   1      31.919   8.029  20.219  0.00  0.00     0.190 C 
BRANCH  24  25
HETATM   25  O   UNK N   1      30.788   8.795  19.936  0.00  0.00    -0.399 OA
HETATM   26  H   UNK N   1      30.878   9.722  19.667  0.00  0.00     0.209 HD
ENDBRANCH  24  25
ENDBRANCH  23  24
ENDBRANCH  22  23
ENDBRANCH   6  22
BRANCH   3  27
HETATM   27  C   UNK N   1      38.964  10.817  22.391  0.00  0.00    -0.026 A 
HETATM   28  C   UNK N   1      40.094  10.211  21.814  0.00  0.00     0.013 A 
HETATM   29  C   UNK N   1      41.377  10.640  22.135  0.00  0.00     0.019 A 
HETATM   30  C   UNK N   1      41.560  11.692  23.035  0.00  0.00     0.037 A 
HETATM   31  C   UNK N   1      40.439  12.297  23.628  0.00  0.00     0.019 A 
HETATM   32  C   UNK N   1      39.146  11.861  23.309  0.00  0.00     0.013 A 
BRANCH  30  33
HETATM   33  C   UNK N   1      42.922  12.171  23.336  0.00  0.00     0.176 C 
HETATM   34  O   UNK N   1      43.759  11.401  23.788  0.00  0.00    -0.646 OA
BRANCH  33  35
HETATM   35  O   UNK N   1      43.261  13.452  23.100  0.00  0.00    -0.773 OA
HETATM   36  H   UNK N   1      44.119  13.766  23.306  0.00  0.00     0.167 HD
ENDBRANCH  33  35
ENDBRANCH  30  33
ENDBRANCH   3  27
TORSDOF 10
ENDMDL
