MODEL 1
REMARK VINA RESULT:      -4.0      0.000      0.000
REMARK  0 active torsions:
REMARK  status: ('A' for Active; 'I' for Inactive)
ROOT
HETATM    1  C   UNK N   1      20.901  20.236   2.923  0.00  0.00     0.271 A 
HETATM    2  N   UNK N   1      20.818  20.137   2.109  0.00  0.00    -0.077 N 
HETATM    3  C   UNK N   1      20.734  20.039   1.294  0.00  0.00     0.262 A 
HETATM    4  C   UNK N   1      20.782  20.693   0.792  0.00  0.00     0.192 A 
HETATM    5  O   UNK N   1      20.698  20.595  -0.022  0.00  0.00    -0.399 OA
HETATM    6  C   UNK N   1      20.920  20.949   2.000  0.00  0.00     0.271 A 
HETATM    7  C   UNK N   1      20.715  19.326   2.217  0.00  0.00     0.271 A 
HETATM    8  H   UNK N   1      20.754  21.363  -0.613  0.00  0.00     0.209 HD
ENDROOT
TORSDOF 0
ENDMDL
MODEL 2
REMARK VINA RESULT:      -3.9     13.096     13.635
REMARK  0 active torsions:
REMARK  status: ('A' for Active; 'I' for Inactive)
ROOT
HETATM    1  C   UNK N   1      22.850  11.823  10.740  0.00  0.00     0.271 A 
HETATM    2  N   UNK N   1      23.269  11.939  11.441  0.00  0.00    -0.077 N 
HETATM    3  C   UNK N   1      23.689  12.055  12.141  0.00  0.00     0.262 A 
HETATM    4  C   UNK N   1      23.291  12.059  12.865  0.00  0.00     0.192 A 
HETATM    5  O   UNK N   1      23.710  12.176  13.565  0.00  0.00    -0.399 OA
HETATM    6  C   UNK N   1      22.568  11.876  11.871  0.00  0.00     0.271 A 
HETATM    7  C   UNK N   1      23.971  12.001  11.011  0.00  0.00     0.271 A 
HETATM    8  H   UNK N   1      23.243  12.181  14.416  0.00  0.00     0.209 HD
ENDROOT
TORSDOF 0
ENDMDL
MODEL 3
REMARK VINA RESULT:      -3.8     12.673     13.134
REMARK  0 active torsions:
REMARK  status: ('A' for Active; 'I' for Inactive)
ROOT
HETATM    1  C   UNK N   1      22.330  12.172  11.182  0.00  0.00     0.271 A 
HETATM    2  N   UNK N   1      23.115  12.087  11.421  0.00  0.00    -0.077 N 
HETATM    3  C   UNK N   1      23.900  12.002  11.660  0.00  0.00     0.262 A 
HETATM    4  C   UNK N   1      24.511  12.118  11.118  0.00  0.00     0.192 A 
HETATM    5  O   UNK N   1      25.295  12.033  11.357  0.00  0.00    -0.399 OA
HETATM    6  C   UNK N   1      23.367  12.270  10.657  0.00  0.00     0.271 A 
HETATM    7  C   UNK N   1      22.862  11.904  12.185  0.00  0.00     0.271 A 
HETATM    8  H   UNK N   1      26.015  12.169  10.721  0.00  0.00     0.209 HD
ENDROOT
TORSDOF 0
ENDMDL
MODEL 4
REMARK VINA RESULT:      -3.6     10.950     11.504
REMARK  0 active torsions:
REMARK  status: ('A' for Active; 'I' for Inactive)
ROOT
HETATM    1  C   UNK N   1      30.340  18.210   8.831  0.00  0.00     0.271 A 
HETATM    2  N   UNK N   1      29.577  18.278   9.138  0.00  0.00    -0.077 N 
HETATM    3  C   UNK N   1      28.815  18.346   9.445  0.00  0.00     0.262 A 
HETATM    4  C   UNK N   1      28.183  17.969   9.069  0.00  0.00     0.192 A 
HETATM    5  O   UNK N   1      27.421  18.036   9.375  0.00  0.00    -0.399 OA
HETATM    6  C   UNK N   1      29.290  17.804   8.527  0.00  0.00     0.271 A 
HETATM    7  C   UNK N   1      29.865  18.752   9.749  0.00  0.00     0.271 A 
HETATM    8  H   UNK N   1      26.679  17.593   8.934  0.00  0.00     0.209 HD
ENDROOT
TORSDOF 0
ENDMDL
MODEL 5
REMARK VINA RESULT:      -3.5      7.859      8.236
REMARK  0 active torsions:
REMARK  status: ('A' for Active; 'I' for Inactive)
ROOT
HETATM    1  C   UNK N   1      18.464  16.959   8.782  0.00  0.00     0.271 A 
HETATM    2  N   UNK N   1      19.020  17.542   8.958  0.00  0.00    -0.077 N 
HETATM    3  C   UNK N   1      19.577  18.125   9.134  0.00  0.00     0.262 A 
HETATM    4  C   UNK N   1      19.396  18.717   9.680  0.00  0.00     0.192 A 
HETATM    5  O   UNK N   1      19.952  19.299   9.856  0.00  0.00    -0.399 OA
HETATM    6  C   UNK N   1      18.490  17.888   9.487  0.00  0.00     0.271 A 
HETATM    7  C   UNK N   1      19.551  17.195   8.430  0.00  0.00     0.271 A 
HETATM    8  H   UNK N   1      19.740  19.996  10.498  0.00  0.00     0.209 HD
ENDROOT
TORSDOF 0
ENDMDL
MODEL 6
REMARK VINA RESULT:      -3.4     12.551     12.998
REMARK  0 active torsions:
REMARK  status: ('A' for Active; 'I' for Inactive)
ROOT
HETATM    1  C   UNK N   1      23.910  12.125  11.017  0.00  0.00     0.271 A 
HETATM    2  N   UNK N   1      23.166  12.059  11.367  0.00  0.00    -0.077 N 
HETATM    3  C   UNK N   1      22.422  11.993  11.718  0.00  0.00     0.262 A 
HETATM    4  C   UNK N   1      21.741  12.054  11.255  0.00  0.00     0.192 A 
HETATM    5  O   UNK N   1      20.998  11.989  11.605  0.00  0.00    -0.399 OA
HETATM    6  C   UNK N   1      22.810  12.168  10.631  0.00  0.00     0.271 A 
HETATM    7  C   UNK N   1      23.523  11.951  12.104  0.00  0.00     0.271 A 
HETATM    8  H   UNK N   1      20.197  12.060  11.062  0.00  0.00     0.209 HD
ENDROOT
TORSDOF 0
ENDMDL
MODEL 7
REMARK VINA RESULT:      -3.3      1.724      2.121
REMARK  0 active torsions:
REMARK  status: ('A' for Active; 'I' for Inactive)
ROOT
HETATM    1  C   UNK N   1      21.147  20.312   2.745  0.00  0.00     0.271 A 
HETATM    2  N   UNK N   1      20.504  19.820   2.903  0.00  0.00    -0.077 N 
HETATM    3  C   UNK N   1      19.860  19.328   3.061  0.00  0.00     0.262 A 
HETATM    4  C   UNK N   1      19.350  19.106   2.451  0.00  0.00     0.192 A 
HETATM    5  O   UNK N   1      18.708  18.615   2.610  0.00  0.00    -0.399 OA
HETATM    6  C   UNK N   1      20.286  19.848   2.108  0.00  0.00     0.271 A 
HETATM    7  C   UNK N   1      20.721  19.792   3.699  0.00  0.00     0.271 A 
HETATM    8  H   UNK N   1      18.108  18.354   1.893  0.00  0.00     0.209 HD
ENDROOT
TORSDOF 0
ENDMDL
MODEL 8
REMARK VINA RESULT:      -3.3     22.522     22.655
REMARK  0 active torsions:
REMARK  status: ('A' for Active; 'I' for Inactive)
ROOT
HETATM    1  C   UNK N   1      43.069  20.942   3.461  0.00  0.00     0.271 A 
HETATM    2  N   UNK N   1      43.090  21.766   3.416  0.00  0.00    -0.077 N 
HETATM    3  C   UNK N   1      43.111  22.589   3.371  0.00  0.00     0.262 A 
HETATM    4  C   UNK N   1      43.581  23.019   3.897  0.00  0.00     0.192 A 
HETATM    5  O   UNK N   1      43.602  23.842   3.852  0.00  0.00    -0.399 OA
HETATM    6  C   UNK N   1      43.620  21.786   4.049  0.00  0.00     0.271 A 
HETATM    7  C   UNK N   1      42.560  21.745   2.784  0.00  0.00     0.271 A 
HETATM    8  H   UNK N   1      44.154  24.348   4.469  0.00  0.00     0.209 HD
ENDROOT
TORSDOF 0
ENDMDL
MODEL 9
REMARK VINA RESULT:      -3.3     17.281     17.721
REMARK  0 active torsions:
REMARK  status: ('A' for Active; 'I' for Inactive)
ROOT
HETATM    1  C   UNK N   1      34.671  14.794  11.277  0.00  0.00     0.271 A 
HETATM    2  N   UNK N   1      35.067  15.511  11.176  0.00  0.00    -0.077 N 
HETATM    3  C   UNK N   1      35.463  16.227  11.076  0.00  0.00     0.262 A 
HETATM    4  C   UNK N   1      35.262  16.726  10.449  0.00  0.00     0.192 A 
HETATM    5  O   UNK N   1      35.657  17.442  10.348  0.00  0.00    -0.399 OA
HETATM    6  C   UNK N   1      34.606  15.672  10.512  0.00  0.00     0.271 A 
HETATM    7  C   UNK N   1      35.529  15.349  11.841  0.00  0.00     0.271 A 
HETATM    8  H   UNK N   1      35.421  18.028   9.612  0.00  0.00     0.209 HD
ENDROOT
TORSDOF 0
ENDMDL
