MODEL 1
REMARK VINA RESULT:      -3.3      0.000      0.000
REMARK  2 active torsions:
REMARK  status: ('A' for Active; 'I' for Inactive)
REMARK    1  A    between atoms: O_3  and  N_1 
REMARK    2  A    between atoms: O_5  and  N_1 
ROOT
HETATM    1  N   UNK N   1      20.281  21.234   0.727  0.00  0.00    -0.177 N 
ATOM      2  HN  UNK N   1      19.821  20.827   1.542  1.00  0.00     0.223 HD
ENDROOT
BRANCH   1   3
HETATM    3  O   UNK N   1      20.486  22.532   0.668  0.00  0.00    -0.270 OA
ATOM      4  HO  UNK N   1      19.794  23.134   0.912  1.00  0.00     0.246 HD
ENDBRANCH   1   3
BRANCH   1   5
HETATM    5  O   UNK N   1      20.631  20.534  -0.171  0.00  0.00    -0.270 OA
ATOM      6  HO  UNK N   1      20.263  19.664  -0.266  1.00  0.00     0.246 HD
ENDBRANCH   1   5
TORSDOF 2
ENDMDL
MODEL 2
REMARK VINA RESULT:      -3.2      8.985      9.535
REMARK  2 active torsions:
REMARK  status: ('A' for Active; 'I' for Inactive)
REMARK    1  A    between atoms: O_3  and  N_1 
REMARK    2  A    between atoms: O_5  and  N_1 
ROOT
HETATM    1  N   UNK N   1      17.095  26.845   7.449  0.00  0.00    -0.177 N 
ATOM      2  HN  UNK N   1      16.127  26.674   7.175  1.00  0.00     0.223 HD
ENDROOT
BRANCH   1   3
HETATM    3  O   UNK N   1      17.382  27.830   8.271  0.00  0.00    -0.270 OA
ATOM      4  HO  UNK N   1      18.260  27.915   8.622  1.00  0.00     0.246 HD
ENDBRANCH   1   3
BRANCH   1   5
HETATM    5  O   UNK N   1      17.966  26.152   7.024  0.00  0.00    -0.270 OA
ATOM      6  HO  UNK N   1      17.760  25.297   6.664  1.00  0.00     0.246 HD
ENDBRANCH   1   5
TORSDOF 2
ENDMDL
MODEL 3
REMARK VINA RESULT:      -3.2      0.073      1.774
REMARK  2 active torsions:
REMARK  status: ('A' for Active; 'I' for Inactive)
REMARK    1  A    between atoms: O_3  and  N_1 
REMARK    2  A    between atoms: O_5  and  N_1 
ROOT
HETATM    1  N   UNK N   1      20.247  21.301   0.771  0.00  0.00    -0.177 N 
ATOM      2  HN  UNK N   1      19.750  20.946   1.589  1.00  0.00     0.223 HD
ENDROOT
BRANCH   1   3
HETATM    3  O   UNK N   1      20.630  20.473  -0.176  0.00  0.00    -0.270 OA
ATOM      4  HO  UNK N   1      20.302  19.581  -0.188  1.00  0.00     0.246 HD
ENDBRANCH   1   3
BRANCH   1   5
HETATM    5  O   UNK N   1      20.480  22.465   0.674  0.00  0.00    -0.270 OA
ATOM      6  HO  UNK N   1      20.513  23.009   1.452  1.00  0.00     0.246 HD
ENDBRANCH   1   5
TORSDOF 2
ENDMDL
MODEL 4
REMARK VINA RESULT:      -3.0     11.333     11.518
REMARK  2 active torsions:
REMARK  status: ('A' for Active; 'I' for Inactive)
REMARK    1  A    between atoms: O_3  and  N_1 
REMARK    2  A    between atoms: O_5  and  N_1 
ROOT
HETATM    1  N   UNK N   1      17.804  19.523  11.027  0.00  0.00    -0.177 N 
ATOM      2  HN  UNK N   1      17.584  19.260  10.066  1.00  0.00     0.223 HD
ENDROOT
BRANCH   1   3
HETATM    3  O   UNK N   1      19.043  19.804  11.365  0.00  0.00    -0.270 OA
ATOM      4  HO  UNK N   1      19.754  19.614  10.764  1.00  0.00     0.246 HD
ENDBRANCH   1   3
BRANCH   1   5
HETATM    5  O   UNK N   1      16.938  19.577  11.843  0.00  0.00    -0.270 OA
ATOM      6  HO  UNK N   1      16.926  20.285  12.477  1.00  0.00     0.246 HD
ENDBRANCH   1   5
TORSDOF 2
ENDMDL
MODEL 5
REMARK VINA RESULT:      -2.7     16.556     16.629
REMARK  2 active torsions:
REMARK  status: ('A' for Active; 'I' for Inactive)
REMARK    1  A    between atoms: O_3  and  N_1 
REMARK    2  A    between atoms: O_5  and  N_1 
ROOT
HETATM    1  N   UNK N   1      34.641  18.608   8.357  0.00  0.00    -0.177 N 
ATOM      2  HN  UNK N   1      33.989  18.256   9.058  1.00  0.00     0.223 HD
ENDROOT
BRANCH   1   3
HETATM    3  O   UNK N   1      34.561  18.187   7.114  0.00  0.00    -0.270 OA
ATOM      4  HO  UNK N   1      35.120  17.479   6.815  1.00  0.00     0.246 HD
ENDBRANCH   1   3
BRANCH   1   5
HETATM    5  O   UNK N   1      35.475  19.402   8.664  0.00  0.00    -0.270 OA
ATOM      6  HO  UNK N   1      36.378  19.124   8.771  1.00  0.00     0.246 HD
ENDBRANCH   1   5
TORSDOF 2
ENDMDL
MODEL 6
REMARK VINA RESULT:      -2.7     15.538     15.738
REMARK  2 active torsions:
REMARK  status: ('A' for Active; 'I' for Inactive)
REMARK    1  A    between atoms: O_3  and  N_1 
REMARK    2  A    between atoms: O_5  and  N_1 
ROOT
HETATM    1  N   UNK N   1      23.790  12.254  12.409  0.00  0.00    -0.177 N 
ATOM      2  HN  UNK N   1      22.921  12.120  11.891  1.00  0.00     0.223 HD
ENDROOT
BRANCH   1   3
HETATM    3  O   UNK N   1      24.935  12.318  11.766  0.00  0.00    -0.270 OA
ATOM      4  HO  UNK N   1      25.682  12.747  12.167  1.00  0.00     0.246 HD
ENDBRANCH   1   3
BRANCH   1   5
HETATM    5  O   UNK N   1      23.768  12.351  13.596  0.00  0.00    -0.270 OA
ATOM      6  HO  UNK N   1      23.194  11.794  14.107  1.00  0.00     0.246 HD
ENDBRANCH   1   5
TORSDOF 2
ENDMDL
MODEL 7
REMARK VINA RESULT:      -2.6     31.660     31.801
REMARK  2 active torsions:
REMARK  status: ('A' for Active; 'I' for Inactive)
REMARK    1  A    between atoms: O_3  and  N_1 
REMARK    2  A    between atoms: O_5  and  N_1 
ROOT
HETATM    1  N   UNK N   1      47.311  28.721  16.531  0.00  0.00    -0.177 N 
ATOM      2  HN  UNK N   1      47.927  28.534  17.323  1.00  0.00     0.223 HD
ENDROOT
BRANCH   1   3
HETATM    3  O   UNK N   1      46.115  29.228  16.734  0.00  0.00    -0.270 OA
ATOM      4  HO  UNK N   1      45.664  29.067  17.555  1.00  0.00     0.246 HD
ENDBRANCH   1   3
BRANCH   1   5
HETATM    5  O   UNK N   1      47.675  28.480  15.423  0.00  0.00    -0.270 OA
ATOM      6  HO  UNK N   1      47.052  28.175  14.774  1.00  0.00     0.246 HD
ENDBRANCH   1   5
TORSDOF 2
ENDMDL
MODEL 8
REMARK VINA RESULT:      -2.5     25.507     25.509
REMARK  2 active torsions:
REMARK  status: ('A' for Active; 'I' for Inactive)
REMARK    1  A    between atoms: O_3  and  N_1 
REMARK    2  A    between atoms: O_5  and  N_1 
ROOT
HETATM    1  N   UNK N   1      45.364  22.992   3.322  0.00  0.00    -0.177 N 
ATOM      2  HN  UNK N   1      44.516  22.665   2.858  1.00  0.00     0.223 HD
ENDROOT
BRANCH   1   3
HETATM    3  O   UNK N   1      45.938  24.109   2.931  0.00  0.00    -0.270 OA
ATOM      4  HO  UNK N   1      46.692  24.444   3.401  1.00  0.00     0.246 HD
ENDBRANCH   1   3
BRANCH   1   5
HETATM    5  O   UNK N   1      45.834  22.363   4.218  0.00  0.00    -0.270 OA
ATOM      6  HO  UNK N   1      46.633  22.659   4.638  1.00  0.00     0.246 HD
ENDBRANCH   1   5
TORSDOF 2
ENDMDL
MODEL 9
REMARK VINA RESULT:      -2.5     11.193     11.265
REMARK  2 active torsions:
REMARK  status: ('A' for Active; 'I' for Inactive)
REMARK    1  A    between atoms: O_3  and  N_1 
REMARK    2  A    between atoms: O_5  and  N_1 
ROOT
HETATM    1  N   UNK N   1      27.820  18.903   8.566  0.00  0.00    -0.177 N 
ATOM      2  HN  UNK N   1      28.781  18.875   8.225  1.00  0.00     0.223 HD
ENDROOT
BRANCH   1   3
HETATM    3  O   UNK N   1      27.406  18.012   9.440  0.00  0.00    -0.270 OA
ATOM      4  HO  UNK N   1      26.578  18.136   9.888  1.00  0.00     0.246 HD
ENDBRANCH   1   3
BRANCH   1   5
HETATM    5  O   UNK N   1      27.073  19.744   8.173  0.00  0.00    -0.270 OA
ATOM      6  HO  UNK N   1      26.134  19.607   8.227  1.00  0.00     0.246 HD
ENDBRANCH   1   5
TORSDOF 2
ENDMDL
