MODEL 1
REMARK VINA RESULT:      -6.9      0.000      0.000
REMARK  5 active torsions:
REMARK  status: ('A' for Active; 'I' for Inactive)
REMARK    1  A    between atoms: C_14  and  C_24 
REMARK    2  A    between atoms: C_17  and  C_18 
REMARK    3  A    between atoms: C_18  and  C_19 
REMARK    4  A    between atoms: C_19  and  C_20 
REMARK    5  A    between atoms: C_20  and  O_22 
ROOT
HETATM    1  C   UNK N   1      30.130  12.107   2.315  0.00  0.00     0.070 C 
HETATM    2  C   UNK N   1      30.924  13.331   2.632  0.00  0.00     0.030 A 
HETATM    3  C   UNK N   1      32.289  13.327   2.709  0.00  0.00     0.114 A 
HETATM    4  N   UNK N   1      32.686  14.572   3.000  0.00  0.00    -0.352 N 
ATOM      5  HN  UNK N   1      33.646  14.895   3.113  1.00  0.00     0.166 HD
HETATM    6  C   UNK N   1      31.565  15.318   3.115  0.00  0.00     0.111 A 
HETATM    7  N   UNK N   1      30.455  14.584   2.891  0.00  0.00    -0.301 N 
HETATM    8  C   UNK N   1      29.055  14.983   2.907  0.00  0.00     0.053 A 
HETATM    9  C   UNK N   1      28.121  14.063   2.382  0.00  0.00     0.032 A 
HETATM   10  C   UNK N   1      26.752  14.273   2.430  0.00  0.00     0.021 A 
HETATM   11  C   UNK N   1      26.265  15.423   3.014  0.00  0.00     0.011 A 
HETATM   12  C   UNK N   1      27.150  16.357   3.532  0.00  0.00     0.035 A 
HETATM   13  C   UNK N   1      28.551  16.196   3.503  0.00  0.00     0.021 A 
HETATM   14  C   UNK N   1      29.366  17.279   4.199  0.00  0.00     0.068 C 
HETATM   15  N   UNK N   1      30.641  17.408   4.087  0.00  0.00    -0.376 N 
ATOM     16  HN  UNK N   1      31.034  18.089   4.738  1.00  0.00     0.160 HD
HETATM   17  C   UNK N   1      31.625  16.804   3.245  0.00  0.00     0.150 C 
HETATM   18 Br   UNK N   1      24.386  15.703   3.153  0.00  0.00    -0.051 Br
ENDROOT
BRANCH  14  19
HETATM   19  C   UNK N   1      28.733  18.359   5.047  0.00  0.00     0.059 A 
HETATM   20  C   UNK N   1      28.546  18.250   6.435  0.00  0.00     0.032 A 
HETATM   21  C   UNK N   1      27.894  19.266   7.136  0.00  0.00     0.004 A 
HETATM   22  C   UNK N   1      27.433  20.391   6.457  0.00  0.00     0.017 A 
HETATM   23  C   UNK N   1      27.634  20.483   5.082  0.00  0.00     0.088 A 
HETATM   24  N   UNK N   1      28.266  19.480   4.418  0.00  0.00    -0.364 N 
ATOM     25  HN  UNK N   1      28.398  19.565   3.410  1.00  0.00     0.165 HD
ENDBRANCH  14  19
BRANCH  17  26
HETATM   26  C   UNK N   1      32.954  17.350   3.798  0.00  0.00     0.043 C 
BRANCH  26  27
HETATM   27  C   UNK N   1      33.100  17.584   5.294  0.00  0.00     0.113 C 
BRANCH  27  28
HETATM   28  C   UNK N   1      34.139  16.649   5.843  0.00  0.00     0.258 C 
HETATM   29  O   UNK N   1      34.482  15.666   5.197  0.00  0.00    -0.265 OA
BRANCH  28  30
HETATM   30  O   UNK N   1      34.703  16.919   7.044  0.00  0.00    -0.326 OA
HETATM   31  C   UNK N   1      34.343  18.008   7.803  0.00  0.00     0.213 C 
ENDBRANCH  28  30
ENDBRANCH  27  28
ENDBRANCH  26  27
ENDBRANCH  17  26
TORSDOF 5
ENDMDL
MODEL 2
REMARK VINA RESULT:      -6.8      5.701      8.276
REMARK  5 active torsions:
REMARK  status: ('A' for Active; 'I' for Inactive)
REMARK    1  A    between atoms: C_14  and  C_24 
REMARK    2  A    between atoms: C_17  and  C_18 
REMARK    3  A    between atoms: C_18  and  C_19 
REMARK    4  A    between atoms: C_19  and  C_20 
REMARK    5  A    between atoms: C_20  and  O_22 
ROOT
HETATM    1  C   UNK N   1      23.488  13.116   0.219  0.00  0.00     0.070 C 
HETATM    2  C   UNK N   1      22.820  14.110   1.110  0.00  0.00     0.030 A 
HETATM    3  C   UNK N   1      21.475  14.351   1.070  0.00  0.00     0.114 A 
HETATM    4  N   UNK N   1      21.199  15.281   1.992  0.00  0.00    -0.352 N 
ATOM      5  HN  UNK N   1      20.281  15.666   2.213  1.00  0.00     0.166 HD
HETATM    6  C   UNK N   1      22.373  15.611   2.572  0.00  0.00     0.111 A 
HETATM    7  N   UNK N   1      23.399  14.905   2.053  0.00  0.00    -0.301 N 
HETATM    8  C   UNK N   1      24.817  14.939   2.385  0.00  0.00     0.053 A 
HETATM    9  C   UNK N   1      25.622  13.904   1.861  0.00  0.00     0.032 A 
HETATM   10  C   UNK N   1      26.998  13.872   2.013  0.00  0.00     0.021 A 
HETATM   11  C   UNK N   1      27.625  14.889   2.702  0.00  0.00     0.011 A 
HETATM   12  C   UNK N   1      26.868  15.920   3.242  0.00  0.00     0.035 A 
HETATM   13  C   UNK N   1      25.465  15.995   3.122  0.00  0.00     0.021 A 
HETATM   14  C   UNK N   1      24.808  17.244   3.698  0.00  0.00     0.068 C 
HETATM   15  N   UNK N   1      23.540  17.379   3.869  0.00  0.00    -0.376 N 
ATOM     16  HN  UNK N   1      23.269  18.330   4.122  1.00  0.00     0.160 HD
HETATM   17  C   UNK N   1      22.430  16.483   3.782  0.00  0.00     0.150 C 
HETATM   18 Br   UNK N   1      29.522  14.905   2.868  0.00  0.00    -0.051 Br
ENDROOT
BRANCH  14  19
HETATM   19  C   UNK N   1      25.603  18.431   4.190  0.00  0.00     0.059 A 
HETATM   20  C   UNK N   1      25.887  19.560   3.404  0.00  0.00     0.032 A 
HETATM   21  C   UNK N   1      26.682  20.587   3.913  0.00  0.00     0.004 A 
HETATM   22  C   UNK N   1      27.193  20.492   5.205  0.00  0.00     0.017 A 
HETATM   23  C   UNK N   1      26.895  19.369   5.972  0.00  0.00     0.088 A 
HETATM   24  N   UNK N   1      26.122  18.378   5.455  0.00  0.00    -0.364 N 
ATOM     25  HN  UNK N   1      25.921  17.560   6.031  1.00  0.00     0.165 HD
ENDBRANCH  14  19
BRANCH  17  26
HETATM   26  C   UNK N   1      21.210  17.404   3.972  0.00  0.00     0.043 C 
BRANCH  26  27
HETATM   27  C   UNK N   1      21.411  18.801   4.541  0.00  0.00     0.113 C 
BRANCH  27  28
HETATM   28  C   UNK N   1      20.956  19.816   3.533  0.00  0.00     0.258 C 
HETATM   29  O   UNK N   1      20.232  20.741   3.880  0.00  0.00    -0.265 OA
BRANCH  28  30
HETATM   30  O   UNK N   1      21.372  19.707   2.249  0.00  0.00    -0.326 OA
HETATM   31  C   UNK N   1      20.868  20.493   1.239  0.00  0.00     0.213 C 
ENDBRANCH  28  30
ENDBRANCH  27  28
ENDBRANCH  26  27
ENDBRANCH  17  26
TORSDOF 5
ENDMDL
MODEL 3
REMARK VINA RESULT:      -6.6      7.706     10.286
REMARK  5 active torsions:
REMARK  status: ('A' for Active; 'I' for Inactive)
REMARK    1  A    between atoms: C_14  and  C_24 
REMARK    2  A    between atoms: C_17  and  C_18 
REMARK    3  A    between atoms: C_18  and  C_19 
REMARK    4  A    between atoms: C_19  and  C_20 
REMARK    5  A    between atoms: C_20  and  O_22 
ROOT
HETATM    1  C   UNK N   1      20.400  14.514   9.477  0.00  0.00     0.070 C 
HETATM    2  C   UNK N   1      20.652  15.585   8.468  0.00  0.00     0.030 A 
HETATM    3  C   UNK N   1      20.086  16.827   8.552  0.00  0.00     0.114 A 
HETATM    4  N   UNK N   1      20.518  17.544   7.508  0.00  0.00    -0.352 N 
ATOM      5  HN  UNK N   1      20.284  18.513   7.295  1.00  0.00     0.166 HD
HETATM    6  C   UNK N   1      21.326  16.733   6.790  0.00  0.00     0.111 A 
HETATM    7  N   UNK N   1      21.435  15.513   7.356  0.00  0.00    -0.301 N 
HETATM    8  C   UNK N   1      22.198  14.351   6.924  0.00  0.00     0.053 A 
HETATM    9  C   UNK N   1      22.331  13.293   7.850  0.00  0.00     0.032 A 
HETATM   10  C   UNK N   1      22.941  12.090   7.534  0.00  0.00     0.021 A 
HETATM   11  C   UNK N   1      23.445  11.901   6.264  0.00  0.00     0.011 A 
HETATM   12  C   UNK N   1      23.344  12.920   5.328  0.00  0.00     0.035 A 
HETATM   13  C   UNK N   1      22.739  14.165   5.600  0.00  0.00     0.021 A 
HETATM   14  C   UNK N   1      22.636  15.132   4.427  0.00  0.00     0.068 C 
HETATM   15  N   UNK N   1      22.317  16.374   4.541  0.00  0.00    -0.376 N 
ATOM     16  HN  UNK N   1      22.151  16.828   3.642  1.00  0.00     0.160 HD
HETATM   17  C   UNK N   1      22.146  17.253   5.655  0.00  0.00     0.150 C 
HETATM   18 Br   UNK N   1      24.228  10.233   5.784  0.00  0.00    -0.051 Br
ENDROOT
BRANCH  14  19
HETATM   19  C   UNK N   1      22.969  14.733   3.008  0.00  0.00     0.059 A 
HETATM   20  C   UNK N   1      22.034  14.189   2.112  0.00  0.00     0.032 A 
HETATM   21  C   UNK N   1      22.437  13.787   0.838  0.00  0.00     0.004 A 
HETATM   22  C   UNK N   1      23.769  13.928   0.455  0.00  0.00     0.017 A 
HETATM   23  C   UNK N   1      24.679  14.475   1.355  0.00  0.00     0.088 A 
HETATM   24  N   UNK N   1      24.266  14.856   2.593  0.00  0.00    -0.364 N 
ATOM     25  HN  UNK N   1      24.951  15.250   3.239  1.00  0.00     0.165 HD
ENDBRANCH  14  19
BRANCH  17  26
HETATM   26  C   UNK N   1      21.612  18.546   5.013  0.00  0.00     0.043 C 
BRANCH  26  27
HETATM   27  C   UNK N   1      21.946  18.850   3.560  0.00  0.00     0.113 C 
BRANCH  27  28
HETATM   28  C   UNK N   1      21.246  20.112   3.145  0.00  0.00     0.258 C 
HETATM   29  O   UNK N   1      20.385  20.601   3.866  0.00  0.00    -0.265 OA
BRANCH  28  30
HETATM   30  O   UNK N   1      21.593  20.709   1.980  0.00  0.00    -0.326 OA
HETATM   31  C   UNK N   1      20.706  20.878   0.942  0.00  0.00     0.213 C 
ENDBRANCH  28  30
ENDBRANCH  27  28
ENDBRANCH  26  27
ENDBRANCH  17  26
TORSDOF 5
ENDMDL
MODEL 4
REMARK VINA RESULT:      -6.5     12.326     13.971
REMARK  5 active torsions:
REMARK  status: ('A' for Active; 'I' for Inactive)
REMARK    1  A    between atoms: C_14  and  C_24 
REMARK    2  A    between atoms: C_17  and  C_18 
REMARK    3  A    between atoms: C_18  and  C_19 
REMARK    4  A    between atoms: C_19  and  C_20 
REMARK    5  A    between atoms: C_20  and  O_22 
ROOT
HETATM    1  C   UNK N   1      25.942  24.213  -9.767  0.00  0.00     0.070 C 
HETATM    2  C   UNK N   1      26.246  24.752  -8.409  0.00  0.00     0.030 A 
HETATM    3  C   UNK N   1      25.830  25.986  -7.994  0.00  0.00     0.114 A 
HETATM    4  N   UNK N   1      26.255  26.160  -6.737  0.00  0.00    -0.352 N 
ATOM      5  HN  UNK N   1      26.095  26.975  -6.146  1.00  0.00     0.166 HD
HETATM    6  C   UNK N   1      26.939  25.044  -6.403  0.00  0.00     0.111 A 
HETATM    7  N   UNK N   1      26.953  24.149  -7.412  0.00  0.00    -0.301 N 
HETATM    8  C   UNK N   1      27.563  22.828  -7.479  0.00  0.00     0.053 A 
HETATM    9  C   UNK N   1      27.196  22.008  -8.568  0.00  0.00     0.032 A 
HETATM   10  C   UNK N   1      27.776  20.773  -8.808  0.00  0.00     0.021 A 
HETATM   11  C   UNK N   1      28.757  20.311  -7.957  0.00  0.00     0.011 A 
HETATM   12  C   UNK N   1      29.139  21.082  -6.868  0.00  0.00     0.035 A 
HETATM   13  C   UNK N   1      28.575  22.342  -6.575  0.00  0.00     0.021 A 
HETATM   14  C   UNK N   1      29.179  23.089  -5.392  0.00  0.00     0.068 C 
HETATM   15  N   UNK N   1      28.656  24.134  -4.855  0.00  0.00    -0.376 N 
ATOM     16  HN  UNK N   1      29.270  24.586  -4.177  1.00  0.00     0.160 HD
HETATM   17  C   UNK N   1      27.399  24.798  -5.003  0.00  0.00     0.150 C 
HETATM   18 Br   UNK N   1      29.619  18.648  -8.302  0.00  0.00    -0.051 Br
ENDROOT
BRANCH  14  19
HETATM   19  C   UNK N   1      30.433  22.625  -4.687  0.00  0.00     0.059 A 
HETATM   20  C   UNK N   1      30.428  21.901  -3.483  0.00  0.00     0.032 A 
HETATM   21  C   UNK N   1      31.631  21.565  -2.862  0.00  0.00     0.004 A 
HETATM   22  C   UNK N   1      32.840  21.947  -3.439  0.00  0.00     0.017 A 
HETATM   23  C   UNK N   1      32.825  22.659  -4.636  0.00  0.00     0.088 A 
HETATM   24  N   UNK N   1      31.641  22.980  -5.222  0.00  0.00    -0.364 N 
ATOM     25  HN  UNK N   1      31.652  23.507  -6.095  1.00  0.00     0.165 HD
ENDBRANCH  14  19
BRANCH  17  26
HETATM   26  C   UNK N   1      27.559  26.066  -4.145  0.00  0.00     0.043 C 
BRANCH  26  27
HETATM   27  C   UNK N   1      26.420  26.498  -3.232  0.00  0.00     0.113 C 
BRANCH  27  28
HETATM   28  C   UNK N   1      25.957  27.869  -3.633  0.00  0.00     0.258 C 
HETATM   29  O   UNK N   1      25.159  28.002  -4.552  0.00  0.00    -0.265 OA
BRANCH  28  30
HETATM   30  O   UNK N   1      26.416  28.947  -2.953  0.00  0.00    -0.326 OA
HETATM   31  C   UNK N   1      26.451  30.207  -3.502  0.00  0.00     0.213 C 
ENDBRANCH  28  30
ENDBRANCH  27  28
ENDBRANCH  26  27
ENDBRANCH  17  26
TORSDOF 5
ENDMDL
MODEL 5
REMARK VINA RESULT:      -6.4      8.883     12.057
REMARK  5 active torsions:
REMARK  status: ('A' for Active; 'I' for Inactive)
REMARK    1  A    between atoms: C_14  and  C_24 
REMARK    2  A    between atoms: C_17  and  C_18 
REMARK    3  A    between atoms: C_18  and  C_19 
REMARK    4  A    between atoms: C_19  and  C_20 
REMARK    5  A    between atoms: C_20  and  O_22 
ROOT
HETATM    1  C   UNK N   1      39.207  10.847   9.428  0.00  0.00     0.070 C 
HETATM    2  C   UNK N   1      38.463  12.112   9.699  0.00  0.00     0.030 A 
HETATM    3  C   UNK N   1      38.416  13.147   8.806  0.00  0.00     0.114 A 
HETATM    4  N   UNK N   1      37.668  14.118   9.344  0.00  0.00    -0.352 N 
ATOM      5  HN  UNK N   1      37.436  15.015   8.919  1.00  0.00     0.166 HD
HETATM    6  C   UNK N   1      37.281  13.677  10.561  0.00  0.00     0.111 A 
HETATM    7  N   UNK N   1      37.753  12.438  10.814  0.00  0.00    -0.301 N 
HETATM    8  C   UNK N   1      37.574  11.595  11.988  0.00  0.00     0.053 A 
HETATM    9  C   UNK N   1      37.965  10.243  11.870  0.00  0.00     0.032 A 
HETATM   10  C   UNK N   1      37.945   9.360  12.936  0.00  0.00     0.021 A 
HETATM   11  C   UNK N   1      37.530   9.804  14.174  0.00  0.00     0.011 A 
HETATM   12  C   UNK N   1      37.128  11.123  14.330  0.00  0.00     0.035 A 
HETATM   13  C   UNK N   1      37.122  12.060  13.276  0.00  0.00     0.021 A 
HETATM   14  C   UNK N   1      36.736  13.486  13.648  0.00  0.00     0.068 C 
HETATM   15  N   UNK N   1      36.470  14.410  12.792  0.00  0.00    -0.376 N 
ATOM     16  HN  UNK N   1      36.380  15.334  13.215  1.00  0.00     0.160 HD
HETATM   17  C   UNK N   1      36.273  14.418  11.376  0.00  0.00     0.150 C 
HETATM   18 Br   UNK N   1      37.558   8.628  15.671  0.00  0.00    -0.051 Br
ENDROOT
BRANCH  14  19
HETATM   19  C   UNK N   1      36.561  13.938  15.080  0.00  0.00     0.059 A 
HETATM   20  C   UNK N   1      35.622  13.382  15.964  0.00  0.00     0.032 A 
HETATM   21  C   UNK N   1      35.480  13.900  17.252  0.00  0.00     0.004 A 
HETATM   22  C   UNK N   1      36.273  14.968  17.661  0.00  0.00     0.017 A 
HETATM   23  C   UNK N   1      37.204  15.502  16.772  0.00  0.00     0.088 A 
HETATM   24  N   UNK N   1      37.322  14.986  15.521  0.00  0.00    -0.364 N 
ATOM     25  HN  UNK N   1      38.006  15.395  14.884  1.00  0.00     0.165 HD
ENDBRANCH  14  19
BRANCH  17  26
HETATM   26  C   UNK N   1      36.146  15.915  11.041  0.00  0.00     0.043 C 
BRANCH  26  27
HETATM   27  C   UNK N   1      34.835  16.445  10.478  0.00  0.00     0.113 C 
BRANCH  27  28
HETATM   28  C   UNK N   1      34.364  15.537   9.379  0.00  0.00     0.258 C 
HETATM   29  O   UNK N   1      33.312  14.922   9.501  0.00  0.00    -0.265 OA
BRANCH  28  30
HETATM   30  O   UNK N   1      35.104  15.425   8.251  0.00  0.00    -0.326 OA
HETATM   31  C   UNK N   1      34.687  15.926   7.040  0.00  0.00     0.213 C 
ENDBRANCH  28  30
ENDBRANCH  27  28
ENDBRANCH  26  27
ENDBRANCH  17  26
TORSDOF 5
ENDMDL
MODEL 6
REMARK VINA RESULT:      -6.4     12.918     14.421
REMARK  5 active torsions:
REMARK  status: ('A' for Active; 'I' for Inactive)
REMARK    1  A    between atoms: C_14  and  C_24 
REMARK    2  A    between atoms: C_17  and  C_18 
REMARK    3  A    between atoms: C_18  and  C_19 
REMARK    4  A    between atoms: C_19  and  C_20 
REMARK    5  A    between atoms: C_20  and  O_22 
ROOT
HETATM    1  C   UNK N   1      26.341  23.796 -11.325  0.00  0.00     0.070 C 
HETATM    2  C   UNK N   1      26.091  24.563 -10.069  0.00  0.00     0.030 A 
HETATM    3  C   UNK N   1      25.453  25.773 -10.056  0.00  0.00     0.114 A 
HETATM    4  N   UNK N   1      25.383  26.184  -8.785  0.00  0.00    -0.352 N 
ATOM      5  HN  UNK N   1      24.955  27.046  -8.446  1.00  0.00     0.166 HD
HETATM    6  C   UNK N   1      25.990  25.237  -8.037  0.00  0.00     0.111 A 
HETATM    7  N   UNK N   1      26.439  24.216  -8.798  0.00  0.00    -0.301 N 
HETATM    8  C   UNK N   1      27.137  23.000  -8.407  0.00  0.00     0.053 A 
HETATM    9  C   UNK N   1      27.255  21.988  -9.385  0.00  0.00     0.032 A 
HETATM   10  C   UNK N   1      27.981  20.826  -9.180  0.00  0.00     0.021 A 
HETATM   11  C   UNK N   1      28.625  20.636  -7.975  0.00  0.00     0.011 A 
HETATM   12  C   UNK N   1      28.525  21.602  -6.984  0.00  0.00     0.035 A 
HETATM   13  C   UNK N   1      27.793  22.798  -7.139  0.00  0.00     0.021 A 
HETATM   14  C   UNK N   1      27.868  23.785  -5.981  0.00  0.00     0.068 C 
HETATM   15  N   UNK N   1      27.103  24.813  -5.858  0.00  0.00    -0.376 N 
ATOM     16  HN  UNK N   1      27.393  25.440  -5.107  1.00  0.00     0.160 HD
HETATM   17  C   UNK N   1      25.934  25.263  -6.546  0.00  0.00     0.150 C 
HETATM   18 Br   UNK N   1      29.686  19.080  -7.693  0.00  0.00    -0.051 Br
ENDROOT
BRANCH  14  19
HETATM   19  C   UNK N   1      28.818  23.610  -4.819  0.00  0.00     0.059 A 
HETATM   20  C   UNK N   1      30.212  23.517  -4.958  0.00  0.00     0.032 A 
HETATM   21  C   UNK N   1      31.015  23.291  -3.840  0.00  0.00     0.004 A 
HETATM   22  C   UNK N   1      30.431  23.161  -2.582  0.00  0.00     0.017 A 
HETATM   23  C   UNK N   1      29.047  23.263  -2.463  0.00  0.00     0.088 A 
HETATM   24  N   UNK N   1      28.284  23.478  -3.566  0.00  0.00    -0.364 N 
ATOM     25  HN  UNK N   1      27.271  23.544  -3.458  1.00  0.00     0.165 HD
ENDBRANCH  14  19
BRANCH  17  26
HETATM   26  C   UNK N   1      25.670  26.651  -5.934  0.00  0.00     0.043 C 
BRANCH  26  27
HETATM   27  C   UNK N   1      26.731  27.291  -5.051  0.00  0.00     0.113 C 
BRANCH  27  28
HETATM   28  C   UNK N   1      26.308  27.188  -3.614  0.00  0.00     0.258 C 
HETATM   29  O   UNK N   1      26.313  26.101  -3.050  0.00  0.00    -0.265 OA
BRANCH  28  30
HETATM   30  O   UNK N   1      25.943  28.311  -2.950  0.00  0.00    -0.326 OA
HETATM   31  C   UNK N   1      26.385  29.561  -3.313  0.00  0.00     0.213 C 
ENDBRANCH  28  30
ENDBRANCH  27  28
ENDBRANCH  26  27
ENDBRANCH  17  26
TORSDOF 5
ENDMDL
MODEL 7
REMARK VINA RESULT:      -6.2      2.246      4.499
REMARK  5 active torsions:
REMARK  status: ('A' for Active; 'I' for Inactive)
REMARK    1  A    between atoms: C_14  and  C_24 
REMARK    2  A    between atoms: C_17  and  C_18 
REMARK    3  A    between atoms: C_18  and  C_19 
REMARK    4  A    between atoms: C_19  and  C_20 
REMARK    5  A    between atoms: C_20  and  O_22 
ROOT
HETATM    1  C   UNK N   1      25.158  15.645   2.663  0.00  0.00     0.070 C 
HETATM    2  C   UNK N   1      26.540  15.080   2.640  0.00  0.00     0.030 A 
HETATM    3  C   UNK N   1      26.829  13.857   2.102  0.00  0.00     0.114 A 
HETATM    4  N   UNK N   1      28.146  13.655   2.231  0.00  0.00    -0.352 N 
ATOM      5  HN  UNK N   1      28.671  12.839   1.918  1.00  0.00     0.166 HD
HETATM    6  C   UNK N   1      28.644  14.741   2.861  0.00  0.00     0.111 A 
HETATM    7  N   UNK N   1      27.679  15.646   3.127  0.00  0.00    -0.301 N 
HETATM    8  C   UNK N   1      27.775  16.945   3.780  0.00  0.00     0.053 A 
HETATM    9  C   UNK N   1      26.646  17.790   3.691  0.00  0.00     0.032 A 
HETATM   10  C   UNK N   1      26.565  19.005   4.350  0.00  0.00     0.021 A 
HETATM   11  C   UNK N   1      27.621  19.422   5.133  0.00  0.00     0.011 A 
HETATM   12  C   UNK N   1      28.752  18.625   5.238  0.00  0.00     0.035 A 
HETATM   13  C   UNK N   1      28.889  17.384   4.582  0.00  0.00     0.021 A 
HETATM   14  C   UNK N   1      30.162  16.603   4.884  0.00  0.00     0.068 C 
HETATM   15  N   UNK N   1      30.550  15.571   4.220  0.00  0.00    -0.376 N 
ATOM     16  HN  UNK N   1      31.339  15.089   4.654  1.00  0.00     0.160 HD
HETATM   17  C   UNK N   1      30.114  14.955   3.006  0.00  0.00     0.150 C 
HETATM   18 Br   UNK N   1      27.506  21.056   6.103  0.00  0.00    -0.051 Br
ENDROOT
BRANCH  14  19
HETATM   19  C   UNK N   1      31.136  17.013   5.964  0.00  0.00     0.059 A 
HETATM   20  C   UNK N   1      30.773  17.211   7.306  0.00  0.00     0.032 A 
HETATM   21  C   UNK N   1      31.720  17.653   8.231  0.00  0.00     0.004 A 
HETATM   22  C   UNK N   1      33.029  17.895   7.820  0.00  0.00     0.017 A 
HETATM   23  C   UNK N   1      33.371  17.687   6.486  0.00  0.00     0.088 A 
HETATM   24  N   UNK N   1      32.431  17.261   5.602  0.00  0.00    -0.364 N 
ATOM     25  HN  UNK N   1      32.702  17.121   4.628  1.00  0.00     0.165 HD
ENDBRANCH  14  19
BRANCH  17  26
HETATM   26  C   UNK N   1      30.963  13.672   2.930  0.00  0.00     0.043 C 
BRANCH  26  27
HETATM   27  C   UNK N   1      32.340  13.649   3.578  0.00  0.00     0.113 C 
BRANCH  27  28
HETATM   28  C   UNK N   1      33.284  14.488   2.767  0.00  0.00     0.258 C 
HETATM   29  O   UNK N   1      33.562  15.624   3.131  0.00  0.00    -0.265 OA
BRANCH  28  30
HETATM   30  O   UNK N   1      33.836  13.967   1.646  0.00  0.00    -0.326 OA
HETATM   31  C   UNK N   1      35.194  13.951   1.429  0.00  0.00     0.213 C 
ENDBRANCH  28  30
ENDBRANCH  27  28
ENDBRANCH  26  27
ENDBRANCH  17  26
TORSDOF 5
ENDMDL
MODEL 8
REMARK VINA RESULT:      -6.2      4.506      7.704
REMARK  5 active torsions:
REMARK  status: ('A' for Active; 'I' for Inactive)
REMARK    1  A    between atoms: C_14  and  C_24 
REMARK    2  A    between atoms: C_17  and  C_18 
REMARK    3  A    between atoms: C_18  and  C_19 
REMARK    4  A    between atoms: C_19  and  C_20 
REMARK    5  A    between atoms: C_20  and  O_22 
ROOT
HETATM    1  C   UNK N   1      19.561  18.018   3.020  0.00  0.00     0.070 C 
HETATM    2  C   UNK N   1      20.860  18.748   3.111  0.00  0.00     0.030 A 
HETATM    3  C   UNK N   1      20.982  20.078   2.820  0.00  0.00     0.114 A 
HETATM    4  N   UNK N   1      22.261  20.422   3.008  0.00  0.00    -0.352 N 
ATOM      5  HN  UNK N   1      22.668  21.349   2.884  1.00  0.00     0.166 HD
HETATM    6  C   UNK N   1      22.911  19.301   3.391  0.00  0.00     0.111 A 
HETATM    7  N   UNK N   1      22.074  18.245   3.468  0.00  0.00    -0.301 N 
HETATM    8  C   UNK N   1      22.349  16.865   3.843  0.00  0.00     0.053 A 
HETATM    9  C   UNK N   1      21.233  16.034   4.086  0.00  0.00     0.032 A 
HETATM   10  C   UNK N   1      21.348  14.679   4.349  0.00  0.00     0.021 A 
HETATM   11  C   UNK N   1      22.600  14.100   4.376  0.00  0.00     0.011 A 
HETATM   12  C   UNK N   1      23.723  14.884   4.153  0.00  0.00     0.035 A 
HETATM   13  C   UNK N   1      23.661  16.268   3.888  0.00  0.00     0.021 A 
HETATM   14  C   UNK N   1      24.986  16.952   3.577  0.00  0.00     0.068 C 
HETATM   15  N   UNK N   1      25.147  18.228   3.526  0.00  0.00    -0.376 N 
ATOM     16  HN  UNK N   1      26.058  18.503   3.159  1.00  0.00     0.160 HD
HETATM   17  C   UNK N   1      24.322  19.342   3.875  0.00  0.00     0.150 C 
HETATM   18 Br   UNK N   1      22.782  12.227   4.669  0.00  0.00    -0.051 Br
ENDROOT
BRANCH  14  19
HETATM   19  C   UNK N   1      26.270  16.185   3.361  0.00  0.00     0.059 A 
HETATM   20  C   UNK N   1      26.555  15.454   2.196  0.00  0.00     0.032 A 
HETATM   21  C   UNK N   1      27.738  14.719   2.102  0.00  0.00     0.004 A 
HETATM   22  C   UNK N   1      28.638  14.713   3.165  0.00  0.00     0.017 A 
HETATM   23  C   UNK N   1      28.341  15.449   4.309  0.00  0.00     0.088 A 
HETATM   24  N   UNK N   1      27.181  16.154   4.382  0.00  0.00    -0.364 N 
ATOM     25  HN  UNK N   1      26.980  16.682   5.232  1.00  0.00     0.165 HD
ENDBRANCH  14  19
BRANCH  17  26
HETATM   26  C   UNK N   1      25.136  20.556   3.390  0.00  0.00     0.043 C 
BRANCH  26  27
HETATM   27  C   UNK N   1      26.654  20.468   3.347  0.00  0.00     0.113 C 
BRANCH  27  28
HETATM   28  C   UNK N   1      27.181  20.303   4.743  0.00  0.00     0.258 C 
HETATM   29  O   UNK N   1      27.634  19.224   5.105  0.00  0.00    -0.265 OA
BRANCH  28  30
HETATM   30  O   UNK N   1      27.168  21.364   5.584  0.00  0.00    -0.326 OA
HETATM   31  C   UNK N   1      26.515  21.341   6.795  0.00  0.00     0.213 C 
ENDBRANCH  28  30
ENDBRANCH  27  28
ENDBRANCH  26  27
ENDBRANCH  17  26
TORSDOF 5
ENDMDL
MODEL 9
REMARK VINA RESULT:      -6.2      4.246      7.538
REMARK  5 active torsions:
REMARK  status: ('A' for Active; 'I' for Inactive)
REMARK    1  A    between atoms: C_14  and  C_24 
REMARK    2  A    between atoms: C_17  and  C_18 
REMARK    3  A    between atoms: C_18  and  C_19 
REMARK    4  A    between atoms: C_19  and  C_20 
REMARK    5  A    between atoms: C_20  and  O_22 
ROOT
HETATM    1  C   UNK N   1      29.750  18.448   9.312  0.00  0.00     0.070 C 
HETATM    2  C   UNK N   1      28.878  18.596   8.109  0.00  0.00     0.030 A 
HETATM    3  C   UNK N   1      27.856  19.501   8.044  0.00  0.00     0.114 A 
HETATM    4  N   UNK N   1      27.284  19.385   6.840  0.00  0.00    -0.352 N 
ATOM      5  HN  UNK N   1      26.500  19.931   6.483  1.00  0.00     0.166 HD
HETATM    6  C   UNK N   1      27.945  18.403   6.190  0.00  0.00     0.111 A 
HETATM    7  N   UNK N   1      28.941  17.892   6.944  0.00  0.00    -0.301 N 
HETATM    8  C   UNK N   1      29.895  16.836   6.636  0.00  0.00     0.053 A 
HETATM    9  C   UNK N   1      30.991  16.688   7.514  0.00  0.00     0.032 A 
HETATM   10  C   UNK N   1      31.914  15.661   7.397  0.00  0.00     0.021 A 
HETATM   11  C   UNK N   1      31.769  14.735   6.386  0.00  0.00     0.011 A 
HETATM   12  C   UNK N   1      30.711  14.852   5.495  0.00  0.00     0.035 A 
HETATM   13  C   UNK N   1      29.750  15.881   5.565  0.00  0.00     0.021 A 
HETATM   14  C   UNK N   1      28.607  15.802   4.561  0.00  0.00     0.068 C 
HETATM   15  N   UNK N   1      27.772  16.756   4.339  0.00  0.00    -0.376 N 
ATOM     16  HN  UNK N   1      26.989  16.474   3.749  1.00  0.00     0.160 HD
HETATM   17  C   UNK N   1      27.707  18.125   4.743  0.00  0.00     0.150 C 
HETATM   18 Br   UNK N   1      32.985  13.276   6.243  0.00  0.00    -0.051 Br
ENDROOT
BRANCH  14  19
HETATM   19  C   UNK N   1      28.385  14.601   3.669  0.00  0.00     0.059 A 
HETATM   20  C   UNK N   1      27.638  13.475   4.051  0.00  0.00     0.032 A 
HETATM   21  C   UNK N   1      27.534  12.379   3.192  0.00  0.00     0.004 A 
HETATM   22  C   UNK N   1      28.171  12.406   1.954  0.00  0.00     0.017 A 
HETATM   23  C   UNK N   1      28.901  13.535   1.591  0.00  0.00     0.088 A 
HETATM   24  N   UNK N   1      28.993  14.589   2.444  0.00  0.00    -0.364 N 
ATOM     25  HN  UNK N   1      29.539  15.403   2.161  1.00  0.00     0.165 HD
ENDBRANCH  14  19
BRANCH  17  26
HETATM   26  C   UNK N   1      26.338  18.590   4.214  0.00  0.00     0.043 C 
BRANCH  26  27
HETATM   27  C   UNK N   1      26.254  19.851   3.366  0.00  0.00     0.113 C 
BRANCH  27  28
HETATM   28  C   UNK N   1      24.814  20.155   3.071  0.00  0.00     0.258 C 
HETATM   29  O   UNK N   1      24.524  20.970   2.204  0.00  0.00    -0.265 OA
BRANCH  28  30
HETATM   30  O   UNK N   1      23.846  19.502   3.757  0.00  0.00    -0.326 OA
HETATM   31  C   UNK N   1      22.524  19.530   3.378  0.00  0.00     0.213 C 
ENDBRANCH  28  30
ENDBRANCH  27  28
ENDBRANCH  26  27
ENDBRANCH  17  26
TORSDOF 5
ENDMDL
