MODEL 1
REMARK VINA RESULT:      -7.7      0.000      0.000
REMARK  5 active torsions:
REMARK  status: ('A' for Active; 'I' for Inactive)
REMARK    1  A    between atoms: C_2  and  C_1 
REMARK    2  A    between atoms: C_8  and  C_1 
REMARK    3  A    between atoms: C_9  and  C_2 
REMARK    4  A    between atoms: N_26  and  C_8 
REMARK    5  A    between atoms: N_28  and  C_9 
REMARK       I    between atoms: N_27  and  C_21 
ROOT
HETATM    1  C   UNK N   1      37.482  14.195  10.037  0.00  0.00     0.032 C 
ENDROOT
BRANCH   1   2
HETATM    2  C   UNK N   1      37.836  13.018  10.935  0.00  0.00     0.022 C 
BRANCH   2   3
HETATM    3  C   UNK N   1      36.595  12.320  11.464  0.00  0.00     0.135 C 
BRANCH   3   4
HETATM    4  N   UNK N   1      36.491  12.498  12.897  0.00  0.00    -0.288 N 
HETATM    5  C   UNK N   1      35.680  13.384  13.494  0.00  0.00     0.231 A 
HETATM    6  C   UNK N   1      35.786  13.334  14.994  0.00  0.00     0.096 A 
HETATM    7  O   UNK N   1      34.942  14.139  12.880  0.00  0.00    -0.272 OA
HETATM    8  C   UNK N   1      34.563  12.809  15.767  0.00  0.00    -0.000 C 
HETATM    9  C   UNK N   1      36.833  12.219  15.219  0.00  0.00     0.096 A 
HETATM   10  C   UNK N   1      33.947  11.602  15.058  0.00  0.00     0.006 C 
HETATM   11  C   UNK N   1      35.236  12.139  16.949  0.00  0.00     0.011 C 
HETATM   12  C   UNK N   1      34.978  10.504  15.280  0.00  0.00     0.006 C 
HETATM   13  C   UNK N   1      36.069  11.206  16.089  0.00  0.00    -0.000 C 
HETATM   14  C   UNK N   1      37.167  11.794  13.818  0.00  0.00     0.231 A 
HETATM   15  O   UNK N   1      37.951  10.900  13.540  0.00  0.00    -0.272 OA
ENDBRANCH   3   4
ENDBRANCH   2   3
ENDBRANCH   1   2
BRANCH   1  16
HETATM   16  C   UNK N   1      36.573  13.722   8.898  0.00  0.00     0.272 C 
BRANCH  16  17
HETATM   17  N   UNK N   1      35.511  14.663   8.522  0.00  0.00     0.091 N 
HETATM   18  C   UNK N   1      35.004  15.423   9.663  0.00  0.00     0.292 C 
HETATM   19  C   UNK N   1      34.079  16.525   9.172  0.00  0.00     0.171 C 
HETATM   20  N   UNK N   1      33.071  15.992   8.276  0.00  0.00    -0.214 N 
HETATM   21  C   UNK N   1      33.451  15.008   7.275  0.00  0.00     0.171 C 
HETATM   22  C   UNK N   1      31.818  16.658   8.176  0.00  0.00     0.679 A 
HETATM   23  C   UNK N   1      34.399  13.970   7.879  0.00  0.00     0.292 C 
HETATM   24  N   UNK N   1      30.951  16.349   7.171  0.00  0.00    -0.202 N 
HETATM   25  N   UNK N   1      31.493  17.639   9.066  0.00  0.00    -0.202 N 
HETATM   26  C   UNK N   1      29.769  17.007   7.040  0.00  0.00     0.107 A 
ATOM     27  HN  UNK N   1      31.192  15.611   6.509  1.00  0.00     0.183 HD
HETATM   28  C   UNK N   1      29.428  18.012   7.943  0.00  0.00     0.035 A 
HETATM   29  C   UNK N   1      30.319  18.313   8.970  0.00  0.00     0.107 A 
ATOM     30  HN  UNK N   1      32.144  17.871   9.817  1.00  0.00     0.183 HD
ENDBRANCH  16  17
ENDBRANCH   1  16
TORSDOF 5
ENDMDL
MODEL 2
REMARK VINA RESULT:      -7.1      2.353      8.901
REMARK  5 active torsions:
REMARK  status: ('A' for Active; 'I' for Inactive)
REMARK    1  A    between atoms: C_2  and  C_1 
REMARK    2  A    between atoms: C_8  and  C_1 
REMARK    3  A    between atoms: C_9  and  C_2 
REMARK    4  A    between atoms: N_26  and  C_8 
REMARK    5  A    between atoms: N_28  and  C_9 
REMARK       I    between atoms: N_27  and  C_21 
ROOT
HETATM    1  C   UNK N   1      35.887  13.533   9.120  0.00  0.00     0.032 C 
ENDROOT
BRANCH   1   2
HETATM    2  C   UNK N   1      35.084  14.399   8.160  0.00  0.00     0.022 C 
BRANCH   2   3
HETATM    3  C   UNK N   1      34.780  15.764   8.754  0.00  0.00     0.135 C 
BRANCH   3   4
HETATM    4  N   UNK N   1      33.593  16.325   8.144  0.00  0.00    -0.288 N 
HETATM    5  C   UNK N   1      33.606  17.245   7.168  0.00  0.00     0.231 A 
HETATM    6  C   UNK N   1      32.219  17.632   6.731  0.00  0.00     0.096 A 
HETATM    7  O   UNK N   1      34.632  17.710   6.696  0.00  0.00    -0.272 OA
HETATM    8  C   UNK N   1      31.788  17.211   5.315  0.00  0.00    -0.000 C 
HETATM    9  C   UNK N   1      31.325  16.750   7.633  0.00  0.00     0.096 A 
HETATM   10  C   UNK N   1      32.262  15.792   4.999  0.00  0.00     0.006 C 
HETATM   11  C   UNK N   1      30.303  16.981   5.523  0.00  0.00     0.011 C 
HETATM   12  C   UNK N   1      31.382  14.925   5.887  0.00  0.00     0.006 C 
HETATM   13  C   UNK N   1      30.503  15.944   6.613  0.00  0.00    -0.000 C 
HETATM   14  C   UNK N   1      32.330  15.988   8.449  0.00  0.00     0.231 A 
HETATM   15  O   UNK N   1      32.040  15.147   9.284  0.00  0.00    -0.272 OA
ENDBRANCH   3   4
ENDBRANCH   2   3
ENDBRANCH   1   2
BRANCH   1  16
HETATM   16  C   UNK N   1      36.777  14.420   9.997  0.00  0.00     0.272 C 
BRANCH  16  17
HETATM   17  N   UNK N   1      36.862  14.012  11.404  0.00  0.00     0.091 N 
HETATM   18  C   UNK N   1      36.678  12.573  11.584  0.00  0.00     0.292 C 
HETATM   19  C   UNK N   1      37.001  12.194  13.021  0.00  0.00     0.171 C 
HETATM   20  N   UNK N   1      36.278  13.038  13.952  0.00  0.00    -0.214 N 
HETATM   21  C   UNK N   1      36.177  14.465  13.694  0.00  0.00     0.171 C 
HETATM   22  C   UNK N   1      35.957  12.526  15.240  0.00  0.00     0.679 A 
HETATM   23  C   UNK N   1      35.877  14.722  12.216  0.00  0.00     0.292 C 
HETATM   24  N   UNK N   1      35.516  13.359  16.224  0.00  0.00    -0.202 N 
HETATM   25  N   UNK N   1      36.128  11.200  15.509  0.00  0.00    -0.202 N 
HETATM   26  C   UNK N   1      35.247  12.889  17.470  0.00  0.00     0.107 A 
ATOM     27  HN  UNK N   1      35.383  14.350  16.021  1.00  0.00     0.183 HD
HETATM   28  C   UNK N   1      35.420  11.536  17.757  0.00  0.00     0.035 A 
HETATM   29  C   UNK N   1      35.864  10.694  16.741  0.00  0.00     0.107 A 
ATOM     30  HN  UNK N   1      36.461  10.577  14.772  1.00  0.00     0.183 HD
ENDBRANCH  16  17
ENDBRANCH   1  16
TORSDOF 5
ENDMDL
MODEL 3
REMARK VINA RESULT:      -7.1      2.252      8.627
REMARK  5 active torsions:
REMARK  status: ('A' for Active; 'I' for Inactive)
REMARK    1  A    between atoms: C_2  and  C_1 
REMARK    2  A    between atoms: C_8  and  C_1 
REMARK    3  A    between atoms: C_9  and  C_2 
REMARK    4  A    between atoms: N_26  and  C_8 
REMARK    5  A    between atoms: N_28  and  C_9 
REMARK       I    between atoms: N_27  and  C_21 
ROOT
HETATM    1  C   UNK N   1      36.035  12.420   9.958  0.00  0.00     0.032 C 
ENDROOT
BRANCH   1   2
HETATM    2  C   UNK N   1      35.891  12.833   8.500  0.00  0.00     0.022 C 
BRANCH   2   3
HETATM    3  C   UNK N   1      35.880  14.344   8.342  0.00  0.00     0.135 C 
BRANCH   3   4
HETATM    4  N   UNK N   1      34.530  14.815   8.116  0.00  0.00    -0.288 N 
HETATM    5  C   UNK N   1      33.754  15.371   9.058  0.00  0.00     0.231 A 
HETATM    6  C   UNK N   1      32.404  15.768   8.524  0.00  0.00     0.096 A 
HETATM    7  O   UNK N   1      34.112  15.533  10.214  0.00  0.00    -0.272 OA
HETATM    8  C   UNK N   1      32.100  17.273   8.436  0.00  0.00    -0.000 C 
HETATM    9  C   UNK N   1      32.496  15.352   7.038  0.00  0.00     0.096 A 
HETATM   10  C   UNK N   1      33.319  18.047   7.930  0.00  0.00     0.006 C 
HETATM   11  C   UNK N   1      31.204  17.314   7.213  0.00  0.00     0.011 C 
HETATM   12  C   UNK N   1      33.409  17.638   6.467  0.00  0.00     0.006 C 
HETATM   13  C   UNK N   1      32.233  16.675   6.298  0.00  0.00    -0.000 C 
HETATM   14  C   UNK N   1      33.883  14.784   6.940  0.00  0.00     0.231 A 
HETATM   15  O   UNK N   1      34.379  14.356   5.910  0.00  0.00    -0.272 OA
ENDBRANCH   3   4
ENDBRANCH   2   3
ENDBRANCH   1   2
BRANCH   1  16
HETATM   16  C   UNK N   1      36.933  13.420  10.693  0.00  0.00     0.272 C 
BRANCH  16  17
HETATM   17  N   UNK N   1      36.966  13.267  12.153  0.00  0.00     0.091 N 
HETATM   18  C   UNK N   1      36.590  11.921  12.584  0.00  0.00     0.292 C 
HETATM   19  C   UNK N   1      36.862  11.768  14.072  0.00  0.00     0.171 C 
HETATM   20  N   UNK N   1      36.263  12.855  14.821  0.00  0.00    -0.214 N 
HETATM   21  C   UNK N   1      36.356  14.213  14.309  0.00  0.00     0.171 C 
HETATM   22  C   UNK N   1      35.880  12.632  16.172  0.00  0.00     0.679 A 
HETATM   23  C   UNK N   1      36.089  14.237  12.802  0.00  0.00     0.292 C 
HETATM   24  N   UNK N   1      35.558  13.681  16.981  0.00  0.00    -0.202 N 
HETATM   25  N   UNK N   1      35.870  11.366  16.679  0.00  0.00    -0.202 N 
HETATM   26  C   UNK N   1      35.232  13.484  18.285  0.00  0.00     0.107 A 
ATOM     27  HN  UNK N   1      35.560  14.628  16.601  1.00  0.00     0.183 HD
HETATM   28  C   UNK N   1      35.220  12.194  18.813  0.00  0.00     0.035 A 
HETATM   29  C   UNK N   1      35.543  11.131  17.975  0.00  0.00     0.107 A 
ATOM     30  HN  UNK N   1      36.113  10.582  16.073  1.00  0.00     0.183 HD
ENDBRANCH  16  17
ENDBRANCH   1  16
TORSDOF 5
ENDMDL
MODEL 4
REMARK VINA RESULT:      -7.0      2.828      7.877
REMARK  5 active torsions:
REMARK  status: ('A' for Active; 'I' for Inactive)
REMARK    1  A    between atoms: C_2  and  C_1 
REMARK    2  A    between atoms: C_8  and  C_1 
REMARK    3  A    between atoms: C_9  and  C_2 
REMARK    4  A    between atoms: N_26  and  C_8 
REMARK    5  A    between atoms: N_28  and  C_9 
REMARK       I    between atoms: N_27  and  C_21 
ROOT
HETATM    1  C   UNK N   1      35.868  13.580   6.559  0.00  0.00     0.032 C 
ENDROOT
BRANCH   1   2
HETATM    2  C   UNK N   1      35.662  14.850   5.746  0.00  0.00     0.022 C 
BRANCH   2   3
HETATM    3  C   UNK N   1      34.335  14.836   5.007  0.00  0.00     0.135 C 
BRANCH   3   4
HETATM    4  N   UNK N   1      33.329  15.546   5.767  0.00  0.00    -0.288 N 
HETATM    5  C   UNK N   1      32.357  14.955   6.477  0.00  0.00     0.231 A 
HETATM    6  C   UNK N   1      31.465  15.952   7.166  0.00  0.00     0.096 A 
HETATM    7  O   UNK N   1      32.221  13.743   6.551  0.00  0.00    -0.272 OA
HETATM    8  C   UNK N   1      31.534  16.011   8.702  0.00  0.00    -0.000 C 
HETATM    9  C   UNK N   1      32.087  17.304   6.747  0.00  0.00     0.096 A 
HETATM   10  C   UNK N   1      32.980  15.897   9.187  0.00  0.00     0.006 C 
HETATM   11  C   UNK N   1      31.263  17.483   8.945  0.00  0.00     0.011 C 
HETATM   12  C   UNK N   1      33.592  17.228   8.775  0.00  0.00     0.006 C 
HETATM   13  C   UNK N   1      32.430  17.954   8.098  0.00  0.00    -0.000 C 
HETATM   14  C   UNK N   1      33.244  16.881   5.885  0.00  0.00     0.231 A 
HETATM   15  O   UNK N   1      34.029  17.655   5.362  0.00  0.00    -0.272 OA
ENDBRANCH   3   4
ENDBRANCH   2   3
ENDBRANCH   1   2
BRANCH   1  16
HETATM   16  C   UNK N   1      36.790  13.871   7.748  0.00  0.00     0.272 C 
BRANCH  16  17
HETATM   17  N   UNK N   1      36.144  13.802   9.064  0.00  0.00     0.091 N 
HETATM   18  C   UNK N   1      36.994  14.321  10.135  0.00  0.00     0.292 C 
HETATM   19  C   UNK N   1      36.188  14.429  11.419  0.00  0.00     0.171 C 
HETATM   20  N   UNK N   1      35.509  13.181  11.708  0.00  0.00    -0.214 N 
HETATM   21  C   UNK N   1      34.863  12.451  10.629  0.00  0.00     0.171 C 
HETATM   22  C   UNK N   1      35.213  12.856  13.061  0.00  0.00     0.679 A 
HETATM   23  C   UNK N   1      35.756  12.432   9.386  0.00  0.00     0.292 C 
HETATM   24  N   UNK N   1      34.359  11.835  13.354  0.00  0.00    -0.202 N 
HETATM   25  N   UNK N   1      35.753  13.592  14.074  0.00  0.00    -0.202 N 
HETATM   26  C   UNK N   1      34.035  11.542  14.641  0.00  0.00     0.107 A 
ATOM     27  HN  UNK N   1      33.958  11.281  12.596  1.00  0.00     0.183 HD
HETATM   28  C   UNK N   1      34.580  12.288  15.684  0.00  0.00     0.035 A 
HETATM   29  C   UNK N   1      35.457  13.323  15.371  0.00  0.00     0.107 A 
ATOM     30  HN  UNK N   1      36.390  14.357  13.853  1.00  0.00     0.183 HD
ENDBRANCH  16  17
ENDBRANCH   1  16
TORSDOF 5
ENDMDL
MODEL 5
REMARK VINA RESULT:      -6.9      2.920      9.274
REMARK  5 active torsions:
REMARK  status: ('A' for Active; 'I' for Inactive)
REMARK    1  A    between atoms: C_2  and  C_1 
REMARK    2  A    between atoms: C_8  and  C_1 
REMARK    3  A    between atoms: C_9  and  C_2 
REMARK    4  A    between atoms: N_26  and  C_8 
REMARK    5  A    between atoms: N_28  and  C_9 
REMARK       I    between atoms: N_27  and  C_21 
ROOT
HETATM    1  C   UNK N   1      35.980  13.664   7.693  0.00  0.00     0.032 C 
ENDROOT
BRANCH   1   2
HETATM    2  C   UNK N   1      35.464  14.872   6.924  0.00  0.00     0.022 C 
BRANCH   2   3
HETATM    3  C   UNK N   1      34.364  15.595   7.683  0.00  0.00     0.135 C 
BRANCH   3   4
HETATM    4  N   UNK N   1      33.312  16.002   6.777  0.00  0.00    -0.288 N 
HETATM    5  C   UNK N   1      33.316  17.145   6.075  0.00  0.00     0.231 A 
HETATM    6  C   UNK N   1      32.091  17.291   5.214  0.00  0.00     0.096 A 
HETATM    7  O   UNK N   1      34.218  17.967   6.135  0.00  0.00    -0.272 OA
HETATM    8  C   UNK N   1      32.292  17.219   3.690  0.00  0.00    -0.000 C 
HETATM    9  C   UNK N   1      31.313  15.989   5.514  0.00  0.00     0.096 A 
HETATM   10  C   UNK N   1      33.292  16.122   3.323  0.00  0.00     0.006 C 
HETATM   11  C   UNK N   1      30.987  16.579   3.258  0.00  0.00     0.011 C 
HETATM   12  C   UNK N   1      32.526  14.840   3.619  0.00  0.00     0.006 C 
HETATM   13  C   UNK N   1      31.175  15.347   4.123  0.00  0.00    -0.000 C 
HETATM   14  C   UNK N   1      32.209  15.290   6.498  0.00  0.00     0.231 A 
HETATM   15  O   UNK N   1      31.975  14.193   6.980  0.00  0.00    -0.272 OA
ENDBRANCH   3   4
ENDBRANCH   2   3
ENDBRANCH   1   2
BRANCH   1  16
HETATM   16  C   UNK N   1      36.746  14.130   8.936  0.00  0.00     0.272 C 
BRANCH  16  17
HETATM   17  N   UNK N   1      36.320  13.507  10.195  0.00  0.00     0.091 N 
HETATM   18  C   UNK N   1      35.674  14.456  11.101  0.00  0.00     0.292 C 
HETATM   19  C   UNK N   1      35.063  13.706  12.273  0.00  0.00     0.171 C 
HETATM   20  N   UNK N   1      36.036  12.822  12.884  0.00  0.00    -0.214 N 
HETATM   21  C   UNK N   1      36.920  12.036  12.037  0.00  0.00     0.171 C 
HETATM   22  C   UNK N   1      35.903  12.498  14.263  0.00  0.00     0.679 A 
HETATM   23  C   UNK N   1      37.450  12.888  10.881  0.00  0.00     0.292 C 
HETATM   24  N   UNK N   1      36.631  11.482  14.807  0.00  0.00    -0.202 N 
HETATM   25  N   UNK N   1      35.015  13.180  15.041  0.00  0.00    -0.202 N 
HETATM   26  C   UNK N   1      36.481  11.136  16.112  0.00  0.00     0.107 A 
ATOM     27  HN  UNK N   1      37.299  10.975  14.225  1.00  0.00     0.183 HD
HETATM   28  C   UNK N   1      35.576  11.825  16.916  0.00  0.00     0.035 A 
HETATM   29  C   UNK N   1      34.845  12.865  16.351  0.00  0.00     0.107 A 
ATOM     30  HN  UNK N   1      34.469  13.939  14.632  1.00  0.00     0.183 HD
ENDBRANCH  16  17
ENDBRANCH   1  16
TORSDOF 5
ENDMDL
MODEL 6
REMARK VINA RESULT:      -6.9      3.031      9.141
REMARK  5 active torsions:
REMARK  status: ('A' for Active; 'I' for Inactive)
REMARK    1  A    between atoms: C_2  and  C_1 
REMARK    2  A    between atoms: C_8  and  C_1 
REMARK    3  A    between atoms: C_9  and  C_2 
REMARK    4  A    between atoms: N_26  and  C_8 
REMARK    5  A    between atoms: N_28  and  C_9 
REMARK       I    between atoms: N_27  and  C_21 
ROOT
HETATM    1  C   UNK N   1      33.269  17.544   7.489  0.00  0.00     0.032 C 
ENDROOT
BRANCH   1   2
HETATM    2  C   UNK N   1      32.087  17.859   8.394  0.00  0.00     0.022 C 
BRANCH   2   3
HETATM    3  C   UNK N   1      31.149  16.671   8.528  0.00  0.00     0.135 C 
BRANCH   3   4
HETATM    4  N   UNK N   1      30.680  16.252   7.225  0.00  0.00    -0.288 N 
HETATM    5  C   UNK N   1      29.823  16.951   6.466  0.00  0.00     0.231 A 
HETATM    6  C   UNK N   1      29.525  16.265   5.160  0.00  0.00     0.096 A 
HETATM    7  O   UNK N   1      29.346  18.023   6.806  0.00  0.00    -0.272 OA
HETATM    8  C   UNK N   1      30.053  16.936   3.880  0.00  0.00    -0.000 C 
HETATM    9  C   UNK N   1      30.386  14.984   5.251  0.00  0.00     0.096 A 
HETATM   10  C   UNK N   1      31.467  17.477   4.091  0.00  0.00     0.006 C 
HETATM   11  C   UNK N   1      30.334  15.722   3.016  0.00  0.00     0.011 C 
HETATM   12  C   UNK N   1      32.314  16.216   4.180  0.00  0.00     0.006 C 
HETATM   13  C   UNK N   1      31.290  15.093   4.012  0.00  0.00    -0.000 C 
HETATM   14  C   UNK N   1      31.051  15.128   6.591  0.00  0.00     0.231 A 
HETATM   15  O   UNK N   1      31.849  14.327   7.051  0.00  0.00    -0.272 OA
ENDBRANCH   3   4
ENDBRANCH   2   3
ENDBRANCH   1   2
BRANCH   1  16
HETATM   16  C   UNK N   1      34.551  17.453   8.324  0.00  0.00     0.272 C 
BRANCH  16  17
HETATM   17  N   UNK N   1      34.458  16.592   9.509  0.00  0.00     0.091 N 
HETATM   18  C   UNK N   1      35.557  16.808  10.449  0.00  0.00     0.292 C 
HETATM   19  C   UNK N   1      35.278  16.057  11.741  0.00  0.00     0.171 C 
HETATM   20  N   UNK N   1      34.949  14.671  11.472  0.00  0.00    -0.214 N 
HETATM   21  C   UNK N   1      34.066  14.348  10.363  0.00  0.00     0.171 C 
HETATM   22  C   UNK N   1      35.228  13.691  12.464  0.00  0.00     0.679 A 
HETATM   23  C   UNK N   1      34.425  15.182   9.131  0.00  0.00     0.292 C 
HETATM   24  N   UNK N   1      34.707  12.436  12.362  0.00  0.00    -0.202 N 
HETATM   25  N   UNK N   1      35.990  14.016  13.548  0.00  0.00    -0.202 N 
HETATM   26  C   UNK N   1      34.931  11.505  13.326  0.00  0.00     0.107 A 
ATOM     27  HN  UNK N   1      34.141  12.192  11.548  1.00  0.00     0.183 HD
HETATM   28  C   UNK N   1      35.706  11.826  14.437  0.00  0.00     0.035 A 
HETATM   29  C   UNK N   1      36.240  13.108  14.527  0.00  0.00     0.107 A 
ATOM     30  HN  UNK N   1      36.378  14.956  13.625  1.00  0.00     0.183 HD
ENDBRANCH  16  17
ENDBRANCH   1  16
TORSDOF 5
ENDMDL
MODEL 7
REMARK VINA RESULT:      -6.8      4.945      7.652
REMARK  5 active torsions:
REMARK  status: ('A' for Active; 'I' for Inactive)
REMARK    1  A    between atoms: C_2  and  C_1 
REMARK    2  A    between atoms: C_8  and  C_1 
REMARK    3  A    between atoms: C_9  and  C_2 
REMARK    4  A    between atoms: N_26  and  C_8 
REMARK    5  A    between atoms: N_28  and  C_9 
REMARK       I    between atoms: N_27  and  C_21 
ROOT
HETATM    1  C   UNK N   1      35.934  10.133  17.392  0.00  0.00     0.032 C 
ENDROOT
BRANCH   1   2
HETATM    2  C   UNK N   1      34.686   9.321  17.706  0.00  0.00     0.022 C 
BRANCH   2   3
HETATM    3  C   UNK N   1      34.851   8.502  18.975  0.00  0.00     0.135 C 
BRANCH   3   4
HETATM    4  N   UNK N   1      34.018   9.038  20.030  0.00  0.00    -0.288 N 
HETATM    5  C   UNK N   1      32.781   8.605  20.314  0.00  0.00     0.231 A 
HETATM    6  C   UNK N   1      32.166   9.350  21.468  0.00  0.00     0.096 A 
HETATM    7  O   UNK N   1      32.227   7.705  19.700  0.00  0.00    -0.272 OA
HETATM    8  C   UNK N   1      31.942   8.563  22.771  0.00  0.00    -0.000 C 
HETATM    9  C   UNK N   1      33.284  10.343  21.860  0.00  0.00     0.096 A 
HETATM   10  C   UNK N   1      33.133   7.651  23.069  0.00  0.00     0.006 C 
HETATM   11  C   UNK N   1      32.147   9.654  23.804  0.00  0.00     0.011 C 
HETATM   12  C   UNK N   1      34.233   8.629  23.455  0.00  0.00     0.006 C 
HETATM   13  C   UNK N   1      33.550   9.991  23.333  0.00  0.00    -0.000 C 
HETATM   14  C   UNK N   1      34.373  10.017  20.877  0.00  0.00     0.231 A 
HETATM   15  O   UNK N   1      35.464  10.565  20.855  0.00  0.00    -0.272 OA
ENDBRANCH   3   4
ENDBRANCH   2   3
ENDBRANCH   1   2
BRANCH   1  16
HETATM   16  C   UNK N   1      35.558  11.605  17.193  0.00  0.00     0.272 C 
BRANCH  16  17
HETATM   17  N   UNK N   1      35.711  12.103  15.821  0.00  0.00     0.091 N 
HETATM   18  C   UNK N   1      36.194  13.482  15.775  0.00  0.00     0.292 C 
HETATM   19  C   UNK N   1      36.543  13.853  14.342  0.00  0.00     0.171 C 
HETATM   20  N   UNK N   1      35.444  13.544  13.447  0.00  0.00    -0.214 N 
HETATM   21  C   UNK N   1      34.722  12.292  13.607  0.00  0.00     0.171 C 
HETATM   22  C   UNK N   1      35.296  14.301  12.252  0.00  0.00     0.679 A 
HETATM   23  C   UNK N   1      34.452  12.015  15.087  0.00  0.00     0.292 C 
HETATM   24  N   UNK N   1      34.448  13.882  11.271  0.00  0.00    -0.202 N 
HETATM   25  N   UNK N   1      36.034  15.432  12.065  0.00  0.00    -0.202 N 
HETATM   26  C   UNK N   1      34.330  14.574  10.107  0.00  0.00     0.107 A 
ATOM     27  HN  UNK N   1      33.892  13.038  11.413  1.00  0.00     0.183 HD
HETATM   28  C   UNK N   1      35.080  15.730   9.904  0.00  0.00     0.035 A 
HETATM   29  C   UNK N   1      35.937  16.151  10.917  0.00  0.00     0.107 A 
ATOM     30  HN  UNK N   1      36.671  15.743  12.799  1.00  0.00     0.183 HD
ENDBRANCH  16  17
ENDBRANCH   1  16
TORSDOF 5
ENDMDL
MODEL 8
REMARK VINA RESULT:      -6.8      3.461     10.160
REMARK  5 active torsions:
REMARK  status: ('A' for Active; 'I' for Inactive)
REMARK    1  A    between atoms: C_2  and  C_1 
REMARK    2  A    between atoms: C_8  and  C_1 
REMARK    3  A    between atoms: C_9  and  C_2 
REMARK    4  A    between atoms: N_26  and  C_8 
REMARK    5  A    between atoms: N_28  and  C_9 
REMARK       I    between atoms: N_27  and  C_21 
ROOT
HETATM    1  C   UNK N   1      33.273  16.922   7.512  0.00  0.00     0.032 C 
ENDROOT
BRANCH   1   2
HETATM    2  C   UNK N   1      31.959  17.616   7.835  0.00  0.00     0.022 C 
BRANCH   2   3
HETATM    3  C   UNK N   1      30.764  16.726   7.539  0.00  0.00     0.135 C 
BRANCH   3   4
HETATM    4  N   UNK N   1      29.873  17.376   6.601  0.00  0.00    -0.288 N 
HETATM    5  C   UNK N   1      30.005  17.320   5.268  0.00  0.00     0.231 A 
HETATM    6  C   UNK N   1      28.925  18.089   4.554  0.00  0.00     0.096 A 
HETATM    7  O   UNK N   1      30.902  16.710   4.706  0.00  0.00    -0.272 OA
HETATM    8  C   UNK N   1      27.901  17.273   3.746  0.00  0.00    -0.000 C 
HETATM    9  C   UNK N   1      28.076  18.636   5.724  0.00  0.00     0.096 A 
HETATM   10  C   UNK N   1      27.491  16.009   4.504  0.00  0.00     0.006 C 
HETATM   11  C   UNK N   1      26.659  18.127   3.914  0.00  0.00     0.011 C 
HETATM   12  C   UNK N   1      26.654  16.549   5.655  0.00  0.00     0.006 C 
HETATM   13  C   UNK N   1      26.680  18.061   5.429  0.00  0.00    -0.000 C 
HETATM   14  C   UNK N   1      28.791  18.098   6.931  0.00  0.00     0.231 A 
HETATM   15  O   UNK N   1      28.426  18.278   8.082  0.00  0.00    -0.272 OA
ENDBRANCH   3   4
ENDBRANCH   2   3
ENDBRANCH   1   2
BRANCH   1  16
HETATM   16  C   UNK N   1      34.345  17.347   8.521  0.00  0.00     0.272 C 
BRANCH  16  17
HETATM   17  N   UNK N   1      34.823  16.277   9.405  0.00  0.00     0.091 N 
HETATM   18  C   UNK N   1      33.789  15.284   9.694  0.00  0.00     0.292 C 
HETATM   19  C   UNK N   1      34.407  14.100  10.420  0.00  0.00     0.171 C 
HETATM   20  N   UNK N   1      35.186  14.543  11.560  0.00  0.00    -0.214 N 
HETATM   21  C   UNK N   1      36.044  15.710  11.431  0.00  0.00     0.171 C 
HETATM   22  C   UNK N   1      35.344  13.666  12.669  0.00  0.00     0.679 A 
HETATM   23  C   UNK N   1      35.325  16.822  10.663  0.00  0.00     0.292 C 
HETATM   24  N   UNK N   1      36.268  13.934  13.634  0.00  0.00    -0.202 N 
HETATM   25  N   UNK N   1      34.597  12.528  12.750  0.00  0.00    -0.202 N 
HETATM   26  C   UNK N   1      36.458  13.082  14.675  0.00  0.00     0.107 A 
ATOM     27  HN  UNK N   1      36.823  14.788  13.575  1.00  0.00     0.183 HD
HETATM   28  C   UNK N   1      35.701  11.916  14.769  0.00  0.00     0.035 A 
HETATM   29  C   UNK N   1      34.756  11.658  13.780  0.00  0.00     0.107 A 
ATOM     30  HN  UNK N   1      33.908  12.328  12.026  1.00  0.00     0.183 HD
ENDBRANCH  16  17
ENDBRANCH   1  16
TORSDOF 5
ENDMDL
MODEL 9
REMARK VINA RESULT:      -6.8      3.280      9.583
REMARK  5 active torsions:
REMARK  status: ('A' for Active; 'I' for Inactive)
REMARK    1  A    between atoms: C_2  and  C_1 
REMARK    2  A    between atoms: C_8  and  C_1 
REMARK    3  A    between atoms: C_9  and  C_2 
REMARK    4  A    between atoms: N_26  and  C_8 
REMARK    5  A    between atoms: N_28  and  C_9 
REMARK       I    between atoms: N_27  and  C_21 
ROOT
HETATM    1  C   UNK N   1      33.569  17.278   7.587  0.00  0.00     0.032 C 
ENDROOT
BRANCH   1   2
HETATM    2  C   UNK N   1      33.424  17.478   6.086  0.00  0.00     0.022 C 
BRANCH   2   3
HETATM    3  C   UNK N   1      33.384  16.155   5.342  0.00  0.00     0.135 C 
BRANCH   3   4
HETATM    4  N   UNK N   1      32.032  15.855   4.920  0.00  0.00    -0.288 N 
HETATM    5  C   UNK N   1      31.170  15.101   5.618  0.00  0.00     0.231 A 
HETATM    6  C   UNK N   1      29.838  14.972   4.931  0.00  0.00     0.096 A 
HETATM    7  O   UNK N   1      31.446  14.583   6.690  0.00  0.00    -0.272 OA
HETATM    8  C   UNK N   1      28.634  15.657   5.601  0.00  0.00    -0.000 C 
HETATM    9  C   UNK N   1      30.038  15.816   3.651  0.00  0.00     0.096 A 
HETATM   10  C   UNK N   1      29.022  17.032   6.145  0.00  0.00     0.006 C 
HETATM   11  C   UNK N   1      27.813  16.047   4.387  0.00  0.00     0.011 C 
HETATM   12  C   UNK N   1      29.219  17.863   4.885  0.00  0.00     0.006 C 
HETATM   13  C   UNK N   1      28.923  16.870   3.761  0.00  0.00    -0.000 C 
HETATM   14  C   UNK N   1      31.451  16.305   3.797  0.00  0.00     0.231 A 
HETATM   15  O   UNK N   1      32.009  17.040   2.998  0.00  0.00    -0.272 OA
ENDBRANCH   3   4
ENDBRANCH   2   3
ENDBRANCH   1   2
BRANCH   1  16
HETATM   16  C   UNK N   1      34.546  16.130   7.864  0.00  0.00     0.272 C 
BRANCH  16  17
HETATM   17  N   UNK N   1      34.597  15.684   9.261  0.00  0.00     0.091 N 
HETATM   18  C   UNK N   1      35.646  16.355  10.028  0.00  0.00     0.292 C 
HETATM   19  C   UNK N   1      35.495  16.017  11.502  0.00  0.00     0.171 C 
HETATM   20  N   UNK N   1      35.399  14.584  11.696  0.00  0.00    -0.214 N 
HETATM   21  C   UNK N   1      34.580  13.793  10.791  0.00  0.00     0.171 C 
HETATM   22  C   UNK N   1      35.836  14.024  12.929  0.00  0.00     0.679 A 
HETATM   23  C   UNK N   1      34.797  14.240   9.344  0.00  0.00     0.292 C 
HETATM   24  N   UNK N   1      35.528  12.736  13.250  0.00  0.00    -0.202 N 
HETATM   25  N   UNK N   1      36.534  14.789  13.816  0.00  0.00    -0.202 N 
HETATM   26  C   UNK N   1      35.903  12.204  14.442  0.00  0.00     0.107 A 
ATOM     27  HN  UNK N   1      35.010  12.162  12.584  1.00  0.00     0.183 HD
HETATM   28  C   UNK N   1      36.616  12.977  15.357  0.00  0.00     0.035 A 
HETATM   29  C   UNK N   1      36.931  14.288  15.013  0.00  0.00     0.107 A 
ATOM     30  HN  UNK N   1      36.762  15.754  13.575  1.00  0.00     0.183 HD
ENDBRANCH  16  17
ENDBRANCH   1  16
TORSDOF 5
ENDMDL
