MODEL 1
REMARK VINA RESULT:      -8.3      0.000      0.000
REMARK  6 active torsions:
REMARK  status: ('A' for Active; 'I' for Inactive)
REMARK    1  A    between atoms: C_2  and  C_4 
REMARK    2  A    between atoms: C_7  and  C_10 
REMARK    3  A    between atoms: C_13  and  O_36 
REMARK    4  A    between atoms: N_17  and  C_22 
REMARK    5  A    between atoms: C_22  and  C_23 
REMARK    6  A    between atoms: O_36  and  C_37 
ROOT
HETATM    1  C   UNK N   1      26.577  22.076  -8.569  0.00  0.00     0.268 C 
HETATM    2  C   UNK N   1      25.450  21.612  -7.748  0.00  0.00    -0.091 C 
HETATM    3  C   UNK N   1      24.530  21.280  -7.045  0.00  0.00     0.014 C 
ENDROOT
BRANCH   1   4
HETATM    4  O   UNK N   1      27.664  21.215  -8.547  0.00  0.00    -0.340 OA
BRANCH   4   5
HETATM    5  C   UNK N   1      28.611  21.175  -7.572  0.00  0.00     0.070 A 
HETATM    6  C   UNK N   1      28.631  22.179  -6.599  0.00  0.00     0.053 A 
HETATM    7  C   UNK N   1      29.548  22.144  -5.532  0.00  0.00     0.021 A 
HETATM    8  C   UNK N   1      29.542  23.112  -4.493  0.00  0.00     0.059 A 
HETATM    9  C   UNK N   1      30.500  21.090  -5.478  0.00  0.00     0.051 A 
HETATM   10  N   UNK N   1      30.423  22.962  -3.471  0.00  0.00    -0.307 N 
HETATM   11  C   UNK N   1      31.319  21.935  -3.412  0.00  0.00     0.327 A 
ATOM     12  HN  UNK N   1      30.415  23.647  -2.714  1.00  0.00     0.170 HD
HETATM   13  N   UNK N   1      31.390  21.010  -4.439  0.00  0.00    -0.295 N 
HETATM   14  O   UNK N   1      32.052  21.846  -2.442  0.00  0.00    -0.246 OA
HETATM   15  C   UNK N   1      30.493  20.108  -6.480  0.00  0.00     0.033 A 
HETATM   16  C   UNK N   1      29.550  20.139  -7.501  0.00  0.00     0.039 A 
BRANCH   8  17
HETATM   17  C   UNK N   1      28.585  24.262  -4.408  0.00  0.00    -0.008 A 
HETATM   18  C   UNK N   1      28.906  25.549  -4.866  0.00  0.00     0.014 A 
HETATM   19  C   UNK N   1      27.960  26.577  -4.835  0.00  0.00     0.008 A 
HETATM   20  C   UNK N   1      26.670  26.342  -4.336  0.00  0.00    -0.055 A 
HETATM   21  C   UNK N   1      26.349  25.066  -3.856  0.00  0.00     0.008 A 
HETATM   22  C   UNK N   1      27.295  24.038  -3.896  0.00  0.00     0.014 A 
BRANCH  20  23
HETATM   23  C   UNK N   1      25.610  27.416  -4.344  0.00  0.00     0.010 C 
HETATM   24  C   UNK N   1      26.232  28.800  -4.291  0.00  0.00     0.015 C 
HETATM   25  C   UNK N   1      24.661  27.339  -5.532  0.00  0.00     0.015 C 
ENDBRANCH  20  23
ENDBRANCH   8  17
BRANCH  13  26
HETATM   26  C   UNK N   1      32.384  19.913  -4.403  0.00  0.00     0.172 C 
BRANCH  26  27
HETATM   27  C   UNK N   1      33.738  20.322  -4.927  0.00  0.00    -0.037 A 
HETATM   28  C   UNK N   1      33.922  20.649  -6.281  0.00  0.00     0.011 A 
HETATM   29  C   UNK N   1      35.105  21.249  -6.712  0.00  0.00     0.032 A 
HETATM   30  C   UNK N   1      36.115  21.530  -5.792  0.00  0.00     0.060 A 
HETATM   31  C   UNK N   1      35.962  21.159  -4.441  0.00  0.00     0.059 A 
HETATM   32  N   UNK N   1      37.232  22.192  -6.183  0.00  0.00    -0.347 N 
HETATM   33  C   UNK N   1      34.771  20.563  -4.011  0.00  0.00     0.040 A 
HETATM   34  N   UNK N   1      36.955  21.439  -3.557  0.00  0.00    -0.361 N 
HETATM   35  C   UNK N   1      38.075  22.103  -3.954  0.00  0.00     0.126 A 
ATOM     36  HN  UNK N   1      36.859  21.149  -2.583  1.00  0.00     0.165 HD
HETATM   37  C   UNK N   1      38.209  22.499  -5.289  0.00  0.00     0.095 A 
HETATM   38 Br   UNK N   1      39.719  23.522  -5.848  0.00  0.00    -0.030 Br
ATOM     39  HN  UNK N   1      37.341  22.465  -7.160  1.00  0.00     0.166 HD
ENDBRANCH  26  27
ENDBRANCH  13  26
ENDBRANCH   4   5
ENDBRANCH   1   4
TORSDOF 6
ENDMDL
MODEL 2
REMARK VINA RESULT:      -8.2     13.121     15.438
REMARK  6 active torsions:
REMARK  status: ('A' for Active; 'I' for Inactive)
REMARK    1  A    between atoms: C_2  and  C_4 
REMARK    2  A    between atoms: C_7  and  C_10 
REMARK    3  A    between atoms: C_13  and  O_36 
REMARK    4  A    between atoms: N_17  and  C_22 
REMARK    5  A    between atoms: C_22  and  C_23 
REMARK    6  A    between atoms: O_36  and  C_37 
ROOT
HETATM    1  C   UNK N   1      27.702  19.597   7.743  0.00  0.00     0.268 C 
HETATM    2  C   UNK N   1      27.785  19.691   6.279  0.00  0.00    -0.091 C 
HETATM    3  C   UNK N   1      27.795  19.770   5.077  0.00  0.00     0.014 C 
ENDROOT
BRANCH   1   4
HETATM    4  O   UNK N   1      28.269  18.438   8.252  0.00  0.00    -0.340 OA
BRANCH   4   5
HETATM    5  C   UNK N   1      29.550  18.035   8.040  0.00  0.00     0.070 A 
HETATM    6  C   UNK N   1      29.827  17.178   6.971  0.00  0.00     0.053 A 
HETATM    7  C   UNK N   1      31.146  16.787   6.671  0.00  0.00     0.021 A 
HETATM    8  C   UNK N   1      31.461  15.975   5.549  0.00  0.00     0.059 A 
HETATM    9  C   UNK N   1      32.203  17.239   7.505  0.00  0.00     0.051 A 
HETATM   10  N   UNK N   1      32.767  15.702   5.302  0.00  0.00    -0.307 N 
HETATM   11  C   UNK N   1      33.781  16.158   6.093  0.00  0.00     0.327 A 
ATOM     12  HN  UNK N   1      33.002  15.130   4.489  1.00  0.00     0.170 HD
HETATM   13  N   UNK N   1      33.502  16.901   7.226  0.00  0.00    -0.295 N 
HETATM   14  O   UNK N   1      34.932  15.903   5.783  0.00  0.00    -0.246 OA
HETATM   15  C   UNK N   1      31.908  18.071   8.596  0.00  0.00     0.033 A 
HETATM   16  C   UNK N   1      30.603  18.479   8.848  0.00  0.00     0.039 A 
BRANCH   8  17
HETATM   17  C   UNK N   1      30.454  15.445   4.574  0.00  0.00    -0.008 A 
HETATM   18  C   UNK N   1      29.785  14.227   4.763  0.00  0.00     0.014 A 
HETATM   19  C   UNK N   1      28.801  13.803   3.867  0.00  0.00     0.008 A 
HETATM   20  C   UNK N   1      28.468  14.587   2.752  0.00  0.00    -0.055 A 
HETATM   21  C   UNK N   1      29.147  15.794   2.544  0.00  0.00     0.008 A 
HETATM   22  C   UNK N   1      30.125  16.219   3.447  0.00  0.00     0.014 A 
BRANCH  20  23
HETATM   23  C   UNK N   1      27.369  14.184   1.800  0.00  0.00     0.010 C 
HETATM   24  C   UNK N   1      26.958  12.739   2.019  0.00  0.00     0.015 C 
HETATM   25  C   UNK N   1      26.135  15.072   1.869  0.00  0.00     0.015 C 
ENDBRANCH  20  23
ENDBRANCH   8  17
BRANCH  13  26
HETATM   26  C   UNK N   1      34.592  17.370   8.112  0.00  0.00     0.172 C 
BRANCH  26  27
HETATM   27  C   UNK N   1      34.945  16.380   9.194  0.00  0.00    -0.037 A 
HETATM   28  C   UNK N   1      35.275  16.812  10.490  0.00  0.00     0.011 A 
HETATM   29  C   UNK N   1      35.367  15.899  11.541  0.00  0.00     0.032 A 
HETATM   30  C   UNK N   1      35.128  14.545  11.305  0.00  0.00     0.060 A 
HETATM   31  C   UNK N   1      34.847  14.095  10.000  0.00  0.00     0.059 A 
HETATM   32  N   UNK N   1      35.128  13.660  12.334  0.00  0.00    -0.347 N 
HETATM   33  C   UNK N   1      34.748  15.014   8.949  0.00  0.00     0.040 A 
HETATM   34  N   UNK N   1      34.616  12.772   9.786  0.00  0.00    -0.361 N 
HETATM   35  C   UNK N   1      34.618  11.888  10.822  0.00  0.00     0.126 A 
ATOM     36  HN  UNK N   1      34.438  12.438   8.839  1.00  0.00     0.165 HD
HETATM   37  C   UNK N   1      34.864  12.344  12.121  0.00  0.00     0.095 A 
HETATM   38 Br   UNK N   1      34.770  11.144  13.601  0.00  0.00    -0.030 Br
ATOM     39  HN  UNK N   1      35.326  13.988  13.280  1.00  0.00     0.166 HD
ENDBRANCH  26  27
ENDBRANCH  13  26
ENDBRANCH   4   5
ENDBRANCH   1   4
TORSDOF 6
ENDMDL
MODEL 3
REMARK VINA RESULT:      -8.1     15.430     17.558
REMARK  6 active torsions:
REMARK  status: ('A' for Active; 'I' for Inactive)
REMARK    1  A    between atoms: C_2  and  C_4 
REMARK    2  A    between atoms: C_7  and  C_10 
REMARK    3  A    between atoms: C_13  and  O_36 
REMARK    4  A    between atoms: N_17  and  C_22 
REMARK    5  A    between atoms: C_22  and  C_23 
REMARK    6  A    between atoms: O_36  and  C_37 
ROOT
HETATM    1  C   UNK N   1      32.405  12.106   4.878  0.00  0.00     0.268 C 
HETATM    2  C   UNK N   1      31.222  12.953   4.675  0.00  0.00    -0.091 C 
HETATM    3  C   UNK N   1      30.284  13.685   4.481  0.00  0.00     0.014 C 
ENDROOT
BRANCH   1   4
HETATM    4  O   UNK N   1      32.704  11.891   6.215  0.00  0.00    -0.340 OA
BRANCH   4   5
HETATM    5  C   UNK N   1      33.409  12.744   7.006  0.00  0.00     0.070 A 
HETATM    6  C   UNK N   1      32.885  14.011   7.280  0.00  0.00     0.053 A 
HETATM    7  C   UNK N   1      33.545  14.902   8.146  0.00  0.00     0.021 A 
HETATM    8  C   UNK N   1      32.998  16.165   8.497  0.00  0.00     0.059 A 
HETATM    9  C   UNK N   1      34.791  14.517   8.710  0.00  0.00     0.051 A 
HETATM   10  N   UNK N   1      33.675  16.932   9.390  0.00  0.00    -0.307 N 
HETATM   11  C   UNK N   1      34.860  16.547   9.946  0.00  0.00     0.327 A 
ATOM     12  HN  UNK N   1      33.282  17.835   9.657  1.00  0.00     0.170 HD
HETATM   13  N   UNK N   1      35.447  15.349   9.580  0.00  0.00    -0.295 N 
HETATM   14  O   UNK N   1      35.389  17.273  10.770  0.00  0.00    -0.246 OA
HETATM   15  C   UNK N   1      35.324  13.257   8.399  0.00  0.00     0.033 A 
HETATM   16  C   UNK N   1      34.634  12.376   7.575  0.00  0.00     0.039 A 
BRANCH   8  17
HETATM   17  C   UNK N   1      31.687  16.692   7.998  0.00  0.00    -0.008 A 
HETATM   18  C   UNK N   1      30.664  17.116   8.859  0.00  0.00     0.014 A 
HETATM   19  C   UNK N   1      29.484  17.668   8.354  0.00  0.00     0.008 A 
HETATM   20  C   UNK N   1      29.298  17.801   6.970  0.00  0.00    -0.055 A 
HETATM   21  C   UNK N   1      30.305  17.361   6.103  0.00  0.00     0.008 A 
HETATM   22  C   UNK N   1      31.487  16.816   6.612  0.00  0.00     0.014 A 
BRANCH  20  23
HETATM   23  C   UNK N   1      28.060  18.448   6.397  0.00  0.00     0.010 C 
HETATM   24  C   UNK N   1      27.734  19.743   7.119  0.00  0.00     0.015 C 
HETATM   25  C   UNK N   1      28.139  18.716   4.901  0.00  0.00     0.015 C 
ENDBRANCH  20  23
ENDBRANCH   8  17
BRANCH  13  26
HETATM   26  C   UNK N   1      36.751  14.939  10.149  0.00  0.00     0.172 C 
BRANCH  26  27
HETATM   27  C   UNK N   1      36.630  13.852  11.188  0.00  0.00    -0.037 A 
HETATM   28  C   UNK N   1      37.519  12.764  11.204  0.00  0.00     0.011 A 
HETATM   29  C   UNK N   1      37.557  11.893  12.293  0.00  0.00     0.032 A 
HETATM   30  C   UNK N   1      36.707  12.105  13.379  0.00  0.00     0.060 A 
HETATM   31  C   UNK N   1      35.776  13.163  13.351  0.00  0.00     0.059 A 
HETATM   32  N   UNK N   1      36.796  11.319  14.481  0.00  0.00    -0.347 N 
HETATM   33  C   UNK N   1      35.746  14.038  12.259  0.00  0.00     0.040 A 
HETATM   34  N   UNK N   1      34.955  13.356  14.416  0.00  0.00    -0.361 N 
HETATM   35  C   UNK N   1      35.047  12.564  15.520  0.00  0.00     0.126 A 
ATOM     36  HN  UNK N   1      34.262  14.105  14.390  1.00  0.00     0.165 HD
HETATM   37  C   UNK N   1      35.995  11.536  15.558  0.00  0.00     0.095 A 
HETATM   38 Br   UNK N   1      36.215  10.480  17.131  0.00  0.00    -0.030 Br
ATOM     39  HN  UNK N   1      37.473  10.557  14.503  1.00  0.00     0.166 HD
ENDBRANCH  26  27
ENDBRANCH  13  26
ENDBRANCH   4   5
ENDBRANCH   1   4
TORSDOF 6
ENDMDL
MODEL 4
REMARK VINA RESULT:      -8.1     17.486     20.642
REMARK  6 active torsions:
REMARK  status: ('A' for Active; 'I' for Inactive)
REMARK    1  A    between atoms: C_2  and  C_4 
REMARK    2  A    between atoms: C_7  and  C_10 
REMARK    3  A    between atoms: C_13  and  O_36 
REMARK    4  A    between atoms: N_17  and  C_22 
REMARK    5  A    between atoms: C_22  and  C_23 
REMARK    6  A    between atoms: O_36  and  C_37 
ROOT
HETATM    1  C   UNK N   1      33.535   8.133   9.729  0.00  0.00     0.268 C 
HETATM    2  C   UNK N   1      32.079   7.949   9.807  0.00  0.00    -0.091 C 
HETATM    3  C   UNK N   1      30.881   7.819   9.817  0.00  0.00     0.014 C 
ENDROOT
BRANCH   1   4
HETATM    4  O   UNK N   1      34.033   8.992  10.697  0.00  0.00    -0.340 OA
BRANCH   4   5
HETATM    5  C   UNK N   1      34.425  10.276  10.476  0.00  0.00     0.070 A 
HETATM    6  C   UNK N   1      34.783  11.077  11.565  0.00  0.00     0.053 A 
HETATM    7  C   UNK N   1      35.258  12.389  11.382  0.00  0.00     0.021 A 
HETATM    8  C   UNK N   1      35.695  13.197  12.465  0.00  0.00     0.059 A 
HETATM    9  C   UNK N   1      35.328  12.917  10.065  0.00  0.00     0.051 A 
HETATM   10  N   UNK N   1      36.199  14.426  12.186  0.00  0.00    -0.307 N 
HETATM   11  C   UNK N   1      36.284  14.919  10.917  0.00  0.00     0.327 A 
ATOM     12  HN  UNK N   1      36.527  15.007  12.959  1.00  0.00     0.170 HD
HETATM   13  N   UNK N   1      35.813  14.180   9.847  0.00  0.00    -0.295 N 
HETATM   14  O   UNK N   1      36.785  16.018  10.743  0.00  0.00    -0.246 OA
HETATM   15  C   UNK N   1      34.932  12.115   8.983  0.00  0.00     0.033 A 
HETATM   16  C   UNK N   1      34.506  10.808   9.184  0.00  0.00     0.039 A 
BRANCH   8  17
HETATM   17  C   UNK N   1      35.700  12.765  13.899  0.00  0.00    -0.008 A 
HETATM   18  C   UNK N   1      34.629  13.017  14.770  0.00  0.00     0.014 A 
HETATM   19  C   UNK N   1      34.641  12.535  16.081  0.00  0.00     0.008 A 
HETATM   20  C   UNK N   1      35.733  11.793  16.555  0.00  0.00    -0.055 A 
HETATM   21  C   UNK N   1      36.816  11.555  15.700  0.00  0.00     0.008 A 
HETATM   22  C   UNK N   1      36.797  12.033  14.387  0.00  0.00     0.014 A 
BRANCH  20  23
HETATM   23  C   UNK N   1      35.749  11.208  17.947  0.00  0.00     0.010 C 
HETATM   24  C   UNK N   1      35.348  12.246  18.981  0.00  0.00     0.015 C 
HETATM   25  C   UNK N   1      34.872   9.975  18.109  0.00  0.00     0.015 C 
ENDBRANCH  20  23
ENDBRANCH   8  17
BRANCH  13  26
HETATM   26  C   UNK N   1      35.867  14.722   8.470  0.00  0.00     0.172 C 
BRANCH  26  27
HETATM   27  C   UNK N   1      34.712  15.636   8.145  0.00  0.00    -0.037 A 
HETATM   28  C   UNK N   1      34.632  16.289   6.903  0.00  0.00     0.011 A 
HETATM   29  C   UNK N   1      33.459  16.937   6.515  0.00  0.00     0.032 A 
HETATM   30  C   UNK N   1      32.355  16.938   7.367  0.00  0.00     0.060 A 
HETATM   31  C   UNK N   1      32.441  16.332   8.636  0.00  0.00     0.059 A 
HETATM   32  N   UNK N   1      31.181  17.489   6.966  0.00  0.00    -0.347 N 
HETATM   33  C   UNK N   1      33.617  15.676   9.018  0.00  0.00     0.040 A 
HETATM   34  N   UNK N   1      31.356  16.341   9.454  0.00  0.00    -0.361 N 
HETATM   35  C   UNK N   1      30.181  16.896   9.047  0.00  0.00     0.126 A 
ATOM     36  HN  UNK N   1      31.422  15.926  10.384  1.00  0.00     0.165 HD
HETATM   37  C   UNK N   1      30.089  17.467   7.774  0.00  0.00     0.095 A 
HETATM   38 Br   UNK N   1      28.427  18.157   7.141  0.00  0.00    -0.030 Br
ATOM     39  HN  UNK N   1      31.118  17.923   6.045  1.00  0.00     0.166 HD
ENDBRANCH  26  27
ENDBRANCH  13  26
ENDBRANCH   4   5
ENDBRANCH   1   4
TORSDOF 6
ENDMDL
MODEL 5
REMARK VINA RESULT:      -7.9     14.595     18.419
REMARK  6 active torsions:
REMARK  status: ('A' for Active; 'I' for Inactive)
REMARK    1  A    between atoms: C_2  and  C_4 
REMARK    2  A    between atoms: C_7  and  C_10 
REMARK    3  A    between atoms: C_13  and  O_36 
REMARK    4  A    between atoms: N_17  and  C_22 
REMARK    5  A    between atoms: C_22  and  C_23 
REMARK    6  A    between atoms: O_36  and  C_37 
ROOT
HETATM    1  C   UNK N   1      38.687  12.026   8.683  0.00  0.00     0.268 C 
HETATM    2  C   UNK N   1      40.128  11.779   8.545  0.00  0.00    -0.091 C 
HETATM    3  C   UNK N   1      41.320  11.616   8.473  0.00  0.00     0.014 C 
ENDROOT
BRANCH   1   4
HETATM    4  O   UNK N   1      38.092  12.479   7.515  0.00  0.00    -0.340 OA
BRANCH   4   5
HETATM    5  C   UNK N   1      37.096  13.402   7.452  0.00  0.00     0.070 A 
HETATM    6  C   UNK N   1      36.433  13.772   8.627  0.00  0.00     0.053 A 
HETATM    7  C   UNK N   1      35.441  14.771   8.622  0.00  0.00     0.021 A 
HETATM    8  C   UNK N   1      34.805  15.214   9.811  0.00  0.00     0.059 A 
HETATM    9  C   UNK N   1      35.080  15.375   7.388  0.00  0.00     0.051 A 
HETATM   10  N   UNK N   1      33.906  16.228   9.719  0.00  0.00    -0.307 N 
HETATM   11  C   UNK N   1      33.580  16.820   8.534  0.00  0.00     0.327 A 
ATOM     12  HN  UNK N   1      33.454  16.560  10.572  1.00  0.00     0.170 HD
HETATM   13  N   UNK N   1      34.139  16.371   7.351  0.00  0.00    -0.295 N 
HETATM   14  O   UNK N   1      32.792  17.751   8.537  0.00  0.00    -0.246 OA
HETATM   15  C   UNK N   1      35.727  14.971   6.211  0.00  0.00     0.033 A 
HETATM   16  C   UNK N   1      36.734  14.012   6.245  0.00  0.00     0.039 A 
BRANCH   8  17
HETATM   17  C   UNK N   1      35.100  14.684  11.182  0.00  0.00    -0.008 A 
HETATM   18  C   UNK N   1      34.613  13.450  11.638  0.00  0.00     0.014 A 
HETATM   19  C   UNK N   1      34.970  12.959  12.896  0.00  0.00     0.008 A 
HETATM   20  C   UNK N   1      35.819  13.698  13.733  0.00  0.00    -0.055 A 
HETATM   21  C   UNK N   1      36.291  14.941  13.295  0.00  0.00     0.008 A 
HETATM   22  C   UNK N   1      35.938  15.426  12.033  0.00  0.00     0.014 A 
BRANCH  20  23
HETATM   23  C   UNK N   1      36.270  13.167  15.072  0.00  0.00     0.010 C 
HETATM   24  C   UNK N   1      35.082  12.836  15.957  0.00  0.00     0.015 C 
HETATM   25  C   UNK N   1      37.180  11.951  14.980  0.00  0.00     0.015 C 
ENDBRANCH  20  23
ENDBRANCH   8  17
BRANCH  13  26
HETATM   26  C   UNK N   1      33.763  16.982   6.056  0.00  0.00     0.172 C 
BRANCH  26  27
HETATM   27  C   UNK N   1      32.434  16.498   5.533  0.00  0.00    -0.037 A 
HETATM   28  C   UNK N   1      31.984  15.193   5.798  0.00  0.00     0.011 A 
HETATM   29  C   UNK N   1      30.666  14.827   5.521  0.00  0.00     0.032 A 
HETATM   30  C   UNK N   1      29.786  15.763   4.979  0.00  0.00     0.060 A 
HETATM   31  C   UNK N   1      30.241  17.059   4.663  0.00  0.00     0.059 A 
HETATM   32  N   UNK N   1      28.481  15.445   4.789  0.00  0.00    -0.347 N 
HETATM   33  C   UNK N   1      31.561  17.425   4.948  0.00  0.00     0.040 A 
HETATM   34  N   UNK N   1      29.371  17.960   4.135  0.00  0.00    -0.361 N 
HETATM   35  C   UNK N   1      28.062  17.636   3.944  0.00  0.00     0.126 A 
ATOM     36  HN  UNK N   1      29.702  18.891   3.880  1.00  0.00     0.165 HD
HETATM   37  C   UNK N   1      27.607  16.359   4.291  0.00  0.00     0.095 A 
HETATM   38 Br   UNK N   1      25.759  15.915   4.131  0.00  0.00    -0.030 Br
ATOM     39  HN  UNK N   1      28.151  14.509   5.023  1.00  0.00     0.166 HD
ENDBRANCH  26  27
ENDBRANCH  13  26
ENDBRANCH   4   5
ENDBRANCH   1   4
TORSDOF 6
ENDMDL
MODEL 6
REMARK VINA RESULT:      -7.7     17.583     20.823
REMARK  6 active torsions:
REMARK  status: ('A' for Active; 'I' for Inactive)
REMARK    1  A    between atoms: C_2  and  C_4 
REMARK    2  A    between atoms: C_7  and  C_10 
REMARK    3  A    between atoms: C_13  and  O_36 
REMARK    4  A    between atoms: N_17  and  C_22 
REMARK    5  A    between atoms: C_22  and  C_23 
REMARK    6  A    between atoms: O_36  and  C_37 
ROOT
HETATM    1  C   UNK N   1      34.908   7.894  11.123  0.00  0.00     0.268 C 
HETATM    2  C   UNK N   1      35.253   6.988  10.020  0.00  0.00    -0.091 C 
HETATM    3  C   UNK N   1      35.591   6.257   9.124  0.00  0.00     0.014 C 
ENDROOT
BRANCH   1   4
HETATM    4  O   UNK N   1      34.079   8.938  10.738  0.00  0.00    -0.340 OA
BRANCH   4   5
HETATM    5  C   UNK N   1      34.487  10.213  10.501  0.00  0.00     0.070 A 
HETATM    6  C   UNK N   1      34.836  11.030  11.582  0.00  0.00     0.053 A 
HETATM    7  C   UNK N   1      35.327  12.334  11.383  0.00  0.00     0.021 A 
HETATM    8  C   UNK N   1      35.755  13.157  12.458  0.00  0.00     0.059 A 
HETATM    9  C   UNK N   1      35.421  12.839  10.058  0.00  0.00     0.051 A 
HETATM   10  N   UNK N   1      36.275  14.377  12.166  0.00  0.00    -0.307 N 
HETATM   11  C   UNK N   1      36.384  14.847  10.890  0.00  0.00     0.327 A 
ATOM     12  HN  UNK N   1      36.597  14.968  12.933  1.00  0.00     0.170 HD
HETATM   13  N   UNK N   1      35.921  14.093   9.826  0.00  0.00    -0.295 N 
HETATM   14  O   UNK N   1      36.897  15.937  10.705  0.00  0.00    -0.246 OA
HETATM   15  C   UNK N   1      35.034  12.022   8.984  0.00  0.00     0.033 A 
HETATM   16  C   UNK N   1      34.592  10.722   9.202  0.00  0.00     0.039 A 
BRANCH   8  17
HETATM   17  C   UNK N   1      35.734  12.750  13.900  0.00  0.00    -0.008 A 
HETATM   18  C   UNK N   1      34.659  13.043  14.754  0.00  0.00     0.014 A 
HETATM   19  C   UNK N   1      34.646  12.583  16.073  0.00  0.00     0.008 A 
HETATM   20  C   UNK N   1      35.716  11.824  16.573  0.00  0.00    -0.055 A 
HETATM   21  C   UNK N   1      36.802  11.546  15.734  0.00  0.00     0.008 A 
HETATM   22  C   UNK N   1      36.808  12.001  14.413  0.00  0.00     0.014 A 
BRANCH  20  23
HETATM   23  C   UNK N   1      35.702  11.264  17.974  0.00  0.00     0.010 C 
HETATM   24  C   UNK N   1      35.316  12.328  18.985  0.00  0.00     0.015 C 
HETATM   25  C   UNK N   1      34.794  10.055  18.148  0.00  0.00     0.015 C 
ENDBRANCH  20  23
ENDBRANCH   8  17
BRANCH  13  26
HETATM   26  C   UNK N   1      36.002  14.610   8.441  0.00  0.00     0.172 C 
BRANCH  26  27
HETATM   27  C   UNK N   1      34.839  15.496   8.069  0.00  0.00    -0.037 A 
HETATM   28  C   UNK N   1      34.706  16.008   6.767  0.00  0.00     0.011 A 
HETATM   29  C   UNK N   1      33.521  16.623   6.363  0.00  0.00     0.032 A 
HETATM   30  C   UNK N   1      32.456  16.731   7.258  0.00  0.00     0.060 A 
HETATM   31  C   UNK N   1      32.598  16.268   8.582  0.00  0.00     0.059 A 
HETATM   32  N   UNK N   1      31.269  17.247   6.851  0.00  0.00    -0.347 N 
HETATM   33  C   UNK N   1      33.785  15.644   8.981  0.00  0.00     0.040 A 
HETATM   34  N   UNK N   1      31.551  16.379   9.442  0.00  0.00    -0.361 N 
HETATM   35  C   UNK N   1      30.362  16.900   9.029  0.00  0.00     0.126 A 
ATOM     36  HN  UNK N   1      31.657  16.069  10.408  1.00  0.00     0.165 HD
HETATM   37  C   UNK N   1      30.215  17.328   7.706  0.00  0.00     0.095 A 
HETATM   38 Br   UNK N   1      28.530  17.962   7.075  0.00  0.00    -0.030 Br
ATOM     39  HN  UNK N   1      31.166  17.578   5.892  1.00  0.00     0.166 HD
ENDBRANCH  26  27
ENDBRANCH  13  26
ENDBRANCH   4   5
ENDBRANCH   1   4
TORSDOF 6
ENDMDL
MODEL 7
REMARK VINA RESULT:      -7.5     17.351     20.570
REMARK  6 active torsions:
REMARK  status: ('A' for Active; 'I' for Inactive)
REMARK    1  A    between atoms: C_2  and  C_4 
REMARK    2  A    between atoms: C_7  and  C_10 
REMARK    3  A    between atoms: C_13  and  O_36 
REMARK    4  A    between atoms: N_17  and  C_22 
REMARK    5  A    between atoms: C_22  and  C_23 
REMARK    6  A    between atoms: O_36  and  C_37 
ROOT
HETATM    1  C   UNK N   1      34.275   8.229  10.963  0.00  0.00     0.268 C 
HETATM    2  C   UNK N   1      32.935   8.382  10.382  0.00  0.00    -0.091 C 
HETATM    3  C   UNK N   1      31.836   8.452   9.892  0.00  0.00     0.014 C 
ENDROOT
BRANCH   1   4
HETATM    4  O   UNK N   1      35.230   9.035  10.361  0.00  0.00    -0.340 OA
BRANCH   4   5
HETATM    5  C   UNK N   1      35.157  10.389  10.255  0.00  0.00     0.070 A 
HETATM    6  C   UNK N   1      35.212  11.168  11.414  0.00  0.00     0.053 A 
HETATM    7  C   UNK N   1      35.207  12.574  11.350  0.00  0.00     0.021 A 
HETATM    8  C   UNK N   1      35.334  13.388  12.507  0.00  0.00     0.059 A 
HETATM    9  C   UNK N   1      35.094  13.204  10.082  0.00  0.00     0.051 A 
HETATM   10  N   UNK N   1      35.384  14.735  12.342  0.00  0.00    -0.307 N 
HETATM   11  C   UNK N   1      35.298  15.333  11.119  0.00  0.00     0.327 A 
ATOM     12  HN  UNK N   1      35.488  15.325  13.168  1.00  0.00     0.170 HD
HETATM   13  N   UNK N   1      35.114  14.571   9.980  0.00  0.00    -0.295 N 
HETATM   14  O   UNK N   1      35.390  16.547  11.048  0.00  0.00    -0.246 OA
HETATM   15  C   UNK N   1      35.003  12.410   8.928  0.00  0.00     0.033 A 
HETATM   16  C   UNK N   1      35.053  11.024   9.012  0.00  0.00     0.039 A 
BRANCH   8  17
HETATM   17  C   UNK N   1      35.482  12.864  13.903  0.00  0.00    -0.008 A 
HETATM   18  C   UNK N   1      35.944  13.656  14.965  0.00  0.00     0.014 A 
HETATM   19  C   UNK N   1      35.999  13.150  16.266  0.00  0.00     0.008 A 
HETATM   20  C   UNK N   1      35.601  11.831  16.533  0.00  0.00    -0.055 A 
HETATM   21  C   UNK N   1      35.160  11.027  15.476  0.00  0.00     0.008 A 
HETATM   22  C   UNK N   1      35.098  11.539  14.177  0.00  0.00     0.014 A 
BRANCH  20  23
HETATM   23  C   UNK N   1      35.593  11.276  17.937  0.00  0.00     0.010 C 
HETATM   24  C   UNK N   1      35.188  12.337  18.943  0.00  0.00     0.015 C 
HETATM   25  C   UNK N   1      34.705  10.053  18.113  0.00  0.00     0.015 C 
ENDBRANCH  20  23
ENDBRANCH   8  17
BRANCH  13  26
HETATM   26  C   UNK N   1      34.983  15.213   8.652  0.00  0.00     0.172 C 
BRANCH  26  27
HETATM   27  C   UNK N   1      33.560  15.572   8.303  0.00  0.00    -0.037 A 
HETATM   28  C   UNK N   1      33.022  16.822   8.653  0.00  0.00     0.011 A 
HETATM   29  C   UNK N   1      31.800  17.241   8.128  0.00  0.00     0.032 A 
HETATM   30  C   UNK N   1      31.104  16.413   7.247  0.00  0.00     0.060 A 
HETATM   31  C   UNK N   1      31.609  15.137   6.930  0.00  0.00     0.059 A 
HETATM   32  N   UNK N   1      29.959  16.846   6.662  0.00  0.00    -0.347 N 
HETATM   33  C   UNK N   1      32.840  14.722   7.453  0.00  0.00     0.040 A 
HETATM   34  N   UNK N   1      30.920  14.342   6.070  0.00  0.00    -0.361 N 
HETATM   35  C   UNK N   1      29.770  14.780   5.486  0.00  0.00     0.126 A 
ATOM     36  HN  UNK N   1      31.269  13.407   5.857  1.00  0.00     0.165 HD
HETATM   37  C   UNK N   1      29.289  16.061   5.777  0.00  0.00     0.095 A 
HETATM   38 Br   UNK N   1      27.740  16.736   4.893  0.00  0.00    -0.030 Br
ATOM     39  HN  UNK N   1      29.596  17.772   6.888  1.00  0.00     0.166 HD
ENDBRANCH  26  27
ENDBRANCH  13  26
ENDBRANCH   4   5
ENDBRANCH   1   4
TORSDOF 6
ENDMDL
MODEL 8
REMARK VINA RESULT:      -7.5     16.568     20.070
REMARK  6 active torsions:
REMARK  status: ('A' for Active; 'I' for Inactive)
REMARK    1  A    between atoms: C_2  and  C_4 
REMARK    2  A    between atoms: C_7  and  C_10 
REMARK    3  A    between atoms: C_13  and  O_36 
REMARK    4  A    between atoms: N_17  and  C_22 
REMARK    5  A    between atoms: C_22  and  C_23 
REMARK    6  A    between atoms: O_36  and  C_37 
ROOT
HETATM    1  C   UNK N   1      37.228   9.329   8.850  0.00  0.00     0.268 C 
HETATM    2  C   UNK N   1      37.900   8.980  10.109  0.00  0.00    -0.091 C 
HETATM    3  C   UNK N   1      38.452   8.638  11.124  0.00  0.00     0.014 C 
ENDROOT
BRANCH   1   4
HETATM    4  O   UNK N   1      35.982   9.909   9.035  0.00  0.00    -0.340 OA
BRANCH   4   5
HETATM    5  C   UNK N   1      35.751  11.244   9.153  0.00  0.00     0.070 A 
HETATM    6  C   UNK N   1      35.672  11.813  10.428  0.00  0.00     0.053 A 
HETATM    7  C   UNK N   1      35.501  13.199  10.600  0.00  0.00     0.021 A 
HETATM    8  C   UNK N   1      35.488  13.810  11.882  0.00  0.00     0.059 A 
HETATM    9  C   UNK N   1      35.360  14.023   9.451  0.00  0.00     0.051 A 
HETATM   10  N   UNK N   1      35.382  15.162  11.949  0.00  0.00    -0.307 N 
HETATM   11  C   UNK N   1      35.270  15.949  10.840  0.00  0.00     0.327 A 
ATOM     12  HN  UNK N   1      35.386  15.608  12.867  1.00  0.00     0.170 HD
HETATM   13  N   UNK N   1      35.220  15.380   9.581  0.00  0.00    -0.295 N 
HETATM   14  O   UNK N   1      35.219  17.159  10.979  0.00  0.00    -0.246 OA
HETATM   15  C   UNK N   1      35.406  13.435   8.177  0.00  0.00     0.033 A 
HETATM   16  C   UNK N   1      35.618  12.070   8.030  0.00  0.00     0.039 A 
BRANCH   8  17
HETATM   17  C   UNK N   1      35.647  13.071  13.176  0.00  0.00    -0.008 A 
HETATM   18  C   UNK N   1      36.870  12.999  13.862  0.00  0.00     0.014 A 
HETATM   19  C   UNK N   1      36.959  12.361  15.102  0.00  0.00     0.008 A 
HETATM   20  C   UNK N   1      35.826  11.772  15.682  0.00  0.00    -0.055 A 
HETATM   21  C   UNK N   1      34.607  11.821  14.995  0.00  0.00     0.008 A 
HETATM   22  C   UNK N   1      34.519  12.466  13.758  0.00  0.00     0.014 A 
BRANCH  20  23
HETATM   23  C   UNK N   1      35.879  11.129  17.047  0.00  0.00     0.010 C 
HETATM   24  C   UNK N   1      35.252  12.025  18.099  0.00  0.00     0.015 C 
HETATM   25  C   UNK N   1      35.230   9.754  17.108  0.00  0.00     0.015 C 
ENDBRANCH  20  23
ENDBRANCH   8  17
BRANCH  13  26
HETATM   26  C   UNK N   1      35.062  16.223   8.374  0.00  0.00     0.172 C 
BRANCH  26  27
HETATM   27  C   UNK N   1      33.636  16.302   7.887  0.00  0.00    -0.037 A 
HETATM   28  C   UNK N   1      32.568  16.423   8.792  0.00  0.00     0.011 A 
HETATM   29  C   UNK N   1      31.285  16.733   8.340  0.00  0.00     0.032 A 
HETATM   30  C   UNK N   1      31.060  16.925   6.977  0.00  0.00     0.060 A 
HETATM   31  C   UNK N   1      32.112  16.755   6.056  0.00  0.00     0.059 A 
HETATM   32  N   UNK N   1      29.837  17.313   6.533  0.00  0.00    -0.347 N 
HETATM   33  C   UNK N   1      33.399  16.452   6.514  0.00  0.00     0.040 A 
HETATM   34  N   UNK N   1      31.877  16.946   4.731  0.00  0.00    -0.361 N 
HETATM   35  C   UNK N   1      30.648  17.334   4.291  0.00  0.00     0.126 A 
ATOM     36  HN  UNK N   1      32.630  16.799   4.058  1.00  0.00     0.165 HD
HETATM   37  C   UNK N   1      29.613  17.534   5.211  0.00  0.00     0.095 A 
HETATM   38 Br   UNK N   1      27.914  18.178   4.631  0.00  0.00    -0.030 Br
ATOM     39  HN  UNK N   1      29.076  17.441   7.201  1.00  0.00     0.166 HD
ENDBRANCH  26  27
ENDBRANCH  13  26
ENDBRANCH   4   5
ENDBRANCH   1   4
TORSDOF 6
ENDMDL
MODEL 9
REMARK VINA RESULT:      -7.3     12.937     14.510
REMARK  6 active torsions:
REMARK  status: ('A' for Active; 'I' for Inactive)
REMARK    1  A    between atoms: C_2  and  C_4 
REMARK    2  A    between atoms: C_7  and  C_10 
REMARK    3  A    between atoms: C_13  and  O_36 
REMARK    4  A    between atoms: N_17  and  C_22 
REMARK    5  A    between atoms: C_22  and  C_23 
REMARK    6  A    between atoms: O_36  and  C_37 
ROOT
HETATM    1  C   UNK N   1      29.110  12.291   2.276  0.00  0.00     0.268 C 
HETATM    2  C   UNK N   1      28.690  11.656   3.533  0.00  0.00    -0.091 C 
HETATM    3  C   UNK N   1      28.308  11.105   4.534  0.00  0.00     0.014 C 
ENDROOT
BRANCH   1   4
HETATM    4  O   UNK N   1      28.942  13.667   2.272  0.00  0.00    -0.340 OA
BRANCH   4   5
HETATM    5  C   UNK N   1      29.363  14.509   3.254  0.00  0.00     0.070 A 
HETATM    6  C   UNK N   1      28.414  15.210   4.005  0.00  0.00     0.053 A 
HETATM    7  C   UNK N   1      28.798  16.041   5.074  0.00  0.00     0.021 A 
HETATM    8  C   UNK N   1      27.851  16.706   5.897  0.00  0.00     0.059 A 
HETATM    9  C   UNK N   1      30.181  16.202   5.357  0.00  0.00     0.051 A 
HETATM   10  N   UNK N   1      28.311  17.436   6.945  0.00  0.00    -0.307 N 
HETATM   11  C   UNK N   1      29.640  17.569   7.226  0.00  0.00     0.327 A 
ATOM     12  HN  UNK N   1      27.635  17.906   7.549  1.00  0.00     0.170 HD
HETATM   13  N   UNK N   1      30.589  16.981   6.408  0.00  0.00    -0.295 N 
HETATM   14  O   UNK N   1      29.974  18.209   8.208  0.00  0.00    -0.246 OA
HETATM   15  C   UNK N   1      31.125  15.522   4.573  0.00  0.00     0.033 A 
HETATM   16  C   UNK N   1      30.722  14.673   3.549  0.00  0.00     0.039 A 
BRANCH   8  17
HETATM   17  C   UNK N   1      26.365  16.610   5.730  0.00  0.00    -0.008 A 
HETATM   18  C   UNK N   1      25.641  17.463   4.883  0.00  0.00     0.014 A 
HETATM   19  C   UNK N   1      24.266  17.295   4.700  0.00  0.00     0.008 A 
HETATM   20  C   UNK N   1      23.580  16.271   5.371  0.00  0.00    -0.055 A 
HETATM   21  C   UNK N   1      24.290  15.430   6.235  0.00  0.00     0.008 A 
HETATM   22  C   UNK N   1      25.667  15.596   6.410  0.00  0.00     0.014 A 
BRANCH  20  23
HETATM   23  C   UNK N   1      22.107  16.028   5.148  0.00  0.00     0.010 C 
HETATM   24  C   UNK N   1      21.276  16.653   6.253  0.00  0.00     0.015 C 
HETATM   25  C   UNK N   1      21.597  16.516   3.799  0.00  0.00     0.015 C 
ENDBRANCH  20  23
ENDBRANCH   8  17
BRANCH  13  26
HETATM   26  C   UNK N   1      32.034  17.150   6.683  0.00  0.00     0.172 C 
BRANCH  26  27
HETATM   27  C   UNK N   1      32.491  16.427   7.926  0.00  0.00    -0.037 A 
HETATM   28  C   UNK N   1      32.146  15.083   8.149  0.00  0.00     0.011 A 
HETATM   29  C   UNK N   1      32.760  14.352   9.167  0.00  0.00     0.032 A 
HETATM   30  C   UNK N   1      33.725  14.959   9.969  0.00  0.00     0.060 A 
HETATM   31  C   UNK N   1      34.041  16.320   9.788  0.00  0.00     0.059 A 
HETATM   32  N   UNK N   1      34.392  14.235  10.904  0.00  0.00    -0.347 N 
HETATM   33  C   UNK N   1      33.429  17.048   8.761  0.00  0.00     0.040 A 
HETATM   34  N   UNK N   1      34.984  16.897  10.578  0.00  0.00    -0.361 N 
HETATM   35  C   UNK N   1      35.649  16.167  11.516  0.00  0.00     0.126 A 
ATOM     36  HN  UNK N   1      35.197  17.889  10.467  1.00  0.00     0.165 HD
HETATM   37  C   UNK N   1      35.357  14.808  11.671  0.00  0.00     0.095 A 
HETATM   38 Br   UNK N   1      36.347  13.740  12.903  0.00  0.00    -0.030 Br
ATOM     39  HN  UNK N   1      34.166  13.249  11.032  1.00  0.00     0.166 HD
ENDBRANCH  26  27
ENDBRANCH  13  26
ENDBRANCH   4   5
ENDBRANCH   1   4
TORSDOF 6
ENDMDL
