REMARK  21 active torsions:
REMARK  status: ('A' for Active; 'I' for Inactive)
REMARK    1  A    between atoms: C_2  and  C_3 
REMARK    2  A    between atoms: C_3  and  C_5 
REMARK    3  A    between atoms: C_5  and  C_6 
REMARK    4  A    between atoms: C_5  and  N_39 
REMARK    5  A    between atoms: C_6  and  C_7 
REMARK    6  A    between atoms: C_6  and  O_37 
REMARK    7  A    between atoms: C_7  and  C_8 
REMARK       I    between atoms: C_8  and  N_10 
REMARK    8  A    between atoms: C_14  and  C_15 
REMARK    9  A    between atoms: C_15  and  C_16 
REMARK   10  A    between atoms: C_15  and  O_35 
REMARK   11  A    between atoms: C_16  and  C_18 
REMARK       I    between atoms: C_18  and  N_20 
REMARK   12  A    between atoms: C_21  and  N_20 
REMARK   13  A    between atoms: C_21  and  C_22 
REMARK   14  A    between atoms: C_21  and  C_29 
REMARK   15  A    between atoms: C_22  and  C_23 
REMARK       I    between atoms: N_39  and  C_41 
REMARK   16  A    between atoms: C_41  and  C_43 
REMARK   17  A    between atoms: C_43  and  C_44 
REMARK   18  A    between atoms: C_43  and  N_47 
REMARK       I    between atoms: N_47  and  C_48 
REMARK   19  A    between atoms: C_48  and  C_50 
REMARK   20  A    between atoms: C_50  and  C_51 
REMARK   21  A    between atoms: C_50  and  N_54 
ROOT
HETATM    1  C   UNK N   1       2.852  -6.019  -0.462  0.00  0.00     0.222 C 
HETATM    2  O   UNK N   1       2.644  -7.197  -0.191  0.00  0.00    -0.273 OA
HETATM    3  N   UNK N   1       2.022  -5.056   0.021  0.00  0.00    -0.345 N 
HETATM    4  C   UNK N   1       0.822  -5.385   0.735  0.00  0.00     0.126 C 
HETATM    5  C   UNK N   1      -0.081  -4.177   0.527  0.00  0.00     0.022 C 
HETATM    6  C   UNK N   1       0.609  -3.340  -0.554  0.00  0.00     0.029 C 
HETATM    7  C   UNK N   1       2.083  -3.693  -0.432  0.00  0.00     0.117 C 
ENDROOT
BRANCH   1   8
HETATM    8  C   UNK N   1       3.988  -5.666  -1.375  0.00  0.00     0.137 C 
BRANCH   8   9
HETATM    9  C   UNK N   1       5.229  -6.498  -1.064  0.00  0.00     0.152 C 
BRANCH   9  10
HETATM   10  C   UNK N   1       6.506  -5.743  -0.658  0.00  0.00     0.119 C 
BRANCH  10  11
HETATM   11  C   UNK N   1       6.449  -4.199  -0.668  0.00  0.00     0.006 C 
HETATM   12  C   UNK N   1       5.991  -3.611  -1.997  0.00  0.00     0.012 C 
BRANCH  11  13
HETATM   13  C   UNK N   1       7.807  -3.613  -0.295  0.00  0.00     0.002 C 
HETATM   14  C   UNK N   1       8.859  -3.843  -1.370  0.00  0.00     0.005 C 
ENDBRANCH  11  13
ENDBRANCH  10  11
BRANCH  10  15
HETATM   15  N   UNK N   1       6.964  -6.218   0.637  0.00  0.00    -0.347 N 
HETATM   16  C   UNK N   1       6.199  -5.888   1.820  0.00  0.00     0.153 C 
HETATM   17  C   UNK N   1       8.118  -6.939   0.751  0.00  0.00     0.243 C 
HETATM   18  O   UNK N   1       8.518  -7.273   1.858  0.00  0.00    -0.271 OA
BRANCH  17  19
HETATM   19  C   UNK N   1       8.889  -7.379  -0.481  0.00  0.00     0.180 C 
BRANCH  19  20
HETATM   20  C   UNK N   1       9.120  -8.897  -0.516  0.00  0.00     0.009 C 
HETATM   21  C   UNK N   1       7.807  -9.655  -0.475  0.00  0.00     0.012 C 
HETATM   22  C   UNK N   1       9.865  -9.302  -1.777  0.00  0.00     0.012 C 
ENDBRANCH  19  20
BRANCH  19  23
HETATM   23  N   UNK N   1      10.131  -6.652  -0.678  0.00  0.00    -0.346 N 
HETATM   24  C   UNK N   1      11.177  -6.603   0.185  0.00  0.00     0.252 C 
HETATM   25  O   UNK N   1      11.118  -7.141   1.281  0.00  0.00    -0.271 OA
HETATM   26  H   UNK N   1      10.222  -6.146  -1.518  0.00  0.00     0.163 HD
BRANCH  24  27
HETATM   27  C   UNK N   1      12.429  -5.868  -0.246  0.00  0.00     0.316 C 
BRANCH  27  28
HETATM   28  C   UNK N   1      13.695  -6.745  -0.139  0.00  0.00     0.020 C 
HETATM   29  C   UNK N   1      14.084  -7.031   1.305  0.00  0.00     0.012 C 
HETATM   30  C   UNK N   1      13.564  -8.050  -0.906  0.00  0.00     0.012 C 
ENDBRANCH  27  28
BRANCH  27  31
HETATM   31  N   UNK N   1      12.637  -4.581   0.438  0.00  0.00     0.094 N 
HETATM   32  C   UNK N   1      11.395  -3.830   0.567  0.00  0.00     0.310 C 
HETATM   33  C   UNK N   1      13.484  -3.773  -0.428  0.00  0.00     0.310 C 
ENDBRANCH  27  31
ENDBRANCH  24  27
ENDBRANCH  19  23
ENDBRANCH  17  19
ENDBRANCH  10  15
ENDBRANCH   9  10
BRANCH   9  34
HETATM   34  O   UNK N   1       5.510  -7.350  -2.133  0.00  0.00    -0.388 OA
HETATM   35  C   UNK N   1       5.064  -8.608  -1.724  0.00  0.00     0.202 C 
ENDBRANCH   9  34
ENDBRANCH   8   9
ENDBRANCH   1   8
BRANCH   7  36
HETATM   36  C   UNK N   1       2.699  -2.773   0.634  0.00  0.00     0.156 C 
BRANCH  36  37
HETATM   37  C   UNK N   1       2.778  -1.337   0.111  0.00  0.00     0.105 C 
HETATM   38  C   UNK N   1       2.521  -0.258   1.149  0.00  0.00     0.022 C 
BRANCH  37  39
HETATM   39  C   UNK N   1       3.866  -1.068  -0.908  0.00  0.00     0.224 C 
HETATM   40  O   UNK N   1       3.643  -1.335  -2.077  0.00  0.00    -0.273 OA
HETATM   41  N   UNK N   1       5.072  -0.530  -0.575  0.00  0.00    -0.350 N 
HETATM   42  H   UNK N   1       5.736  -0.397  -1.289  0.00  0.00     0.163 HD
BRANCH  41  43
HETATM   43  C   UNK N   1       5.429  -0.142   0.772  0.00  0.00     0.146 C 
BRANCH  43  44
HETATM   44  C   UNK N   1       5.338   1.387   0.905  0.00  0.00     0.070 C 
BRANCH  44  45
HETATM   45  C   UNK N   1       6.504   2.094   0.280  0.00  0.00    -0.056 A 
HETATM   46  C   UNK N   1       7.353   2.852   1.091  0.00  0.00     0.007 A 
HETATM   47  C   UNK N   1       8.490   3.454   0.545  0.00  0.00     0.001 A 
HETATM   48  C   UNK N   1       8.786   3.289  -0.811  0.00  0.00     0.000 A 
HETATM   49  C   UNK N   1       7.938   2.533  -1.626  0.00  0.00     0.001 A 
HETATM   50  C   UNK N   1       6.798   1.936  -1.082  0.00  0.00     0.007 A 
ENDBRANCH  44  45
ENDBRANCH  43  44
BRANCH  43  51
HETATM   51  C   UNK N   1       6.806  -0.613   1.148  0.00  0.00     0.073 A 
HETATM   52  N   UNK N   1       7.831  -0.748   0.271  0.00  0.00    -0.361 N 
HETATM   53  C   UNK N   1       9.040  -0.967   0.900  0.00  0.00     0.096 A 
ATOM     54  HN  UNK N   1       7.721  -0.694  -0.741  1.00  0.00     0.165 HD
HETATM   55  C   UNK N   1       8.992  -0.971   2.306  0.00  0.00     0.068 A 
HETATM   56  S   UNK N   1       7.402  -0.689   2.681  0.00  0.00    -0.085 SA
ENDBRANCH  43  51
ENDBRANCH  41  43
ENDBRANCH  37  39
ENDBRANCH  36  37
BRANCH  36  57
HETATM   57  O   UNK N   1       3.960  -3.218   1.043  0.00  0.00    -0.388 OA
HETATM   58  C   UNK N   1       3.894  -3.256   2.436  0.00  0.00     0.202 C 
ENDBRANCH  36  57
ENDBRANCH   7  36
TORSDOF 21
