MODEL 1
REMARK VINA RESULT:      -8.5      0.000      0.000
REMARK  8 active torsions:
REMARK  status: ('A' for Active; 'I' for Inactive)
REMARK    1  A    between atoms: C_2  and  N_4 
REMARK    2  A    between atoms: N_4  and  C_5 
REMARK       I    between atoms: N_4  and  C_12 
REMARK    3  A    between atoms: C_5  and  C_6 
REMARK    4  A    between atoms: C_12  and  C_14 
REMARK    5  A    between atoms: C_14  and  N_15 
REMARK    6  A    between atoms: C_23  and  C_42 
REMARK    7  A    between atoms: C_29  and  C_32 
REMARK    8  A    between atoms: C_32  and  C_33 
ROOT
HETATM    1  N   UNK N   1      25.965  15.443   5.957  0.00  0.00    -0.306 N 
HETATM    2  C   UNK N   1      27.208  15.995   6.498  0.00  0.00     0.065 A 
HETATM    3  C   UNK N   1      27.098  16.588   7.780  0.00  0.00     0.032 A 
HETATM    4  C   UNK N   1      28.159  17.096   8.506  0.00  0.00     0.002 A 
HETATM    5  C   UNK N   1      29.417  17.051   7.966  0.00  0.00     0.002 A 
HETATM    6  C   UNK N   1      29.581  16.521   6.702  0.00  0.00     0.032 A 
HETATM    7  C   UNK N   1      28.536  15.987   5.920  0.00  0.00     0.069 A 
HETATM    8  N   UNK N   1      28.918  15.469   4.618  0.00  0.00    -0.281 N 
HETATM    9  C   UNK N   1      30.175  15.479   4.063  0.00  0.00     0.139 A 
HETATM   10  N   UNK N   1      30.156  15.013   2.809  0.00  0.00    -0.283 N 
ATOM     11  HN  UNK N   1      30.957  14.926   2.183  1.00  0.00     0.188 HD
HETATM   12  N   UNK N   1      28.910  14.688   2.538  0.00  0.00    -0.286 N 
ATOM     13  HN  UNK N   1      28.572  14.283   1.666  1.00  0.00     0.188 HD
HETATM   14  C   UNK N   1      28.160  14.985   3.619  0.00  0.00     0.118 A 
HETATM   15  C   UNK N   1      26.683  14.934   3.534  0.00  0.00     0.152 C 
HETATM   16  C   UNK N   1      25.738  14.947   4.692  0.00  0.00     0.236 C 
HETATM   17  O   UNK N   1      24.616  14.531   4.426  0.00  0.00    -0.272 OA
ENDROOT
BRANCH   1  18
HETATM   18  C   UNK N   1      24.765  15.503   6.823  0.00  0.00     0.235 C 
BRANCH  18  19
HETATM   19  C   UNK N   1      24.478  14.217   7.577  0.00  0.00     0.238 C 
HETATM   20  N   UNK N   1      23.233  13.657   7.611  0.00  0.00    -0.343 N 
HETATM   21  O   UNK N   1      25.407  13.678   8.162  0.00  0.00    -0.272 OA
BRANCH  20  22
HETATM   22  C   UNK N   1      22.108  14.375   7.046  0.00  0.00     0.079 C 
HETATM   23  C   UNK N   1      21.081  13.417   6.472  0.00  0.00     0.032 C 
HETATM   24  C   UNK N   1      21.465  15.267   8.095  0.00  0.00     0.032 C 
ENDBRANCH  20  22
BRANCH  20  25
HETATM   25  C   UNK N   1      23.009  12.312   8.140  0.00  0.00     0.164 C 
BRANCH  25  26
HETATM   26  C   UNK N   1      22.758  12.213   9.615  0.00  0.00    -0.040 A 
HETATM   27  C   UNK N   1      21.466  12.313  10.145  0.00  0.00     0.009 A 
HETATM   28  C   UNK N   1      21.268  12.176  11.525  0.00  0.00     0.001 A 
HETATM   29  C   UNK N   1      22.355  11.928  12.371  0.00  0.00     0.000 A 
HETATM   30  C   UNK N   1      23.643  11.826  11.841  0.00  0.00     0.001 A 
HETATM   31  C   UNK N   1      23.843  11.968  10.465  0.00  0.00     0.009 A 
ENDBRANCH  25  26
ENDBRANCH  20  25
ENDBRANCH  18  19
ENDBRANCH   1  18
BRANCH  15  32
HETATM   32  C   UNK N   1      26.179  15.953   2.494  0.00  0.00     0.063 C 
BRANCH  32  33
HETATM   33  C   UNK N   1      25.603  17.192   3.108  0.00  0.00    -0.029 A 
HETATM   34  C   UNK N   1      24.251  17.493   3.246  0.00  0.00     0.096 A 
HETATM   35  N   UNK N   1      24.115  18.687   3.877  0.00  0.00    -0.365 N 
HETATM   36  C   UNK N   1      25.364  19.123   4.124  0.00  0.00     0.042 A 
HETATM   37  H   UNK N   1      23.272  19.142   4.107  0.00  0.00     0.165 HD
HETATM   38  C   UNK N   1      26.294  18.234   3.665  0.00  0.00    -0.002 A 
HETATM   39  C   UNK N   1      25.730  20.306   4.758  0.00  0.00     0.030 A 
HETATM   40  C   UNK N   1      27.661  18.457   3.802  0.00  0.00     0.014 A 
HETATM   41  C   UNK N   1      28.067  19.646   4.434  0.00  0.00     0.001 A 
HETATM   42  C   UNK N   1      27.105  20.566   4.912  0.00  0.00     0.002 A 
ENDBRANCH  32  33
ENDBRANCH  15  32
BRANCH   9  43
HETATM   43  C   UNK N   1      31.382  16.112   4.623  0.00  0.00     0.010 A 
HETATM   44  C   UNK N   1      31.793  17.394   4.232  0.00  0.00     0.015 A 
HETATM   45  C   UNK N   1      32.999  17.916   4.715  0.00  0.00     0.001 A 
HETATM   46  C   UNK N   1      33.801  17.155   5.571  0.00  0.00     0.000 A 
HETATM   47  C   UNK N   1      33.389  15.879   5.966  0.00  0.00     0.001 A 
HETATM   48  C   UNK N   1      32.180  15.363   5.497  0.00  0.00     0.015 A 
ENDBRANCH   9  43
TORSDOF 8
ENDMDL
MODEL 2
REMARK VINA RESULT:      -8.4      6.616     10.845
REMARK  8 active torsions:
REMARK  status: ('A' for Active; 'I' for Inactive)
REMARK    1  A    between atoms: C_2  and  N_4 
REMARK    2  A    between atoms: N_4  and  C_5 
REMARK       I    between atoms: N_4  and  C_12 
REMARK    3  A    between atoms: C_5  and  C_6 
REMARK    4  A    between atoms: C_12  and  C_14 
REMARK    5  A    between atoms: C_14  and  N_15 
REMARK    6  A    between atoms: C_23  and  C_42 
REMARK    7  A    between atoms: C_29  and  C_32 
REMARK    8  A    between atoms: C_32  and  C_33 
ROOT
HETATM    1  N   UNK N   1      35.075  11.961   8.035  0.00  0.00    -0.306 N 
HETATM    2  C   UNK N   1      34.454  11.271   9.168  0.00  0.00     0.065 A 
HETATM    3  C   UNK N   1      33.303  10.507   8.852  0.00  0.00     0.032 A 
HETATM    4  C   UNK N   1      32.613   9.717   9.751  0.00  0.00     0.002 A 
HETATM    5  C   UNK N   1      33.039   9.662  11.052  0.00  0.00     0.002 A 
HETATM    6  C   UNK N   1      34.132  10.416  11.429  0.00  0.00     0.032 A 
HETATM    7  C   UNK N   1      34.874  11.235  10.553  0.00  0.00     0.069 A 
HETATM    8  N   UNK N   1      35.996  11.943  11.144  0.00  0.00    -0.281 N 
HETATM    9  C   UNK N   1      36.381  11.923  12.463  0.00  0.00     0.139 A 
HETATM   10  N   UNK N   1      37.397  12.766  12.686  0.00  0.00    -0.283 N 
ATOM     11  HN  UNK N   1      37.856  12.939  13.580  1.00  0.00     0.188 HD
HETATM   12  N   UNK N   1      37.688  13.330  11.532  0.00  0.00    -0.286 N 
ATOM     13  HN  UNK N   1      38.432  14.007  11.367  1.00  0.00     0.188 HD
HETATM   14  C   UNK N   1      36.829  12.852  10.609  0.00  0.00     0.118 A 
HETATM   15  C   UNK N   1      36.770  13.466   9.263  0.00  0.00     0.152 C 
HETATM   16  C   UNK N   1      36.101  12.881   8.062  0.00  0.00     0.236 C 
HETATM   17  O   UNK N   1      36.481  13.354   6.997  0.00  0.00    -0.272 OA
ENDROOT
BRANCH   1  18
HETATM   18  C   UNK N   1      34.483  11.733   6.697  0.00  0.00     0.235 C 
BRANCH  18  19
HETATM   19  C   UNK N   1      33.331  12.663   6.360  0.00  0.00     0.238 C 
HETATM   20  N   UNK N   1      32.812  12.749   5.100  0.00  0.00    -0.343 N 
HETATM   21  O   UNK N   1      32.865  13.345   7.261  0.00  0.00    -0.272 OA
BRANCH  20  22
HETATM   22  C   UNK N   1      33.464  12.055   4.007  0.00  0.00     0.079 C 
HETATM   23  C   UNK N   1      32.495  11.799   2.867  0.00  0.00     0.032 C 
HETATM   24  C   UNK N   1      34.660  12.850   3.510  0.00  0.00     0.032 C 
ENDBRANCH  20  22
BRANCH  20  25
HETATM   25  C   UNK N   1      31.567  13.466   4.829  0.00  0.00     0.164 C 
BRANCH  25  26
HETATM   26  C   UNK N   1      31.699  14.924   4.504  0.00  0.00    -0.040 A 
HETATM   27  C   UNK N   1      32.901  15.462   4.029  0.00  0.00     0.009 A 
HETATM   28  C   UNK N   1      32.973  16.821   3.699  0.00  0.00     0.001 A 
HETATM   29  C   UNK N   1      31.845  17.639   3.833  0.00  0.00     0.000 A 
HETATM   30  C   UNK N   1      30.646  17.101   4.305  0.00  0.00     0.001 A 
HETATM   31  C   UNK N   1      30.573  15.746   4.640  0.00  0.00     0.009 A 
ENDBRANCH  25  26
ENDBRANCH  20  25
ENDBRANCH  18  19
ENDBRANCH   1  18
BRANCH  15  32
HETATM   32  C   UNK N   1      36.344  14.943   9.375  0.00  0.00     0.063 C 
BRANCH  32  33
HETATM   33  C   UNK N   1      34.861  15.127   9.479  0.00  0.00    -0.029 A 
HETATM   34  C   UNK N   1      34.011  14.490  10.378  0.00  0.00     0.096 A 
HETATM   35  N   UNK N   1      32.742  14.934  10.193  0.00  0.00    -0.365 N 
HETATM   36  C   UNK N   1      32.802  15.831   9.193  0.00  0.00     0.042 A 
HETATM   37  H   UNK N   1      31.939  14.655  10.691  0.00  0.00     0.165 HD
HETATM   38  C   UNK N   1      34.081  15.970   8.735  0.00  0.00    -0.002 A 
HETATM   39  C   UNK N   1      31.746  16.557   8.651  0.00  0.00     0.030 A 
HETATM   40  C   UNK N   1      34.406  16.843   7.699  0.00  0.00     0.014 A 
HETATM   41  C   UNK N   1      33.361  17.589   7.124  0.00  0.00     0.001 A 
HETATM   42  C   UNK N   1      32.037  17.448   7.600  0.00  0.00     0.002 A 
ENDBRANCH  32  33
ENDBRANCH  15  32
BRANCH   9  43
HETATM   43  C   UNK N   1      35.678  11.266  13.578  0.00  0.00     0.010 A 
HETATM   44  C   UNK N   1      34.611  11.885  14.246  0.00  0.00     0.015 A 
HETATM   45  C   UNK N   1      34.037  11.266  15.363  0.00  0.00     0.001 A 
HETATM   46  C   UNK N   1      34.536  10.043  15.823  0.00  0.00     0.000 A 
HETATM   47  C   UNK N   1      35.595   9.423  15.155  0.00  0.00     0.001 A 
HETATM   48  C   UNK N   1      36.160  10.031  14.033  0.00  0.00     0.015 A 
ENDBRANCH   9  43
TORSDOF 8
ENDMDL
MODEL 3
REMARK VINA RESULT:      -8.4      6.548     11.120
REMARK  8 active torsions:
REMARK  status: ('A' for Active; 'I' for Inactive)
REMARK    1  A    between atoms: C_2  and  N_4 
REMARK    2  A    between atoms: N_4  and  C_5 
REMARK       I    between atoms: N_4  and  C_12 
REMARK    3  A    between atoms: C_5  and  C_6 
REMARK    4  A    between atoms: C_12  and  C_14 
REMARK    5  A    between atoms: C_14  and  N_15 
REMARK    6  A    between atoms: C_23  and  C_42 
REMARK    7  A    between atoms: C_29  and  C_32 
REMARK    8  A    between atoms: C_32  and  C_33 
ROOT
HETATM    1  N   UNK N   1      34.495  13.461   8.148  0.00  0.00    -0.306 N 
HETATM    2  C   UNK N   1      34.764  14.082   9.447  0.00  0.00     0.065 A 
HETATM    3  C   UNK N   1      34.817  15.497   9.442  0.00  0.00     0.032 A 
HETATM    4  C   UNK N   1      34.978  16.283  10.567  0.00  0.00     0.002 A 
HETATM    5  C   UNK N   1      35.114  15.676  11.788  0.00  0.00     0.002 A 
HETATM    6  C   UNK N   1      35.110  14.298  11.852  0.00  0.00     0.032 A 
HETATM    7  C   UNK N   1      34.946  13.449  10.738  0.00  0.00     0.069 A 
HETATM    8  N   UNK N   1      34.962  12.024  11.017  0.00  0.00    -0.281 N 
HETATM    9  C   UNK N   1      35.155  11.426  12.239  0.00  0.00     0.139 A 
HETATM   10  N   UNK N   1      35.209  10.094  12.124  0.00  0.00    -0.283 N 
ATOM     11  HN  UNK N   1      35.352   9.425  12.882  1.00  0.00     0.188 HD
HETATM   12  N   UNK N   1      35.046   9.810  10.849  0.00  0.00    -0.286 N 
ATOM     13  HN  UNK N   1      35.018   8.877  10.441  1.00  0.00     0.188 HD
HETATM   14  C   UNK N   1      34.921  10.974  10.179  0.00  0.00     0.118 A 
HETATM   15  C   UNK N   1      34.943  10.984   8.699  0.00  0.00     0.152 C 
HETATM   16  C   UNK N   1      34.532  12.123   7.824  0.00  0.00     0.236 C 
HETATM   17  O   UNK N   1      34.279  11.800   6.669  0.00  0.00    -0.272 OA
ENDROOT
BRANCH   1  18
HETATM   18  C   UNK N   1      34.245  14.369   7.005  0.00  0.00     0.235 C 
BRANCH  18  19
HETATM   19  C   UNK N   1      32.799  14.810   6.865  0.00  0.00     0.238 C 
HETATM   20  N   UNK N   1      32.452  15.972   6.239  0.00  0.00    -0.343 N 
HETATM   21  O   UNK N   1      31.932  14.084   7.331  0.00  0.00    -0.272 OA
BRANCH  20  22
HETATM   22  C   UNK N   1      33.485  16.900   5.825  0.00  0.00     0.079 C 
HETATM   23  C   UNK N   1      33.072  17.655   4.574  0.00  0.00     0.032 C 
HETATM   24  C   UNK N   1      33.805  17.876   6.945  0.00  0.00     0.032 C 
ENDBRANCH  20  22
BRANCH  20  25
HETATM   25  C   UNK N   1      31.061  16.281   5.906  0.00  0.00     0.164 C 
BRANCH  25  26
HETATM   26  C   UNK N   1      30.291  17.058   6.931  0.00  0.00    -0.040 A 
HETATM   27  C   UNK N   1      30.769  17.221   8.237  0.00  0.00     0.009 A 
HETATM   28  C   UNK N   1      30.039  17.988   9.154  0.00  0.00     0.001 A 
HETATM   29  C   UNK N   1      28.842  18.599   8.766  0.00  0.00     0.000 A 
HETATM   30  C   UNK N   1      28.367  18.438   7.462  0.00  0.00     0.001 A 
HETATM   31  C   UNK N   1      29.091  17.669   6.547  0.00  0.00     0.009 A 
ENDBRANCH  25  26
ENDBRANCH  20  25
ENDBRANCH  18  19
ENDBRANCH   1  18
BRANCH  15  32
HETATM   32  C   UNK N   1      36.298  10.454   8.189  0.00  0.00     0.063 C 
BRANCH  32  33
HETATM   33  C   UNK N   1      37.425  11.421   8.385  0.00  0.00    -0.029 A 
HETATM   34  C   UNK N   1      38.148  11.619   9.557  0.00  0.00     0.096 A 
HETATM   35  N   UNK N   1      39.111  12.551   9.343  0.00  0.00    -0.365 N 
HETATM   36  C   UNK N   1      38.986  12.929   8.058  0.00  0.00     0.042 A 
HETATM   37  H   UNK N   1      39.768  12.884   9.997  0.00  0.00     0.165 HD
HETATM   38  C   UNK N   1      37.965  12.259   7.447  0.00  0.00    -0.002 A 
HETATM   39  C   UNK N   1      39.758  13.867   7.379  0.00  0.00     0.030 A 
HETATM   40  C   UNK N   1      37.634  12.473   6.111  0.00  0.00     0.014 A 
HETATM   41  C   UNK N   1      38.391  13.418   5.396  0.00  0.00     0.001 A 
HETATM   42  C   UNK N   1      39.450  14.111   6.027  0.00  0.00     0.002 A 
ENDBRANCH  32  33
ENDBRANCH  15  32
BRANCH   9  43
HETATM   43  C   UNK N   1      35.492  12.096  13.507  0.00  0.00     0.010 A 
HETATM   44  C   UNK N   1      36.803  12.490  13.808  0.00  0.00     0.015 A 
HETATM   45  C   UNK N   1      37.095  13.033  15.066  0.00  0.00     0.001 A 
HETATM   46  C   UNK N   1      36.085  13.168  16.024  0.00  0.00     0.000 A 
HETATM   47  C   UNK N   1      34.777  12.781  15.723  0.00  0.00     0.001 A 
HETATM   48  C   UNK N   1      34.481  12.251  14.465  0.00  0.00     0.015 A 
ENDBRANCH   9  43
TORSDOF 8
ENDMDL
MODEL 4
REMARK VINA RESULT:      -8.3      8.473     11.711
REMARK  8 active torsions:
REMARK  status: ('A' for Active; 'I' for Inactive)
REMARK    1  A    between atoms: C_2  and  N_4 
REMARK    2  A    between atoms: N_4  and  C_5 
REMARK       I    between atoms: N_4  and  C_12 
REMARK    3  A    between atoms: C_5  and  C_6 
REMARK    4  A    between atoms: C_12  and  C_14 
REMARK    5  A    between atoms: C_14  and  N_15 
REMARK    6  A    between atoms: C_23  and  C_42 
REMARK    7  A    between atoms: C_29  and  C_32 
REMARK    8  A    between atoms: C_32  and  C_33 
ROOT
HETATM    1  N   UNK N   1      35.235  11.153  11.011  0.00  0.00    -0.306 N 
HETATM    2  C   UNK N   1      35.127  12.612  11.054  0.00  0.00     0.065 A 
HETATM    3  C   UNK N   1      35.682  13.226  12.204  0.00  0.00     0.032 A 
HETATM    4  C   UNK N   1      35.759  14.590  12.408  0.00  0.00     0.002 A 
HETATM    5  C   UNK N   1      35.256  15.435  11.454  0.00  0.00     0.002 A 
HETATM    6  C   UNK N   1      34.667  14.895  10.329  0.00  0.00     0.032 A 
HETATM    7  C   UNK N   1      34.565  13.513  10.069  0.00  0.00     0.069 A 
HETATM    8  N   UNK N   1      33.916  13.147   8.822  0.00  0.00    -0.281 N 
HETATM    9  C   UNK N   1      33.365  14.003   7.898  0.00  0.00     0.139 A 
HETATM   10  N   UNK N   1      32.761  13.329   6.912  0.00  0.00    -0.283 N 
ATOM     11  HN  UNK N   1      32.272  13.734   6.113  1.00  0.00     0.188 HD
HETATM   12  N   UNK N   1      32.915  12.048   7.171  0.00  0.00    -0.286 N 
ATOM     13  HN  UNK N   1      32.583  11.276   6.595  1.00  0.00     0.188 HD
HETATM   14  C   UNK N   1      33.590  11.939   8.334  0.00  0.00     0.118 A 
HETATM   15  C   UNK N   1      33.722  10.620   8.994  0.00  0.00     0.152 C 
HETATM   16  C   UNK N   1      34.665  10.286  10.104  0.00  0.00     0.236 C 
HETATM   17  O   UNK N   1      34.871   9.086  10.242  0.00  0.00    -0.272 OA
ENDROOT
BRANCH   1  18
HETATM   18  C   UNK N   1      35.961  10.495  12.123  0.00  0.00     0.235 C 
BRANCH  18  19
HETATM   19  C   UNK N   1      35.117  10.261  13.363  0.00  0.00     0.238 C 
HETATM   20  N   UNK N   1      35.672   9.935  14.567  0.00  0.00    -0.343 N 
HETATM   21  O   UNK N   1      33.905  10.378  13.260  0.00  0.00    -0.272 OA
BRANCH  20  22
HETATM   22  C   UNK N   1      37.091   9.650  14.650  0.00  0.00     0.079 C 
HETATM   23  C   UNK N   1      37.903  10.930  14.725  0.00  0.00     0.032 C 
HETATM   24  C   UNK N   1      37.388   8.768  15.852  0.00  0.00     0.032 C 
ENDBRANCH  20  22
BRANCH  20  25
HETATM   25  C   UNK N   1      34.887   9.935  15.801  0.00  0.00     0.164 C 
BRANCH  25  26
HETATM   26  C   UNK N   1      35.026  11.146  16.674  0.00  0.00    -0.040 A 
HETATM   27  C   UNK N   1      34.896  12.440  16.157  0.00  0.00     0.009 A 
HETATM   28  C   UNK N   1      34.992  13.545  17.012  0.00  0.00     0.001 A 
HETATM   29  C   UNK N   1      35.207  13.358  18.382  0.00  0.00     0.000 A 
HETATM   30  C   UNK N   1      35.334  12.066  18.899  0.00  0.00     0.001 A 
HETATM   31  C   UNK N   1      35.243  10.963  18.046  0.00  0.00     0.009 A 
ENDBRANCH  25  26
ENDBRANCH  20  25
ENDBRANCH  18  19
ENDBRANCH   1  18
BRANCH  15  32
HETATM   32  C   UNK N   1      32.330  10.076   9.369  0.00  0.00     0.063 C 
BRANCH  32  33
HETATM   33  C   UNK N   1      31.903   8.908   8.534  0.00  0.00    -0.029 A 
HETATM   34  C   UNK N   1      32.256   8.669   7.209  0.00  0.00     0.096 A 
HETATM   35  N   UNK N   1      31.705   7.498   6.799  0.00  0.00    -0.365 N 
HETATM   36  C   UNK N   1      31.019   7.019   7.853  0.00  0.00     0.042 A 
HETATM   37  H   UNK N   1      31.791   7.082   5.910  0.00  0.00     0.165 HD
HETATM   38  C   UNK N   1      31.119   7.858   8.926  0.00  0.00    -0.002 A 
HETATM   39  C   UNK N   1      30.288   5.836   7.912  0.00  0.00     0.030 A 
HETATM   40  C   UNK N   1      30.496   7.583  10.141  0.00  0.00     0.014 A 
HETATM   41  C   UNK N   1      29.744   6.398  10.234  0.00  0.00     0.001 A 
HETATM   42  C   UNK N   1      29.641   5.527   9.124  0.00  0.00     0.002 A 
ENDBRANCH  32  33
ENDBRANCH  15  32
BRANCH   9  43
HETATM   43  C   UNK N   1      33.221  15.463   8.023  0.00  0.00     0.010 A 
HETATM   44  C   UNK N   1      32.059  16.048   8.547  0.00  0.00     0.015 A 
HETATM   45  C   UNK N   1      31.925  17.442   8.556  0.00  0.00     0.001 A 
HETATM   46  C   UNK N   1      32.938  18.249   8.028  0.00  0.00     0.000 A 
HETATM   47  C   UNK N   1      34.098  17.667   7.511  0.00  0.00     0.001 A 
HETATM   48  C   UNK N   1      34.240  16.278   7.514  0.00  0.00     0.015 A 
ENDBRANCH   9  43
TORSDOF 8
ENDMDL
MODEL 5
REMARK VINA RESULT:      -8.3      5.781      8.641
REMARK  8 active torsions:
REMARK  status: ('A' for Active; 'I' for Inactive)
REMARK    1  A    between atoms: C_2  and  N_4 
REMARK    2  A    between atoms: N_4  and  C_5 
REMARK       I    between atoms: N_4  and  C_12 
REMARK    3  A    between atoms: C_5  and  C_6 
REMARK    4  A    between atoms: C_12  and  C_14 
REMARK    5  A    between atoms: C_14  and  N_15 
REMARK    6  A    between atoms: C_23  and  C_42 
REMARK    7  A    between atoms: C_29  and  C_32 
REMARK    8  A    between atoms: C_32  and  C_33 
ROOT
HETATM    1  N   UNK N   1      20.372  13.083   4.258  0.00  0.00    -0.306 N 
HETATM    2  C   UNK N   1      20.683  14.173   3.331  0.00  0.00     0.065 A 
HETATM    3  C   UNK N   1      20.810  13.792   1.972  0.00  0.00     0.032 A 
HETATM    4  C   UNK N   1      21.021  14.670   0.926  0.00  0.00     0.002 A 
HETATM    5  C   UNK N   1      21.136  16.009   1.193  0.00  0.00     0.002 A 
HETATM    6  C   UNK N   1      21.061  16.436   2.504  0.00  0.00     0.032 A 
HETATM    7  C   UNK N   1      20.844  15.586   3.607  0.00  0.00     0.069 A 
HETATM    8  N   UNK N   1      20.789  16.232   4.907  0.00  0.00    -0.281 N 
HETATM    9  C   UNK N   1      20.962  17.571   5.169  0.00  0.00     0.139 A 
HETATM   10  N   UNK N   1      20.947  17.813   6.485  0.00  0.00    -0.283 N 
ATOM     11  HN  UNK N   1      21.061  18.722   6.935  1.00  0.00     0.188 HD
HETATM   12  N   UNK N   1      20.758  16.658   7.087  0.00  0.00    -0.286 N 
ATOM     13  HN  UNK N   1      20.679  16.512   8.092  1.00  0.00     0.188 HD
HETATM   14  C   UNK N   1      20.687  15.702   6.137  0.00  0.00     0.118 A 
HETATM   15  C   UNK N   1      20.697  14.273   6.521  0.00  0.00     0.152 C 
HETATM   16  C   UNK N   1      20.337  13.125   5.635  0.00  0.00     0.236 C 
HETATM   17  O   UNK N   1      20.058  12.095   6.238  0.00  0.00    -0.272 OA
ENDROOT
BRANCH   1  18
HETATM   18  C   UNK N   1      20.159  11.738   3.674  0.00  0.00     0.235 C 
BRANCH  18  19
HETATM   19  C   UNK N   1      21.354  10.810   3.802  0.00  0.00     0.238 C 
HETATM   20  N   UNK N   1      21.213   9.454   3.887  0.00  0.00    -0.343 N 
HETATM   21  O   UNK N   1      22.468  11.311   3.822  0.00  0.00    -0.272 OA
BRANCH  20  22
HETATM   22  C   UNK N   1      19.890   8.877   4.016  0.00  0.00     0.079 C 
HETATM   23  C   UNK N   1      19.750   7.632   3.158  0.00  0.00     0.032 C 
HETATM   24  C   UNK N   1      19.591   8.548   5.470  0.00  0.00     0.032 C 
ENDBRANCH  20  22
BRANCH  20  25
HETATM   25  C   UNK N   1      22.360   8.554   3.779  0.00  0.00     0.164 C 
BRANCH  25  26
HETATM   26  C   UNK N   1      22.939   8.060   5.072  0.00  0.00    -0.040 A 
HETATM   27  C   UNK N   1      23.480   8.941   6.015  0.00  0.00     0.009 A 
HETATM   28  C   UNK N   1      23.974   8.444   7.228  0.00  0.00     0.001 A 
HETATM   29  C   UNK N   1      23.918   7.074   7.503  0.00  0.00     0.000 A 
HETATM   30  C   UNK N   1      23.375   6.195   6.562  0.00  0.00     0.001 A 
HETATM   31  C   UNK N   1      22.886   6.688   5.349  0.00  0.00     0.009 A 
ENDBRANCH  25  26
ENDBRANCH  20  25
ENDBRANCH  18  19
ENDBRANCH   1  18
BRANCH  15  32
HETATM   32  C   UNK N   1      22.018  13.928   7.236  0.00  0.00     0.063 C 
BRANCH  32  33
HETATM   33  C   UNK N   1      21.828  13.480   8.653  0.00  0.00    -0.029 A 
HETATM   34  C   UNK N   1      20.629  13.467   9.360  0.00  0.00     0.096 A 
HETATM   35  N   UNK N   1      20.842  12.966  10.603  0.00  0.00    -0.365 N 
HETATM   36  C   UNK N   1      22.154  12.674  10.668  0.00  0.00     0.042 A 
HETATM   37  H   UNK N   1      20.172  12.841  11.314  0.00  0.00     0.165 HD
HETATM   38  C   UNK N   1      22.783  12.978   9.494  0.00  0.00    -0.002 A 
HETATM   39  C   UNK N   1      22.842  12.133  11.750  0.00  0.00     0.030 A 
HETATM   40  C   UNK N   1      24.147  12.768   9.309  0.00  0.00     0.014 A 
HETATM   41  C   UNK N   1      24.874  12.226  10.385  0.00  0.00     0.001 A 
HETATM   42  C   UNK N   1      24.224  11.908  11.600  0.00  0.00     0.002 A 
ENDBRANCH  32  33
ENDBRANCH  15  32
BRANCH   9  43
HETATM   43  C   UNK N   1      21.344  18.617   4.205  0.00  0.00     0.010 A 
HETATM   44  C   UNK N   1      22.686  18.922   3.940  0.00  0.00     0.015 A 
HETATM   45  C   UNK N   1      23.002  19.991   3.092  0.00  0.00     0.001 A 
HETATM   46  C   UNK N   1      21.983  20.763   2.524  0.00  0.00     0.000 A 
HETATM   47  C   UNK N   1      20.645  20.456   2.783  0.00  0.00     0.001 A 
HETATM   48  C   UNK N   1      20.327  19.382   3.618  0.00  0.00     0.015 A 
ENDBRANCH   9  43
TORSDOF 8
ENDMDL
MODEL 6
REMARK VINA RESULT:      -8.3      3.111      4.697
REMARK  8 active torsions:
REMARK  status: ('A' for Active; 'I' for Inactive)
REMARK    1  A    between atoms: C_2  and  N_4 
REMARK    2  A    between atoms: N_4  and  C_5 
REMARK       I    between atoms: N_4  and  C_12 
REMARK    3  A    between atoms: C_5  and  C_6 
REMARK    4  A    between atoms: C_12  and  C_14 
REMARK    5  A    between atoms: C_14  and  N_15 
REMARK    6  A    between atoms: C_23  and  C_42 
REMARK    7  A    between atoms: C_29  and  C_32 
REMARK    8  A    between atoms: C_32  and  C_33 
ROOT
HETATM    1  N   UNK N   1      26.576  14.650   2.935  0.00  0.00    -0.306 N 
HETATM    2  C   UNK N   1      27.812  14.394   3.677  0.00  0.00     0.065 A 
HETATM    3  C   UNK N   1      28.127  13.026   3.872  0.00  0.00     0.032 A 
HETATM    4  C   UNK N   1      29.282  12.563   4.473  0.00  0.00     0.002 A 
HETATM    5  C   UNK N   1      30.200  13.468   4.937  0.00  0.00     0.002 A 
HETATM    6  C   UNK N   1      29.930  14.816   4.812  0.00  0.00     0.032 A 
HETATM    7  C   UNK N   1      28.771  15.343   4.205  0.00  0.00     0.069 A 
HETATM    8  N   UNK N   1      28.677  16.792   4.164  0.00  0.00    -0.281 N 
HETATM    9  C   UNK N   1      29.579  17.690   4.684  0.00  0.00     0.139 A 
HETATM   10  N   UNK N   1      29.137  18.947   4.560  0.00  0.00    -0.283 N 
ATOM     11  HN  UNK N   1      29.617  19.792   4.873  1.00  0.00     0.188 HD
HETATM   12  N   UNK N   1      27.967  18.886   3.960  0.00  0.00    -0.286 N 
ATOM     13  HN  UNK N   1      27.382  19.681   3.704  1.00  0.00     0.188 HD
HETATM   14  C   UNK N   1      27.679  17.586   3.743  0.00  0.00     0.118 A 
HETATM   15  C   UNK N   1      26.329  17.192   3.281  0.00  0.00     0.152 C 
HETATM   16  C   UNK N   1      25.948  15.858   2.725  0.00  0.00     0.236 C 
HETATM   17  O   UNK N   1      24.908  15.865   2.076  0.00  0.00    -0.272 OA
ENDROOT
BRANCH   1  18
HETATM   18  C   UNK N   1      25.840  13.473   2.420  0.00  0.00     0.235 C 
BRANCH  18  19
HETATM   19  C   UNK N   1      24.627  13.087   3.248  0.00  0.00     0.238 C 
HETATM   20  N   UNK N   1      23.466  12.653   2.675  0.00  0.00    -0.343 N 
HETATM   21  O   UNK N   1      24.714  13.171   4.464  0.00  0.00    -0.272 OA
BRANCH  20  22
HETATM   22  C   UNK N   1      23.315  12.699   1.235  0.00  0.00     0.079 C 
HETATM   23  C   UNK N   1      22.534  11.501   0.727  0.00  0.00     0.032 C 
HETATM   24  C   UNK N   1      22.630  13.989   0.812  0.00  0.00     0.032 C 
ENDBRANCH  20  22
BRANCH  20  25
HETATM   25  C   UNK N   1      22.387  12.069   3.472  0.00  0.00     0.164 C 
BRANCH  25  26
HETATM   26  C   UNK N   1      21.320  13.015   3.936  0.00  0.00    -0.040 A 
HETATM   27  C   UNK N   1      20.181  13.269   3.164  0.00  0.00     0.009 A 
HETATM   28  C   UNK N   1      19.188  14.128   3.651  0.00  0.00     0.001 A 
HETATM   29  C   UNK N   1      19.326  14.723   4.910  0.00  0.00     0.000 A 
HETATM   30  C   UNK N   1      20.462  14.466   5.681  0.00  0.00     0.001 A 
HETATM   31  C   UNK N   1      21.457  13.613   5.196  0.00  0.00     0.009 A 
ENDBRANCH  25  26
ENDBRANCH  20  25
ENDBRANCH  18  19
ENDBRANCH   1  18
BRANCH  15  32
HETATM   32  C   UNK N   1      25.275  17.592   4.331  0.00  0.00     0.063 C 
BRANCH  32  33
HETATM   33  C   UNK N   1      24.322  18.641   3.847  0.00  0.00    -0.029 A 
HETATM   34  C   UNK N   1      24.647  19.943   3.477  0.00  0.00     0.096 A 
HETATM   35  N   UNK N   1      23.527  20.589   3.063  0.00  0.00    -0.365 N 
HETATM   36  C   UNK N   1      22.522  19.702   3.177  0.00  0.00     0.042 A 
HETATM   37  H   UNK N   1      23.464  21.519   2.743  0.00  0.00     0.165 HD
HETATM   38  C   UNK N   1      22.974  18.505   3.655  0.00  0.00    -0.002 A 
HETATM   39  C   UNK N   1      21.181  19.909   2.867  0.00  0.00     0.030 A 
HETATM   40  C   UNK N   1      22.124  17.422   3.862  0.00  0.00     0.014 A 
HETATM   41  C   UNK N   1      20.761  17.598   3.564  0.00  0.00     0.001 A 
HETATM   42  C   UNK N   1      20.291  18.836   3.067  0.00  0.00     0.002 A 
ENDBRANCH  32  33
ENDBRANCH  15  32
BRANCH   9  43
HETATM   43  C   UNK N   1      30.775  17.378   5.485  0.00  0.00     0.010 A 
HETATM   44  C   UNK N   1      30.706  17.187   6.872  0.00  0.00     0.015 A 
HETATM   45  C   UNK N   1      31.882  16.991   7.607  0.00  0.00     0.001 A 
HETATM   46  C   UNK N   1      33.123  17.002   6.962  0.00  0.00     0.000 A 
HETATM   47  C   UNK N   1      33.192  17.187   5.579  0.00  0.00     0.001 A 
HETATM   48  C   UNK N   1      32.020  17.369   4.842  0.00  0.00     0.015 A 
ENDBRANCH   9  43
TORSDOF 8
ENDMDL
MODEL 7
REMARK VINA RESULT:      -8.1      2.762      9.095
REMARK  8 active torsions:
REMARK  status: ('A' for Active; 'I' for Inactive)
REMARK    1  A    between atoms: C_2  and  N_4 
REMARK    2  A    between atoms: N_4  and  C_5 
REMARK       I    between atoms: N_4  and  C_12 
REMARK    3  A    between atoms: C_5  and  C_6 
REMARK    4  A    between atoms: C_12  and  C_14 
REMARK    5  A    between atoms: C_14  and  N_15 
REMARK    6  A    between atoms: C_23  and  C_42 
REMARK    7  A    between atoms: C_29  and  C_32 
REMARK    8  A    between atoms: C_32  and  C_33 
ROOT
HETATM    1  N   UNK N   1      25.247  13.541   5.194  0.00  0.00    -0.306 N 
HETATM    2  C   UNK N   1      24.629  13.840   3.901  0.00  0.00     0.065 A 
HETATM    3  C   UNK N   1      25.501  14.386   2.927  0.00  0.00     0.032 A 
HETATM    4  C   UNK N   1      25.145  14.665   1.621  0.00  0.00     0.002 A 
HETATM    5  C   UNK N   1      23.860  14.421   1.215  0.00  0.00     0.002 A 
HETATM    6  C   UNK N   1      22.953  13.926   2.130  0.00  0.00     0.032 A 
HETATM    7  C   UNK N   1      23.263  13.621   3.472  0.00  0.00     0.069 A 
HETATM    8  N   UNK N   1      22.169  13.101   4.274  0.00  0.00    -0.281 N 
HETATM    9  C   UNK N   1      20.869  12.913   3.870  0.00  0.00     0.139 A 
HETATM   10  N   UNK N   1      20.098  12.512   4.888  0.00  0.00    -0.283 N 
ATOM     11  HN  UNK N   1      19.098  12.312   4.849  1.00  0.00     0.188 HD
HETATM   12  N   UNK N   1      20.875  12.426   5.948  0.00  0.00    -0.286 N 
ATOM     13  HN  UNK N   1      20.587  12.126   6.879  1.00  0.00     0.188 HD
HETATM   14  C   UNK N   1      22.117  12.804   5.583  0.00  0.00     0.118 A 
HETATM   15  C   UNK N   1      23.159  13.019   6.612  0.00  0.00     0.152 C 
HETATM   16  C   UNK N   1      24.626  13.149   6.360  0.00  0.00     0.236 C 
HETATM   17  O   UNK N   1      25.323  12.951   7.349  0.00  0.00    -0.272 OA
ENDROOT
BRANCH   1  18
HETATM   18  C   UNK N   1      26.704  13.775   5.318  0.00  0.00     0.235 C 
BRANCH  18  19
HETATM   19  C   UNK N   1      27.074  15.186   5.737  0.00  0.00     0.238 C 
HETATM   20  N   UNK N   1      28.087  15.880   5.139  0.00  0.00    -0.343 N 
HETATM   21  O   UNK N   1      26.430  15.702   6.639  0.00  0.00    -0.272 OA
BRANCH  20  22
HETATM   22  C   UNK N   1      28.943  15.213   4.179  0.00  0.00     0.079 C 
HETATM   23  C   UNK N   1      29.471  16.191   3.145  0.00  0.00     0.032 C 
HETATM   24  C   UNK N   1      30.098  14.522   4.885  0.00  0.00     0.032 C 
ENDBRANCH  20  22
BRANCH  20  25
HETATM   25  C   UNK N   1      28.291  17.307   5.383  0.00  0.00     0.164 C 
BRANCH  25  26
HETATM   26  C   UNK N   1      28.935  17.670   6.688  0.00  0.00    -0.040 A 
HETATM   27  C   UNK N   1      28.233  18.359   7.684  0.00  0.00     0.009 A 
HETATM   28  C   UNK N   1      28.858  18.645   8.904  0.00  0.00     0.001 A 
HETATM   29  C   UNK N   1      30.175  18.234   9.134  0.00  0.00     0.000 A 
HETATM   30  C   UNK N   1      30.874  17.544   8.141  0.00  0.00     0.001 A 
HETATM   31  C   UNK N   1      30.255  17.263   6.920  0.00  0.00     0.009 A 
ENDBRANCH  25  26
ENDBRANCH  20  25
ENDBRANCH  18  19
ENDBRANCH   1  18
BRANCH  15  32
HETATM   32  C   UNK N   1      22.735  14.156   7.562  0.00  0.00     0.063 C 
BRANCH  32  33
HETATM   33  C   UNK N   1      22.115  13.667   8.835  0.00  0.00    -0.029 A 
HETATM   34  C   UNK N   1      20.766  13.727   9.172  0.00  0.00     0.096 A 
HETATM   35  N   UNK N   1      20.578  13.158  10.390  0.00  0.00    -0.365 N 
HETATM   36  C   UNK N   1      21.793  12.753  10.804  0.00  0.00     0.042 A 
HETATM   37  H   UNK N   1      19.725  13.060  10.872  0.00  0.00     0.165 HD
HETATM   38  C   UNK N   1      22.751  13.052   9.878  0.00  0.00    -0.002 A 
HETATM   39  C   UNK N   1      22.101  12.111  11.999  0.00  0.00     0.030 A 
HETATM   40  C   UNK N   1      24.093  12.734  10.074  0.00  0.00     0.014 A 
HETATM   41  C   UNK N   1      24.441  12.088  11.274  0.00  0.00     0.001 A 
HETATM   42  C   UNK N   1      23.449  11.777  12.232  0.00  0.00     0.002 A 
ENDBRANCH  32  33
ENDBRANCH  15  32
BRANCH   9  43
HETATM   43  C   UNK N   1      20.282  13.296   2.575  0.00  0.00     0.010 A 
HETATM   44  C   UNK N   1      19.912  14.619   2.294  0.00  0.00     0.015 A 
HETATM   45  C   UNK N   1      19.267  14.921   1.089  0.00  0.00     0.001 A 
HETATM   46  C   UNK N   1      18.977  13.903   0.174  0.00  0.00     0.000 A 
HETATM   47  C   UNK N   1      19.350  12.585   0.450  0.00  0.00     0.001 A 
HETATM   48  C   UNK N   1      20.005  12.285   1.645  0.00  0.00     0.015 A 
ENDBRANCH   9  43
TORSDOF 8
ENDMDL
MODEL 8
REMARK VINA RESULT:      -8.1      2.681      9.307
REMARK  8 active torsions:
REMARK  status: ('A' for Active; 'I' for Inactive)
REMARK    1  A    between atoms: C_2  and  N_4 
REMARK    2  A    between atoms: N_4  and  C_5 
REMARK       I    between atoms: N_4  and  C_12 
REMARK    3  A    between atoms: C_5  and  C_6 
REMARK    4  A    between atoms: C_12  and  C_14 
REMARK    5  A    between atoms: C_14  and  N_15 
REMARK    6  A    between atoms: C_23  and  C_42 
REMARK    7  A    between atoms: C_29  and  C_32 
REMARK    8  A    between atoms: C_32  and  C_33 
ROOT
HETATM    1  N   UNK N   1      25.283  13.746   5.387  0.00  0.00    -0.306 N 
HETATM    2  C   UNK N   1      24.654  13.955   4.081  0.00  0.00     0.065 A 
HETATM    3  C   UNK N   1      25.476  14.574   3.107  0.00  0.00     0.032 A 
HETATM    4  C   UNK N   1      25.111  14.791   1.792  0.00  0.00     0.002 A 
HETATM    5  C   UNK N   1      23.863  14.406   1.376  0.00  0.00     0.002 A 
HETATM    6  C   UNK N   1      23.002  13.833   2.290  0.00  0.00     0.032 A 
HETATM    7  C   UNK N   1      23.325  13.585   3.640  0.00  0.00     0.069 A 
HETATM    8  N   UNK N   1      22.282  12.966   4.439  0.00  0.00    -0.281 N 
HETATM    9  C   UNK N   1      21.014  12.634   4.024  0.00  0.00     0.139 A 
HETATM   10  N   UNK N   1      20.277  12.171   5.041  0.00  0.00    -0.283 N 
ATOM     11  HN  UNK N   1      19.304  11.866   4.994  1.00  0.00     0.188 HD
HETATM   12  N   UNK N   1      21.043  12.186   6.110  0.00  0.00    -0.286 N 
ATOM     13  HN  UNK N   1      20.777  11.873   7.043  1.00  0.00     0.188 HD
HETATM   14  C   UNK N   1      22.244  12.687   5.753  0.00  0.00     0.118 A 
HETATM   15  C   UNK N   1      23.243  13.030   6.790  0.00  0.00     0.152 C 
HETATM   16  C   UNK N   1      24.692  13.310   6.552  0.00  0.00     0.236 C 
HETATM   17  O   UNK N   1      25.392  13.203   7.552  0.00  0.00    -0.272 OA
ENDROOT
BRANCH   1  18
HETATM   18  C   UNK N   1      26.705  14.135   5.523  0.00  0.00     0.235 C 
BRANCH  18  19
HETATM   19  C   UNK N   1      26.918  15.580   5.938  0.00  0.00     0.238 C 
HETATM   20  N   UNK N   1      27.870  16.369   5.359  0.00  0.00    -0.343 N 
HETATM   21  O   UNK N   1      26.199  16.034   6.817  0.00  0.00    -0.272 OA
BRANCH  20  22
HETATM   22  C   UNK N   1      28.816  15.786   4.429  0.00  0.00     0.079 C 
HETATM   23  C   UNK N   1      28.676  16.401   3.049  0.00  0.00     0.032 C 
HETATM   24  C   UNK N   1      30.238  15.958   4.938  0.00  0.00     0.032 C 
ENDBRANCH  20  22
BRANCH  20  25
HETATM   25  C   UNK N   1      27.921  17.811   5.595  0.00  0.00     0.164 C 
BRANCH  25  26
HETATM   26  C   UNK N   1      27.050  18.657   4.715  0.00  0.00    -0.040 A 
HETATM   27  C   UNK N   1      27.514  19.856   4.161  0.00  0.00     0.009 A 
HETATM   28  C   UNK N   1      26.684  20.598   3.311  0.00  0.00     0.001 A 
HETATM   29  C   UNK N   1      25.398  20.138   3.006  0.00  0.00     0.000 A 
HETATM   30  C   UNK N   1      24.936  18.941   3.557  0.00  0.00     0.001 A 
HETATM   31  C   UNK N   1      25.761  18.202   4.409  0.00  0.00     0.009 A 
ENDBRANCH  25  26
ENDBRANCH  20  25
ENDBRANCH  18  19
ENDBRANCH   1  18
BRANCH  15  32
HETATM   32  C   UNK N   1      22.688  14.131   7.714  0.00  0.00     0.063 C 
BRANCH  32  33
HETATM   33  C   UNK N   1      22.082  13.599   8.976  0.00  0.00    -0.029 A 
HETATM   34  C   UNK N   1      20.731  13.600   9.307  0.00  0.00     0.096 A 
HETATM   35  N   UNK N   1      20.560  13.006  10.515  0.00  0.00    -0.365 N 
HETATM   36  C   UNK N   1      21.788  12.643  10.929  0.00  0.00     0.042 A 
HETATM   37  H   UNK N   1      19.709  12.867  10.992  0.00  0.00     0.165 HD
HETATM   38  C   UNK N   1      22.738  12.993  10.013  0.00  0.00    -0.002 A 
HETATM   39  C   UNK N   1      22.116  11.995  12.116  0.00  0.00     0.030 A 
HETATM   40  C   UNK N   1      24.090  12.725  10.210  0.00  0.00     0.014 A 
HETATM   41  C   UNK N   1      24.459  12.076  11.402  0.00  0.00     0.001 A 
HETATM   42  C   UNK N   1      23.475  11.711  12.351  0.00  0.00     0.002 A 
ENDBRANCH  32  33
ENDBRANCH  15  32
BRANCH   9  43
HETATM   43  C   UNK N   1      20.407  12.931   2.716  0.00  0.00     0.010 A 
HETATM   44  C   UNK N   1      19.801  14.166   2.445  0.00  0.00     0.015 A 
HETATM   45  C   UNK N   1      19.149  14.369   1.222  0.00  0.00     0.001 A 
HETATM   46  C   UNK N   1      19.089  13.337   0.280  0.00  0.00     0.000 A 
HETATM   47  C   UNK N   1      19.697  12.108   0.545  0.00  0.00     0.001 A 
HETATM   48  C   UNK N   1      20.359  11.908   1.758  0.00  0.00     0.015 A 
ENDBRANCH   9  43
TORSDOF 8
ENDMDL
MODEL 9
REMARK VINA RESULT:      -8.1      2.670      5.096
REMARK  8 active torsions:
REMARK  status: ('A' for Active; 'I' for Inactive)
REMARK    1  A    between atoms: C_2  and  N_4 
REMARK    2  A    between atoms: N_4  and  C_5 
REMARK       I    between atoms: N_4  and  C_12 
REMARK    3  A    between atoms: C_5  and  C_6 
REMARK    4  A    between atoms: C_12  and  C_14 
REMARK    5  A    between atoms: C_14  and  N_15 
REMARK    6  A    between atoms: C_23  and  C_42 
REMARK    7  A    between atoms: C_29  and  C_32 
REMARK    8  A    between atoms: C_32  and  C_33 
ROOT
HETATM    1  N   UNK N   1      24.861  17.591   4.239  0.00  0.00    -0.306 N 
HETATM    2  C   UNK N   1      25.971  18.294   4.886  0.00  0.00     0.065 A 
HETATM    3  C   UNK N   1      25.790  19.690   5.046  0.00  0.00     0.032 A 
HETATM    4  C   UNK N   1      26.674  20.528   5.700  0.00  0.00     0.002 A 
HETATM    5  C   UNK N   1      27.824  20.001   6.227  0.00  0.00     0.002 A 
HETATM    6  C   UNK N   1      28.074  18.653   6.067  0.00  0.00     0.032 A 
HETATM    7  C   UNK N   1      27.207  17.754   5.414  0.00  0.00     0.069 A 
HETATM    8  N   UNK N   1      27.649  16.371   5.358  0.00  0.00    -0.281 N 
HETATM    9  C   UNK N   1      28.831  15.864   5.843  0.00  0.00     0.139 A 
HETATM   10  N   UNK N   1      28.965  14.568   5.537  0.00  0.00    -0.283 N 
ATOM     11  HN  UNK N   1      29.754  13.968   5.776  1.00  0.00     0.188 HD
HETATM   12  N   UNK N   1      27.886  14.217   4.870  0.00  0.00    -0.286 N 
ATOM     13  HN  UNK N   1      27.678  13.285   4.514  1.00  0.00     0.188 HD
HETATM   14  C   UNK N   1      27.104  15.309   4.741  0.00  0.00     0.118 A 
HETATM   15  C   UNK N   1      25.924  15.276   3.848  0.00  0.00     0.152 C 
HETATM   16  C   UNK N   1      24.817  16.279   3.822  0.00  0.00     0.236 C 
HETATM   17  O   UNK N   1      23.788  15.874   3.291  0.00  0.00    -0.272 OA
ENDROOT
BRANCH   1  18
HETATM   18  C   UNK N   1      23.664  18.392   3.891  0.00  0.00     0.235 C 
BRANCH  18  19
HETATM   19  C   UNK N   1      22.494  18.203   4.840  0.00  0.00     0.238 C 
HETATM   20  N   UNK N   1      21.267  17.790   4.405  0.00  0.00    -0.343 N 
HETATM   21  O   UNK N   1      22.678  18.429   6.027  0.00  0.00    -0.272 OA
BRANCH  20  22
HETATM   22  C   UNK N   1      21.012  17.670   2.984  0.00  0.00     0.079 C 
HETATM   23  C   UNK N   1      20.365  16.337   2.655  0.00  0.00     0.032 C 
HETATM   24  C   UNK N   1      20.134  18.813   2.502  0.00  0.00     0.032 C 
ENDBRANCH  20  22
BRANCH  20  25
HETATM   25  C   UNK N   1      20.215  17.391   5.340  0.00  0.00     0.164 C 
BRANCH  25  26
HETATM   26  C   UNK N   1      20.590  16.355   6.357  0.00  0.00    -0.040 A 
HETATM   27  C   UNK N   1      21.246  15.175   5.991  0.00  0.00     0.009 A 
HETATM   28  C   UNK N   1      21.616  14.249   6.975  0.00  0.00     0.001 A 
HETATM   29  C   UNK N   1      21.340  14.508   8.323  0.00  0.00     0.000 A 
HETATM   30  C   UNK N   1      20.687  15.687   8.688  0.00  0.00     0.001 A 
HETATM   31  C   UNK N   1      20.313  16.609   7.706  0.00  0.00     0.009 A 
ENDBRANCH  25  26
ENDBRANCH  20  25
ENDBRANCH  18  19
ENDBRANCH   1  18
BRANCH  15  32
HETATM   32  C   UNK N   1      26.370  15.018   2.396  0.00  0.00     0.063 C 
BRANCH  32  33
HETATM   33  C   UNK N   1      26.115  13.615   1.937  0.00  0.00    -0.029 A 
HETATM   34  C   UNK N   1      26.931  12.511   2.165  0.00  0.00     0.096 A 
HETATM   35  N   UNK N   1      26.358  11.405   1.626  0.00  0.00    -0.365 N 
HETATM   36  C   UNK N   1      25.205  11.816   1.069  0.00  0.00     0.042 A 
HETATM   37  H   UNK N   1      26.715  10.487   1.640  0.00  0.00     0.165 HD
HETATM   38  C   UNK N   1      25.029  13.160   1.240  0.00  0.00    -0.002 A 
HETATM   39  C   UNK N   1      24.271  11.034   0.397  0.00  0.00     0.030 A 
HETATM   40  C   UNK N   1      23.908  13.827   0.753  0.00  0.00     0.014 A 
HETATM   41  C   UNK N   1      22.946  13.067   0.064  0.00  0.00     0.001 A 
HETATM   42  C   UNK N   1      23.126  11.676  -0.112  0.00  0.00     0.002 A 
ENDBRANCH  32  33
ENDBRANCH  15  32
BRANCH   9  43
HETATM   43  C   UNK N   1      29.947  16.629   6.424  0.00  0.00     0.010 A 
HETATM   44  C   UNK N   1      31.106  16.919   5.690  0.00  0.00     0.015 A 
HETATM   45  C   UNK N   1      32.182  17.563   6.314  0.00  0.00     0.001 A 
HETATM   46  C   UNK N   1      32.109  17.900   7.669  0.00  0.00     0.000 A 
HETATM   47  C   UNK N   1      30.953  17.616   8.400  0.00  0.00     0.001 A 
HETATM   48  C   UNK N   1      29.874  16.987   7.777  0.00  0.00     0.015 A 
ENDBRANCH   9  43
TORSDOF 8
ENDMDL
