REMARK  8 active torsions:
REMARK  status: ('A' for Active; 'I' for Inactive)
REMARK    1  A    between atoms: C_5  and  C_7 
REMARK    2  A    between atoms: C_7  and  C_9 
REMARK    3  A    between atoms: C_15  and  C_16 
REMARK    4  A    between atoms: C_17  and  C_37 
REMARK    5  A    between atoms: N_18  and  C_22 
REMARK    6  A    between atoms: C_22  and  C_23 
REMARK    7  A    between atoms: C_25  and  C_33 
REMARK    8  A    between atoms: C_27  and  C_29 
ROOT
HETATM    1  C   UNK N   1       0.858  -0.511  -0.871  0.00  0.00     0.102 A 
HETATM    2  C   UNK N   1       1.912  -1.401  -0.902  0.00  0.00     0.089 A 
HETATM    3  N   UNK N   1       1.411  -2.551  -1.372  0.00  0.00    -0.268 N 
HETATM    4  N   UNK N   1       0.124  -2.383  -1.630  0.00  0.00    -0.019 NA
HETATM    5  N   UNK N   1      -0.244  -1.147  -1.318  0.00  0.00    -0.280 N 
ATOM      6  HN  UNK N   1      -1.182  -0.753  -1.400  1.00  0.00     0.184 HD
ENDROOT
BRANCH   1   7
HETATM    7  C   UNK N   1       0.900   0.869  -0.374  0.00  0.00     0.076 A 
HETATM    8  N   UNK N   1       1.947   1.664  -0.723  0.00  0.00    -0.363 N 
HETATM    9  C   UNK N   1       2.078   2.929  -0.251  0.00  0.00     0.088 A 
ATOM     10  HN  UNK N   1       2.655   1.298  -1.360  1.00  0.00     0.165 HD
HETATM   11  C   UNK N   1       1.136   3.440   0.637  0.00  0.00     0.018 A 
HETATM   12  C   UNK N   1       0.044   2.653   1.007  0.00  0.00     0.019 A 
HETATM   13  C   UNK N   1      -0.097   1.364   0.483  0.00  0.00     0.044 A 
BRANCH  13  14
HETATM   14  C   UNK N   1      -1.214   0.506   0.917  0.00  0.00     0.196 C 
HETATM   15  O   UNK N   1      -0.949  -0.472   1.605  0.00  0.00    -0.286 OA
BRANCH  14  16
HETATM   16  C   UNK N   1      -2.612   0.680   0.417  0.00  0.00     0.037 A 
HETATM   17  C   UNK N   1      -3.035   1.695  -0.495  0.00  0.00     0.048 A 
HETATM   18  C   UNK N   1      -4.361   1.717  -0.932  0.00  0.00     0.025 A 
HETATM   19 Cl   UNK N   1      -1.998   2.943  -1.170  0.00  0.00    -0.083 Cl
HETATM   20  C   UNK N   1      -5.276   0.762  -0.499  0.00  0.00     0.002 A 
HETATM   21  C   UNK N   1      -4.874  -0.235   0.384  0.00  0.00     0.001 A 
HETATM   22  C   UNK N   1      -3.557  -0.274   0.836  0.00  0.00     0.017 A 
ENDBRANCH  14  16
ENDBRANCH  13  14
ENDBRANCH   1   7
BRANCH   2  23
HETATM   23  C   UNK N   1       3.298  -1.213  -0.402  0.00  0.00    -0.003 A 
HETATM   24  C   UNK N   1       3.610  -0.152   0.454  0.00  0.00     0.031 A 
HETATM   25  C   UNK N   1       4.901  -0.008   0.949  0.00  0.00     0.088 A 
HETATM   26  N   UNK N   1       5.864  -0.902   0.604  0.00  0.00    -0.375 N 
HETATM   27  C   UNK N   1       5.593  -1.950  -0.219  0.00  0.00     0.088 A 
ATOM     28  HN  UNK N   1       6.809  -0.784   0.969  1.00  0.00     0.164 HD
HETATM   29  C   UNK N   1       4.307  -2.125  -0.727  0.00  0.00     0.031 A 
ENDBRANCH   2  23
BRANCH   3  30
HETATM   30  C   UNK N   1       2.116  -3.821  -1.450  0.00  0.00     0.185 C 
BRANCH  30  31
HETATM   31  C   UNK N   1       1.524  -4.831  -0.526  0.00  0.00    -0.037 A 
HETATM   32  C   UNK N   1       2.278  -5.942  -0.176  0.00  0.00     0.025 A 
HETATM   33  C   UNK N   1       1.675  -7.038   0.444  0.00  0.00     0.049 A 
HETATM   34  C   UNK N   1       0.288  -7.014   0.710  0.00  0.00     0.032 A 
HETATM   35  C   UNK N   1      -0.470  -5.879   0.368  0.00  0.00     0.049 A 
HETATM   36  C   UNK N   1       0.159  -4.813  -0.258  0.00  0.00     0.025 A 
BRANCH  33  37
HETATM   37  C   UNK N   1       2.498  -8.279   0.615  0.00  0.00     0.417 C 
HETATM   38  F   UNK N   1       3.122  -8.553  -0.592  0.00  0.00    -0.166 F 
HETATM   39  F   UNK N   1       1.709  -9.363   0.952  0.00  0.00    -0.166 F 
HETATM   40  F   UNK N   1       3.467  -8.092   1.583  0.00  0.00    -0.166 F 
ENDBRANCH  33  37
BRANCH  35  41
HETATM   41  C   UNK N   1      -1.967  -5.851   0.492  0.00  0.00     0.417 C 
HETATM   42  F   UNK N   1      -2.365  -5.957   1.810  0.00  0.00    -0.166 F 
HETATM   43  F   UNK N   1      -2.480  -4.672  -0.033  0.00  0.00    -0.166 F 
HETATM   44  F   UNK N   1      -2.487  -6.905  -0.235  0.00  0.00    -0.166 F 
ENDBRANCH  35  41
ENDBRANCH  30  31
ENDBRANCH   3  30
TORSDOF 8
