MODEL 1
REMARK VINA RESULT:      -8.0      0.000      0.000
REMARK  5 active torsions:
REMARK  status: ('A' for Active; 'I' for Inactive)
REMARK    1  A    between atoms: C_4  and  C_8 
REMARK    2  A    between atoms: C_13  and  N_17 
REMARK       I    between atoms: N_17  and  C_18 
REMARK    3  A    between atoms: C_18  and  C_20 
REMARK    4  A    between atoms: C_20  and  C_21 
REMARK    5  A    between atoms: C_20  and  N_27 
ROOT
HETATM    1  C   UNK N   1      29.516  15.664   4.902  0.00  0.00     0.058 A 
HETATM    2  C   UNK N   1      28.937  16.178   6.066  0.00  0.00     0.022 A 
HETATM    3  C   UNK N   1      29.948  16.780   6.762  0.00  0.00     0.020 A 
HETATM    4  C   UNK N   1      29.963  17.502   7.958  0.00  0.00     0.049 A 
HETATM    5  C   UNK N   1      31.210  18.058   8.346  0.00  0.00     0.047 A 
HETATM    6  C   UNK N   1      32.383  17.856   7.588  0.00  0.00     0.037 A 
HETATM    7  C   UNK N   1      32.327  17.105   6.405  0.00  0.00     0.060 A 
HETATM    8  C   UNK N   1      31.096  16.588   6.023  0.00  0.00     0.047 A 
HETATM    9  N   UNK N   1      30.845  15.909   4.892  0.00  0.00    -0.354 N 
HETATM   10  C   UNK N   1      28.837  17.736   8.772  0.00  0.00     0.271 A 
HETATM   11  O   UNK N   1      29.000  18.384   9.793  0.00  0.00    -0.266 OA
HETATM   12  N   UNK N   1      27.558  17.297   8.515  0.00  0.00    -0.266 N 
HETATM   13  N   UNK N   1      27.024  16.605   7.509  0.00  0.00    -0.308 N 
ATOM     14  HN  UNK N   1      26.023  16.427   7.593  1.00  0.00     0.186 HD
HETATM   15  C   UNK N   1      27.602  16.103   6.394  0.00  0.00     0.121 A 
HETATM   16  H   UNK N   1      31.495  15.644   4.200  0.00  0.00     0.166 HD
HETATM   17  H   UNK N   1      26.910  17.542   9.214  0.00  0.00     0.190 HD
ENDROOT
BRANCH   6  18
HETATM   18  N   UNK N   1      33.567  18.557   7.929  0.00  0.00    -0.325 N 
HETATM   19  C   UNK N   1      34.544  18.077   8.738  0.00  0.00     0.244 C 
HETATM   20  O   UNK N   1      35.566  18.731   8.881  0.00  0.00    -0.271 OA
HETATM   21  H   UNK N   1      33.689  19.458   7.550  0.00  0.00     0.169 HD
BRANCH  19  22
HETATM   22  C   UNK N   1      34.339  16.830   9.563  0.00  0.00     0.171 C 
BRANCH  22  23
HETATM   23  C   UNK N   1      34.744  15.520   8.878  0.00  0.00     0.017 C 
HETATM   24  C   UNK N   1      33.610  14.491   8.791  0.00  0.00     0.007 C 
HETATM   25  C   UNK N   1      34.013  13.241   7.994  0.00  0.00     0.000 C 
HETATM   26  C   UNK N   1      35.494  13.220   7.604  0.00  0.00     0.000 C 
HETATM   27  C   UNK N   1      36.378  13.562   8.806  0.00  0.00     0.000 C 
HETATM   28  C   UNK N   1      36.005  14.896   9.476  0.00  0.00     0.007 C 
ENDBRANCH  22  23
BRANCH  22  29
HETATM   29  N   UNK N   1      35.065  16.965  10.815  0.00  0.00    -0.418 N 
HETATM   30  H   UNK N   1      35.954  17.414  11.037  0.00  0.00     0.150 HD
HETATM   31  H   UNK N   1      34.603  16.534  11.615  0.00  0.00     0.150 HD
ENDBRANCH  22  29
ENDBRANCH  19  22
ENDBRANCH   6  18
BRANCH   1  32
HETATM   32  C   UNK N   1      28.829  15.018   3.769  0.00  0.00     0.025 A 
HETATM   33  C   UNK N   1      28.488  13.686   3.635  0.00  0.00     0.124 A 
HETATM   34  N   UNK N   1      27.798  13.572   2.489  0.00  0.00    -0.307 N 
HETATM   35  C   UNK N   1      27.219  12.348   1.968  0.00  0.00     0.177 C 
HETATM   36  N   UNK N   1      27.686  14.750   1.899  0.00  0.00    -0.310 N 
HETATM   37  C   UNK N   1      28.308  15.668   2.664  0.00  0.00     0.122 A 
ATOM     38  HN  UNK N   1      27.209  14.933   1.016  1.00  0.00     0.186 HD
ENDBRANCH   1  32
TORSDOF 5
ENDMDL
MODEL 2
REMARK VINA RESULT:      -7.9     12.489     15.905
REMARK  5 active torsions:
REMARK  status: ('A' for Active; 'I' for Inactive)
REMARK    1  A    between atoms: C_4  and  C_8 
REMARK    2  A    between atoms: C_13  and  N_17 
REMARK       I    between atoms: N_17  and  C_18 
REMARK    3  A    between atoms: C_18  and  C_20 
REMARK    4  A    between atoms: C_20  and  C_21 
REMARK    5  A    between atoms: C_20  and  N_27 
ROOT
HETATM    1  C   UNK N   1      29.807  21.006  -6.709  0.00  0.00     0.058 A 
HETATM    2  C   UNK N   1      30.378  21.183  -5.445  0.00  0.00     0.022 A 
HETATM    3  C   UNK N   1      29.684  22.199  -4.852  0.00  0.00     0.020 A 
HETATM    4  C   UNK N   1      29.766  22.774  -3.581  0.00  0.00     0.049 A 
HETATM    5  C   UNK N   1      28.811  23.781  -3.279  0.00  0.00     0.047 A 
HETATM    6  C   UNK N   1      27.858  24.211  -4.227  0.00  0.00     0.037 A 
HETATM    7  C   UNK N   1      27.826  23.622  -5.498  0.00  0.00     0.060 A 
HETATM    8  C   UNK N   1      28.748  22.621  -5.772  0.00  0.00     0.047 A 
HETATM    9  N   UNK N   1      28.817  21.904  -6.906  0.00  0.00    -0.354 N 
HETATM   10  C   UNK N   1      30.695  22.406  -2.588  0.00  0.00     0.271 A 
HETATM   11  O   UNK N   1      30.651  22.998  -1.521  0.00  0.00    -0.266 OA
HETATM   12  N   UNK N   1      31.655  21.428  -2.714  0.00  0.00    -0.266 N 
HETATM   13  N   UNK N   1      31.966  20.587  -3.699  0.00  0.00    -0.308 N 
ATOM     14  HN  UNK N   1      32.743  19.957  -3.500  1.00  0.00     0.186 HD
HETATM   15  C   UNK N   1      31.411  20.437  -4.925  0.00  0.00     0.121 A 
HETATM   16  H   UNK N   1      28.261  22.010  -7.712  0.00  0.00     0.166 HD
HETATM   17  H   UNK N   1      32.226  21.332  -1.918  0.00  0.00     0.190 HD
ENDROOT
BRANCH   6  18
HETATM   18  N   UNK N   1      26.831  25.103  -3.830  0.00  0.00    -0.325 N 
HETATM   19  C   UNK N   1      26.910  26.456  -3.900  0.00  0.00     0.244 C 
HETATM   20  O   UNK N   1      25.924  27.120  -3.624  0.00  0.00    -0.271 OA
HETATM   21  H   UNK N   1      25.997  24.713  -3.480  0.00  0.00     0.169 HD
BRANCH  19  22
HETATM   22  C   UNK N   1      28.221  27.150  -4.179  0.00  0.00     0.171 C 
BRANCH  22  23
HETATM   23  C   UNK N   1      28.419  27.618  -5.626  0.00  0.00     0.017 C 
HETATM   24  C   UNK N   1      28.458  29.143  -5.782  0.00  0.00     0.007 C 
HETATM   25  C   UNK N   1      28.780  29.576  -7.221  0.00  0.00     0.000 C 
HETATM   26  C   UNK N   1      28.828  28.407  -8.211  0.00  0.00     0.000 C 
HETATM   27  C   UNK N   1      27.607  27.500  -8.040  0.00  0.00     0.000 C 
HETATM   28  C   UNK N   1      27.421  26.993  -6.600  0.00  0.00     0.007 C 
ENDBRANCH  22  23
BRANCH  22  29
HETATM   29  N   UNK N   1      28.354  28.288  -3.282  0.00  0.00    -0.418 N 
HETATM   30  H   UNK N   1      28.825  29.186  -3.395  0.00  0.00     0.150 HD
HETATM   31  H   UNK N   1      27.894  28.166  -2.381  0.00  0.00     0.150 HD
ENDBRANCH  22  29
ENDBRANCH  19  22
ENDBRANCH   6  18
BRANCH   1  32
HETATM   32  C   UNK N   1      30.128  19.961  -7.699  0.00  0.00     0.025 A 
HETATM   33  C   UNK N   1      31.188  19.930  -8.583  0.00  0.00     0.124 A 
HETATM   34  N   UNK N   1      31.130  18.751  -9.222  0.00  0.00    -0.307 N 
HETATM   35  C   UNK N   1      32.072  18.283 -10.221  0.00  0.00     0.177 C 
HETATM   36  N   UNK N   1      30.101  18.042  -8.791  0.00  0.00    -0.310 N 
HETATM   37  C   UNK N   1      29.460  18.758  -7.846  0.00  0.00     0.122 A 
ATOM     38  HN  UNK N   1      29.836  17.113  -9.117  1.00  0.00     0.186 HD
ENDBRANCH   1  32
TORSDOF 5
ENDMDL
MODEL 3
REMARK VINA RESULT:      -7.8      5.941     11.109
REMARK  5 active torsions:
REMARK  status: ('A' for Active; 'I' for Inactive)
REMARK    1  A    between atoms: C_4  and  C_8 
REMARK    2  A    between atoms: C_13  and  N_17 
REMARK       I    between atoms: N_17  and  C_18 
REMARK    3  A    between atoms: C_18  and  C_20 
REMARK    4  A    between atoms: C_20  and  C_21 
REMARK    5  A    between atoms: C_20  and  N_27 
ROOT
HETATM    1  C   UNK N   1      26.644  17.470   5.395  0.00  0.00     0.058 A 
HETATM    2  C   UNK N   1      26.244  18.521   4.565  0.00  0.00     0.022 A 
HETATM    3  C   UNK N   1      24.891  18.393   4.414  0.00  0.00     0.020 A 
HETATM    4  C   UNK N   1      23.944  19.174   3.746  0.00  0.00     0.049 A 
HETATM    5  C   UNK N   1      22.589  18.770   3.870  0.00  0.00     0.047 A 
HETATM    6  C   UNK N   1      22.221  17.615   4.593  0.00  0.00     0.037 A 
HETATM    7  C   UNK N   1      23.206  16.848   5.229  0.00  0.00     0.060 A 
HETATM    8  C   UNK N   1      24.526  17.268   5.121  0.00  0.00     0.047 A 
HETATM    9  N   UNK N   1      25.584  16.697   5.719  0.00  0.00    -0.354 N 
HETATM   10  C   UNK N   1      24.237  20.332   2.998  0.00  0.00     0.271 A 
HETATM   11  O   UNK N   1      23.306  20.914   2.466  0.00  0.00    -0.266 OA
HETATM   12  N   UNK N   1      25.491  20.870   2.814  0.00  0.00    -0.266 N 
HETATM   13  N   UNK N   1      26.699  20.523   3.257  0.00  0.00    -0.308 N 
ATOM     14  HN  UNK N   1      27.460  21.128   2.950  1.00  0.00     0.186 HD
HETATM   15  C   UNK N   1      27.072  19.493   4.051  0.00  0.00     0.121 A 
HETATM   16  H   UNK N   1      25.587  15.886   6.278  0.00  0.00     0.166 HD
HETATM   17  H   UNK N   1      25.495  21.670   2.240  0.00  0.00     0.190 HD
ENDROOT
BRANCH   6  18
HETATM   18  N   UNK N   1      20.849  17.340   4.820  0.00  0.00    -0.325 N 
HETATM   19  C   UNK N   1      20.005  16.806   3.903  0.00  0.00     0.244 C 
HETATM   20  O   UNK N   1      18.868  16.520   4.244  0.00  0.00    -0.271 OA
HETATM   21  H   UNK N   1      20.482  17.551   5.710  0.00  0.00     0.169 HD
BRANCH  19  22
HETATM   22  C   UNK N   1      20.398  16.686   2.451  0.00  0.00     0.171 C 
BRANCH  22  23
HETATM   23  C   UNK N   1      20.505  15.252   1.918  0.00  0.00     0.017 C 
HETATM   24  C   UNK N   1      21.852  14.938   1.256  0.00  0.00     0.007 C 
HETATM   25  C   UNK N   1      21.972  13.462   0.845  0.00  0.00     0.000 C 
HETATM   26  C   UNK N   1      20.674  12.671   1.032  0.00  0.00     0.000 C 
HETATM   27  C   UNK N   1      19.482  13.436   0.449  0.00  0.00     0.000 C 
HETATM   28  C   UNK N   1      19.342  14.862   1.007  0.00  0.00     0.007 C 
ENDBRANCH  22  23
BRANCH  22  29
HETATM   29  N   UNK N   1      19.450  17.432   1.639  0.00  0.00    -0.418 N 
HETATM   30  H   UNK N   1      18.703  17.124   1.016  0.00  0.00     0.150 HD
HETATM   31  H   UNK N   1      19.548  18.444   1.706  0.00  0.00     0.150 HD
ENDBRANCH  22  29
ENDBRANCH  19  22
ENDBRANCH   6  18
BRANCH   1  32
HETATM   32  C   UNK N   1      27.990  17.227   5.947  0.00  0.00     0.025 A 
HETATM   33  C   UNK N   1      28.513  17.693   7.136  0.00  0.00     0.124 A 
HETATM   34  N   UNK N   1      29.733  17.148   7.269  0.00  0.00    -0.307 N 
HETATM   35  C   UNK N   1      30.630  17.342   8.392  0.00  0.00     0.177 C 
HETATM   36  N   UNK N   1      30.004  16.368   6.236  0.00  0.00    -0.310 N 
HETATM   37  C   UNK N   1      28.947  16.391   5.399  0.00  0.00     0.122 A 
ATOM     38  HN  UNK N   1      30.865  15.840   6.095  1.00  0.00     0.186 HD
ENDBRANCH   1  32
TORSDOF 5
ENDMDL
MODEL 4
REMARK VINA RESULT:      -7.6      2.285      3.716
REMARK  5 active torsions:
REMARK  status: ('A' for Active; 'I' for Inactive)
REMARK    1  A    between atoms: C_4  and  C_8 
REMARK    2  A    between atoms: C_13  and  N_17 
REMARK       I    between atoms: N_17  and  C_18 
REMARK    3  A    between atoms: C_18  and  C_20 
REMARK    4  A    between atoms: C_20  and  C_21 
REMARK    5  A    between atoms: C_20  and  N_27 
ROOT
HETATM    1  C   UNK N   1      28.455  17.011   6.332  0.00  0.00     0.058 A 
HETATM    2  C   UNK N   1      29.420  17.005   5.320  0.00  0.00     0.022 A 
HETATM    3  C   UNK N   1      30.613  17.280   5.929  0.00  0.00     0.020 A 
HETATM    4  C   UNK N   1      31.920  17.352   5.440  0.00  0.00     0.049 A 
HETATM    5  C   UNK N   1      32.941  17.591   6.397  0.00  0.00     0.047 A 
HETATM    6  C   UNK N   1      32.648  17.789   7.764  0.00  0.00     0.037 A 
HETATM    7  C   UNK N   1      31.319  17.731   8.207  0.00  0.00     0.060 A 
HETATM    8  C   UNK N   1      30.332  17.472   7.265  0.00  0.00     0.047 A 
HETATM    9  N   UNK N   1      29.023  17.313   7.521  0.00  0.00    -0.354 N 
HETATM   10  C   UNK N   1      32.287  17.175   4.091  0.00  0.00     0.271 A 
HETATM   11  O   UNK N   1      33.471  17.268   3.809  0.00  0.00    -0.266 OA
HETATM   12  N   UNK N   1      31.423  16.903   3.056  0.00  0.00    -0.266 N 
HETATM   13  N   UNK N   1      30.105  16.713   3.003  0.00  0.00    -0.308 N 
ATOM     14  HN  UNK N   1      29.734  16.521   2.072  1.00  0.00     0.186 HD
HETATM   15  C   UNK N   1      29.181  16.735   3.992  0.00  0.00     0.121 A 
HETATM   16  H   UNK N   1      28.572  17.399   8.392  0.00  0.00     0.166 HD
HETATM   17  H   UNK N   1      31.867  16.835   2.180  0.00  0.00     0.190 HD
ENDROOT
BRANCH   6  18
HETATM   18  N   UNK N   1      33.707  17.868   8.702  0.00  0.00    -0.325 N 
HETATM   19  C   UNK N   1      34.176  16.824   9.430  0.00  0.00     0.244 C 
HETATM   20  O   UNK N   1      35.159  16.991  10.135  0.00  0.00    -0.271 OA
HETATM   21  H   UNK N   1      34.135  18.746   8.834  0.00  0.00     0.169 HD
BRANCH  19  22
HETATM   22  C   UNK N   1      33.432  15.513   9.490  0.00  0.00     0.171 C 
BRANCH  22  23
HETATM   23  C   UNK N   1      33.850  14.475   8.442  0.00  0.00     0.017 C 
HETATM   24  C   UNK N   1      35.124  14.850   7.675  0.00  0.00     0.007 C 
HETATM   25  C   UNK N   1      35.584  13.736   6.722  0.00  0.00     0.000 C 
HETATM   26  C   UNK N   1      34.591  12.573   6.622  0.00  0.00     0.000 C 
HETATM   27  C   UNK N   1      33.167  13.092   6.411  0.00  0.00     0.000 C 
HETATM   28  C   UNK N   1      32.722  14.104   7.480  0.00  0.00     0.007 C 
ENDBRANCH  22  23
BRANCH  22  29
HETATM   29  N   UNK N   1      33.581  14.943  10.819  0.00  0.00    -0.418 N 
HETATM   30  H   UNK N   1      33.793  15.372  11.720  0.00  0.00     0.150 HD
HETATM   31  H   UNK N   1      33.450  13.932  10.858  0.00  0.00     0.150 HD
ENDBRANCH  22  29
ENDBRANCH  19  22
ENDBRANCH   6  18
BRANCH   1  32
HETATM   32  C   UNK N   1      27.027  16.664   6.211  0.00  0.00     0.025 A 
HETATM   33  C   UNK N   1      26.100  17.190   5.333  0.00  0.00     0.124 A 
HETATM   34  N   UNK N   1      24.956  16.513   5.520  0.00  0.00    -0.307 N 
HETATM   35  C   UNK N   1      23.722  16.717   4.784  0.00  0.00     0.177 C 
HETATM   36  N   UNK N   1      25.110  15.595   6.459  0.00  0.00    -0.310 N 
HETATM   37  C   UNK N   1      26.380  15.658   6.907  0.00  0.00     0.122 A 
ATOM     38  HN  UNK N   1      24.392  14.950   6.788  1.00  0.00     0.186 HD
ENDBRANCH   1  32
TORSDOF 5
ENDMDL
MODEL 5
REMARK VINA RESULT:      -7.4      3.131      8.273
REMARK  5 active torsions:
REMARK  status: ('A' for Active; 'I' for Inactive)
REMARK    1  A    between atoms: C_4  and  C_8 
REMARK    2  A    between atoms: C_13  and  N_17 
REMARK       I    between atoms: N_17  and  C_18 
REMARK    3  A    between atoms: C_18  and  C_20 
REMARK    4  A    between atoms: C_20  and  C_21 
REMARK    5  A    between atoms: C_20  and  N_27 
ROOT
HETATM    1  C   UNK N   1      35.670  13.861  10.027  0.00  0.00     0.058 A 
HETATM    2  C   UNK N   1      35.412  15.174   9.623  0.00  0.00     0.022 A 
HETATM    3  C   UNK N   1      35.075  15.108   8.301  0.00  0.00     0.020 A 
HETATM    4  C   UNK N   1      34.668  16.082   7.386  0.00  0.00     0.049 A 
HETATM    5  C   UNK N   1      34.319  15.626   6.088  0.00  0.00     0.047 A 
HETATM    6  C   UNK N   1      34.420  14.266   5.725  0.00  0.00     0.037 A 
HETATM    7  C   UNK N   1      34.856  13.325   6.668  0.00  0.00     0.060 A 
HETATM    8  C   UNK N   1      35.169  13.780   7.942  0.00  0.00     0.047 A 
HETATM    9  N   UNK N   1      35.533  13.013   8.984  0.00  0.00    -0.354 N 
HETATM   10  C   UNK N   1      34.553  17.458   7.672  0.00  0.00     0.271 A 
HETATM   11  O   UNK N   1      34.186  18.195   6.772  0.00  0.00    -0.266 OA
HETATM   12  N   UNK N   1      34.818  18.047   8.887  0.00  0.00    -0.266 N 
HETATM   13  N   UNK N   1      35.203  17.559  10.065  0.00  0.00    -0.308 N 
ATOM     14  HN  UNK N   1      35.319  18.254  10.803  1.00  0.00     0.186 HD
HETATM   15  C   UNK N   1      35.462  16.284  10.437  0.00  0.00     0.121 A 
HETATM   16  H   UNK N   1      35.670  12.038   8.986  0.00  0.00     0.166 HD
HETATM   17  H   UNK N   1      34.701  19.025   8.884  0.00  0.00     0.190 HD
ENDROOT
BRANCH   6  18
HETATM   18  N   UNK N   1      33.915  13.836   4.473  0.00  0.00    -0.325 N 
HETATM   19  C   UNK N   1      32.600  13.672   4.183  0.00  0.00     0.244 C 
HETATM   20  O   UNK N   1      32.278  13.394   3.039  0.00  0.00    -0.271 OA
HETATM   21  H   UNK N   1      34.567  13.644   3.759  0.00  0.00     0.169 HD
BRANCH  19  22
HETATM   22  C   UNK N   1      31.550  13.693   5.267  0.00  0.00     0.171 C 
BRANCH  22  23
HETATM   23  C   UNK N   1      30.844  15.039   5.467  0.00  0.00     0.017 C 
HETATM   24  C   UNK N   1      31.177  16.078   4.390  0.00  0.00     0.007 C 
HETATM   25  C   UNK N   1      30.360  17.370   4.550  0.00  0.00     0.000 C 
HETATM   26  C   UNK N   1      29.521  17.404   5.831  0.00  0.00     0.000 C 
HETATM   27  C   UNK N   1      30.360  16.986   7.042  0.00  0.00     0.000 C 
HETATM   28  C   UNK N   1      31.042  15.618   6.867  0.00  0.00     0.007 C 
ENDBRANCH  22  23
BRANCH  22  29
HETATM   29  N   UNK N   1      30.560  12.666   4.988  0.00  0.00    -0.418 N 
HETATM   30  H   UNK N   1      30.591  11.841   4.388  0.00  0.00     0.150 HD
HETATM   31  H   UNK N   1      29.677  12.791   5.481  0.00  0.00     0.150 HD
ENDBRANCH  22  29
ENDBRANCH  19  22
ENDBRANCH   6  18
BRANCH   1  32
HETATM   32  C   UNK N   1      35.969  13.385  11.390  0.00  0.00     0.025 A 
HETATM   33  C   UNK N   1      35.071  13.075  12.393  0.00  0.00     0.124 A 
HETATM   34  N   UNK N   1      35.786  12.599  13.425  0.00  0.00    -0.307 N 
HETATM   35  C   UNK N   1      35.243  12.122  14.683  0.00  0.00     0.177 C 
HETATM   36  N   UNK N   1      37.075  12.590  13.129  0.00  0.00    -0.310 N 
HETATM   37  C   UNK N   1      37.224  13.067  11.877  0.00  0.00     0.122 A 
ATOM     38  HN  UNK N   1      37.827  12.276  13.742  1.00  0.00     0.186 HD
ENDBRANCH   1  32
TORSDOF 5
ENDMDL
MODEL 6
REMARK VINA RESULT:      -7.4      2.548      4.020
REMARK  5 active torsions:
REMARK  status: ('A' for Active; 'I' for Inactive)
REMARK    1  A    between atoms: C_4  and  C_8 
REMARK    2  A    between atoms: C_13  and  N_17 
REMARK       I    between atoms: N_17  and  C_18 
REMARK    3  A    between atoms: C_18  and  C_20 
REMARK    4  A    between atoms: C_20  and  C_21 
REMARK    5  A    between atoms: C_20  and  N_27 
ROOT
HETATM    1  C   UNK N   1      29.672  17.259   6.444  0.00  0.00     0.058 A 
HETATM    2  C   UNK N   1      30.668  16.678   5.654  0.00  0.00     0.022 A 
HETATM    3  C   UNK N   1      31.840  16.834   6.340  0.00  0.00     0.020 A 
HETATM    4  C   UNK N   1      33.145  16.413   6.075  0.00  0.00     0.049 A 
HETATM    5  C   UNK N   1      34.116  16.696   7.072  0.00  0.00     0.047 A 
HETATM    6  C   UNK N   1      33.790  17.404   8.248  0.00  0.00     0.037 A 
HETATM    7  C   UNK N   1      32.471  17.829   8.462  0.00  0.00     0.060 A 
HETATM    8  C   UNK N   1      31.526  17.523   7.492  0.00  0.00     0.047 A 
HETATM    9  N   UNK N   1      30.211  17.789   7.564  0.00  0.00    -0.354 N 
HETATM   10  C   UNK N   1      33.547  15.711   4.921  0.00  0.00     0.271 A 
HETATM   11  O   UNK N   1      34.725  15.408   4.823  0.00  0.00    -0.266 OA
HETATM   12  N   UNK N   1      32.722  15.334   3.887  0.00  0.00    -0.266 N 
HETATM   13  N   UNK N   1      31.414  15.470   3.676  0.00  0.00    -0.308 N 
ATOM     14  HN  UNK N   1      31.075  15.077   2.798  1.00  0.00     0.186 HD
HETATM   15  C   UNK N   1      30.463  16.049   4.446  0.00  0.00     0.121 A 
HETATM   16  H   UNK N   1      29.739  18.269   8.283  0.00  0.00     0.166 HD
HETATM   17  H   UNK N   1      33.194  14.870   3.157  0.00  0.00     0.190 HD
ENDROOT
BRANCH   6  18
HETATM   18  N   UNK N   1      34.752  17.526   9.281  0.00  0.00    -0.325 N 
HETATM   19  C   UNK N   1      35.222  16.495  10.028  0.00  0.00     0.244 C 
HETATM   20  O   UNK N   1      36.124  16.705  10.823  0.00  0.00    -0.271 OA
HETATM   21  H   UNK N   1      35.108  18.425   9.470  0.00  0.00     0.169 HD
BRANCH  19  22
HETATM   22  C   UNK N   1      34.563  15.138   9.992  0.00  0.00     0.171 C 
BRANCH  22  23
HETATM   23  C   UNK N   1      35.494  13.952  10.271  0.00  0.00     0.017 C 
HETATM   24  C   UNK N   1      35.684  13.019   9.069  0.00  0.00     0.007 C 
HETATM   25  C   UNK N   1      36.715  11.913   9.342  0.00  0.00     0.000 C 
HETATM   26  C   UNK N   1      37.203  11.882  10.794  0.00  0.00     0.000 C 
HETATM   27  C   UNK N   1      36.022  11.954  11.766  0.00  0.00     0.000 C 
HETATM   28  C   UNK N   1      35.103  13.163  11.520  0.00  0.00     0.007 C 
ENDBRANCH  22  23
BRANCH  22  29
HETATM   29  N   UNK N   1      33.462  15.120  10.941  0.00  0.00    -0.418 N 
HETATM   30  H   UNK N   1      32.727  14.433  11.111  0.00  0.00     0.150 HD
HETATM   31  H   UNK N   1      33.417  15.939  11.546  0.00  0.00     0.150 HD
ENDBRANCH  22  29
ENDBRANCH  19  22
ENDBRANCH   6  18
BRANCH   1  32
HETATM   32  C   UNK N   1      28.218  17.257   6.198  0.00  0.00     0.025 A 
HETATM   33  C   UNK N   1      27.496  18.108   5.384  0.00  0.00     0.124 A 
HETATM   34  N   UNK N   1      26.225  17.677   5.397  0.00  0.00    -0.307 N 
HETATM   35  C   UNK N   1      25.125  18.262   4.652  0.00  0.00     0.177 C 
HETATM   36  N   UNK N   1      26.107  16.608   6.166  0.00  0.00    -0.310 N 
HETATM   37  C   UNK N   1      27.321  16.318   6.676  0.00  0.00     0.122 A 
ATOM     38  HN  UNK N   1      25.246  16.092   6.344  1.00  0.00     0.186 HD
ENDBRANCH   1  32
TORSDOF 5
ENDMDL
MODEL 7
REMARK VINA RESULT:      -7.4      4.905      7.354
REMARK  5 active torsions:
REMARK  status: ('A' for Active; 'I' for Inactive)
REMARK    1  A    between atoms: C_4  and  C_8 
REMARK    2  A    between atoms: C_13  and  N_17 
REMARK       I    between atoms: N_17  and  C_18 
REMARK    3  A    between atoms: C_18  and  C_20 
REMARK    4  A    between atoms: C_20  and  C_21 
REMARK    5  A    between atoms: C_20  and  N_27 
ROOT
HETATM    1  C   UNK N   1      33.331  15.614   9.194  0.00  0.00     0.058 A 
HETATM    2  C   UNK N   1      33.485  14.250   9.458  0.00  0.00     0.022 A 
HETATM    3  C   UNK N   1      34.356  14.160  10.507  0.00  0.00     0.020 A 
HETATM    4  C   UNK N   1      34.841  13.069  11.233  0.00  0.00     0.049 A 
HETATM    5  C   UNK N   1      35.691  13.366  12.331  0.00  0.00     0.047 A 
HETATM    6  C   UNK N   1      36.063  14.691  12.646  0.00  0.00     0.037 A 
HETATM    7  C   UNK N   1      35.572  15.754  11.876  0.00  0.00     0.060 A 
HETATM    8  C   UNK N   1      34.721  15.452  10.821  0.00  0.00     0.047 A 
HETATM    9  N   UNK N   1      34.105  16.344  10.027  0.00  0.00    -0.354 N 
HETATM   10  C   UNK N   1      34.522  11.722  10.972  0.00  0.00     0.271 A 
HETATM   11  O   UNK N   1      35.022  10.871  11.690  0.00  0.00    -0.266 OA
HETATM   12  N   UNK N   1      33.688  11.276   9.971  0.00  0.00    -0.266 N 
HETATM   13  N   UNK N   1      32.970  11.907   9.043  0.00  0.00    -0.308 N 
ATOM     14  HN  UNK N   1      32.433  11.299   8.426  1.00  0.00     0.186 HD
HETATM   15  C   UNK N   1      32.841  13.231   8.793  0.00  0.00     0.121 A 
HETATM   16  H   UNK N   1      34.198  17.324  10.049  0.00  0.00     0.166 HD
HETATM   17  H   UNK N   1      33.607  10.296   9.934  0.00  0.00     0.190 HD
ENDROOT
BRANCH   6  18
HETATM   18  N   UNK N   1      36.783  14.950  13.839  0.00  0.00    -0.325 N 
HETATM   19  C   UNK N   1      36.737  14.179  14.954  0.00  0.00     0.244 C 
HETATM   20  O   UNK N   1      37.479  14.446  15.887  0.00  0.00    -0.271 OA
HETATM   21  H   UNK N   1      37.361  15.748  13.859  0.00  0.00     0.169 HD
BRANCH  19  22
HETATM   22  C   UNK N   1      35.702  13.093  15.114  0.00  0.00     0.171 C 
BRANCH  22  23
HETATM   23  C   UNK N   1      36.259  11.703  15.443  0.00  0.00     0.017 C 
HETATM   24  C   UNK N   1      37.426  11.275  14.545  0.00  0.00     0.007 C 
HETATM   25  C   UNK N   1      38.039   9.935  14.980  0.00  0.00     0.000 C 
HETATM   26  C   UNK N   1      37.256   9.243  16.100  0.00  0.00     0.000 C 
HETATM   27  C   UNK N   1      35.757   9.226  15.786  0.00  0.00     0.000 C 
HETATM   28  C   UNK N   1      35.180  10.621  15.492  0.00  0.00     0.007 C 
ENDBRANCH  22  23
BRANCH  22  29
HETATM   29  N   UNK N   1      34.754  13.489  16.143  0.00  0.00    -0.418 N 
HETATM   30  H   UNK N   1      34.615  13.157  17.098  0.00  0.00     0.150 HD
HETATM   31  H   UNK N   1      34.116  14.231  15.860  0.00  0.00     0.150 HD
ENDBRANCH  22  29
ENDBRANCH  19  22
ENDBRANCH   6  18
BRANCH   1  32
HETATM   32  C   UNK N   1      32.412  16.242   8.226  0.00  0.00     0.025 A 
HETATM   33  C   UNK N   1      31.090  16.592   8.419  0.00  0.00     0.124 A 
HETATM   34  N   UNK N   1      30.683  17.213   7.300  0.00  0.00    -0.307 N 
HETATM   35  C   UNK N   1      29.365  17.777   7.078  0.00  0.00     0.177 C 
HETATM   36  N   UNK N   1      31.668  17.274   6.421  0.00  0.00    -0.310 N 
HETATM   37  C   UNK N   1      32.754  16.686   6.961  0.00  0.00     0.122 A 
ATOM     38  HN  UNK N   1      31.616  17.694   5.493  1.00  0.00     0.186 HD
ENDBRANCH   1  32
TORSDOF 5
ENDMDL
MODEL 8
REMARK VINA RESULT:      -7.3      9.224     13.226
REMARK  5 active torsions:
REMARK  status: ('A' for Active; 'I' for Inactive)
REMARK    1  A    between atoms: C_4  and  C_8 
REMARK    2  A    between atoms: C_13  and  N_17 
REMARK       I    between atoms: N_17  and  C_18 
REMARK    3  A    between atoms: C_18  and  C_20 
REMARK    4  A    between atoms: C_20  and  C_21 
REMARK    5  A    between atoms: C_20  and  N_27 
ROOT
HETATM    1  C   UNK N   1      34.712   9.310  18.454  0.00  0.00     0.058 A 
HETATM    2  C   UNK N   1      34.959  10.660  18.716  0.00  0.00     0.022 A 
HETATM    3  C   UNK N   1      34.971  11.289  17.503  0.00  0.00     0.020 A 
HETATM    4  C   UNK N   1      35.114  12.632  17.143  0.00  0.00     0.049 A 
HETATM    5  C   UNK N   1      34.995  12.934  15.761  0.00  0.00     0.047 A 
HETATM    6  C   UNK N   1      34.787  11.926  14.796  0.00  0.00     0.037 A 
HETATM    7  C   UNK N   1      34.671  10.588  15.198  0.00  0.00     0.060 A 
HETATM    8  C   UNK N   1      34.764  10.309  16.555  0.00  0.00     0.047 A 
HETATM    9  N   UNK N   1      34.608   9.102  17.123  0.00  0.00    -0.354 N 
HETATM   10  C   UNK N   1      35.334  13.689  18.049  0.00  0.00     0.271 A 
HETATM   11  O   UNK N   1      35.442  14.815  17.590  0.00  0.00    -0.266 OA
HETATM   12  N   UNK N   1      35.437  13.564  19.415  0.00  0.00    -0.266 N 
HETATM   13  N   UNK N   1      35.345  12.520  20.238  0.00  0.00    -0.308 N 
ATOM     14  HN  UNK N   1      35.465  12.739  21.227  1.00  0.00     0.186 HD
HETATM   15  C   UNK N   1      35.118  11.214  19.966  0.00  0.00     0.121 A 
HETATM   16  H   UNK N   1      34.451   8.244  16.664  0.00  0.00     0.166 HD
HETATM   17  H   UNK N   1      35.613  14.416  19.876  0.00  0.00     0.190 HD
ENDROOT
BRANCH   6  18
HETATM   18  N   UNK N   1      34.519  12.289  13.452  0.00  0.00    -0.325 N 
HETATM   19  C   UNK N   1      35.460  12.425  12.484  0.00  0.00     0.244 C 
HETATM   20  O   UNK N   1      35.101  12.645  11.338  0.00  0.00    -0.271 OA
HETATM   21  H   UNK N   1      33.581  12.454  13.202  0.00  0.00     0.169 HD
BRANCH  19  22
HETATM   22  C   UNK N   1      36.931  12.445  12.819  0.00  0.00     0.171 C 
BRANCH  22  23
HETATM   23  C   UNK N   1      37.606  11.070  12.881  0.00  0.00     0.017 C 
HETATM   24  C   UNK N   1      36.750   9.934  12.307  0.00  0.00     0.007 C 
HETATM   25  C   UNK N   1      37.502   8.595  12.272  0.00  0.00     0.000 C 
HETATM   26  C   UNK N   1      38.869   8.645  12.961  0.00  0.00     0.000 C 
HETATM   27  C   UNK N   1      38.761   9.318  14.332  0.00  0.00     0.000 C 
HETATM   28  C   UNK N   1      38.121  10.716  14.276  0.00  0.00     0.007 C 
ENDBRANCH  22  23
BRANCH  22  29
HETATM   29  N   UNK N   1      37.627  13.280  11.853  0.00  0.00    -0.418 N 
HETATM   30  H   UNK N   1      38.596  13.593  11.803  0.00  0.00     0.150 HD
HETATM   31  H   UNK N   1      37.040  13.610  11.087  0.00  0.00     0.150 HD
ENDBRANCH  22  29
ENDBRANCH  19  22
ENDBRANCH   6  18
BRANCH   1  32
HETATM   32  C   UNK N   1      34.497   8.231  19.436  0.00  0.00     0.025 A 
HETATM   33  C   UNK N   1      35.454   7.497  20.109  0.00  0.00     0.124 A 
HETATM   34  N   UNK N   1      34.801   6.693  20.963  0.00  0.00    -0.307 N 
HETATM   35  C   UNK N   1      35.419   5.768  21.895  0.00  0.00     0.177 C 
HETATM   36  N   UNK N   1      33.496   6.880  20.868  0.00  0.00    -0.310 N 
HETATM   37  C   UNK N   1      33.272   7.826  19.935  0.00  0.00     0.122 A 
ATOM     38  HN  UNK N   1      32.781   6.393  21.407  1.00  0.00     0.186 HD
ENDBRANCH   1  32
TORSDOF 5
ENDMDL
MODEL 9
REMARK VINA RESULT:      -7.3      3.700      9.242
REMARK  5 active torsions:
REMARK  status: ('A' for Active; 'I' for Inactive)
REMARK    1  A    between atoms: C_4  and  C_8 
REMARK    2  A    between atoms: C_13  and  N_17 
REMARK       I    between atoms: N_17  and  C_18 
REMARK    3  A    between atoms: C_18  and  C_20 
REMARK    4  A    between atoms: C_20  and  C_21 
REMARK    5  A    between atoms: C_20  and  N_27 
ROOT
HETATM    1  C   UNK N   1      35.422  13.945  12.358  0.00  0.00     0.058 A 
HETATM    2  C   UNK N   1      35.663  13.017  11.341  0.00  0.00     0.022 A 
HETATM    3  C   UNK N   1      35.411  13.665  10.165  0.00  0.00     0.020 A 
HETATM    4  C   UNK N   1      35.530  13.268   8.831  0.00  0.00     0.049 A 
HETATM    5  C   UNK N   1      35.246  14.253   7.849  0.00  0.00     0.047 A 
HETATM    6  C   UNK N   1      34.823  15.553   8.201  0.00  0.00     0.037 A 
HETATM    7  C   UNK N   1      34.695  15.902   9.552  0.00  0.00     0.060 A 
HETATM    8  C   UNK N   1      35.001  14.937  10.503  0.00  0.00     0.047 A 
HETATM    9  N   UNK N   1      35.002  15.117  11.834  0.00  0.00    -0.354 N 
HETATM   10  C   UNK N   1      35.935  11.987   8.404  0.00  0.00     0.271 A 
HETATM   11  O   UNK N   1      35.992  11.781   7.203  0.00  0.00    -0.266 OA
HETATM   12  N   UNK N   1      36.277  10.940   9.229  0.00  0.00    -0.266 N 
HETATM   13  N   UNK N   1      36.353  10.819  10.554  0.00  0.00    -0.308 N 
ATOM     14  HN  UNK N   1      36.646   9.900  10.887  1.00  0.00     0.186 HD
HETATM   15  C   UNK N   1      36.103  11.725  11.527  0.00  0.00     0.121 A 
HETATM   16  H   UNK N   1      34.748  15.933  12.325  0.00  0.00     0.166 HD
HETATM   17  H   UNK N   1      36.512  10.117   8.743  0.00  0.00     0.190 HD
ENDROOT
BRANCH   6  18
HETATM   18  N   UNK N   1      34.703  16.545   7.196  0.00  0.00    -0.325 N 
HETATM   19  C   UNK N   1      33.541  16.895   6.589  0.00  0.00     0.244 C 
HETATM   20  O   UNK N   1      33.543  17.834   5.808  0.00  0.00    -0.271 OA
HETATM   21  H   UNK N   1      35.522  17.016   6.919  0.00  0.00     0.169 HD
BRANCH  19  22
HETATM   22  C   UNK N   1      32.290  16.069   6.755  0.00  0.00     0.171 C 
BRANCH  22  23
HETATM   23  C   UNK N   1      31.127  16.778   7.460  0.00  0.00     0.017 C 
HETATM   24  C   UNK N   1      30.083  17.358   6.499  0.00  0.00     0.007 C 
HETATM   25  C   UNK N   1      28.873  17.952   7.237  0.00  0.00     0.000 C 
HETATM   26  C   UNK N   1      29.045  17.984   8.759  0.00  0.00     0.000 C 
HETATM   27  C   UNK N   1      30.412  18.559   9.139  0.00  0.00     0.000 C 
HETATM   28  C   UNK N   1      31.588  17.830   8.468  0.00  0.00     0.007 C 
ENDBRANCH  22  23
BRANCH  22  29
HETATM   29  N   UNK N   1      31.850  15.606   5.449  0.00  0.00    -0.418 N 
HETATM   30  H   UNK N   1      32.068  15.932   4.507  0.00  0.00     0.150 HD
HETATM   31  H   UNK N   1      31.211  14.812   5.480  0.00  0.00     0.150 HD
ENDBRANCH  22  29
ENDBRANCH  19  22
ENDBRANCH   6  18
BRANCH   1  32
HETATM   32  C   UNK N   1      35.654  13.770  13.804  0.00  0.00     0.025 A 
HETATM   33  C   UNK N   1      34.984  12.932  14.673  0.00  0.00     0.124 A 
HETATM   34  N   UNK N   1      35.591  13.037  15.866  0.00  0.00    -0.307 N 
HETATM   35  C   UNK N   1      35.232  12.306  17.066  0.00  0.00     0.177 C 
HETATM   36  N   UNK N   1      36.600  13.888  15.796  0.00  0.00    -0.310 N 
HETATM   37  C   UNK N   1      36.671  14.359  14.535  0.00  0.00     0.122 A 
ATOM     38  HN  UNK N   1      37.220  14.145  16.564  1.00  0.00     0.186 HD
ENDBRANCH   1  32
TORSDOF 5
ENDMDL
