MODEL 1
REMARK VINA RESULT:      -7.7      0.000      0.000
REMARK  5 active torsions:
REMARK  status: ('A' for Active; 'I' for Inactive)
REMARK    1  A    between atoms: C_5  and  C_9 
REMARK    2  A    between atoms: C_9  and  N_10 
REMARK    3  A    between atoms: C_17  and  C_22 
REMARK    4  A    between atoms: C_25  and  O_28 
REMARK    5  A    between atoms: O_28  and  C_29 
ROOT
HETATM    1  N   UNK N   1      25.837  18.949   4.014  0.00  0.00    -0.339 N 
HETATM    2  C   UNK N   1      25.289  20.277   4.093  0.00  0.00     0.153 C 
HETATM    3  C   UNK N   1      24.333  20.459   2.933  0.00  0.00     0.195 C 
HETATM    4  O   UNK N   1      23.054  20.135   3.328  0.00  0.00    -0.348 OA
HETATM    5  C   UNK N   1      22.691  19.017   4.012  0.00  0.00     0.084 A 
HETATM    6  C   UNK N   1      21.361  18.938   4.477  0.00  0.00     0.039 A 
HETATM    7  C   UNK N   1      20.945  17.877   5.300  0.00  0.00     0.015 A 
HETATM    8  C   UNK N   1      21.859  16.870   5.633  0.00  0.00    -0.025 A 
HETATM    9  C   UNK N   1      23.127  16.913   5.095  0.00  0.00     0.032 A 
HETATM   10  C   UNK N   1      23.583  17.945   4.311  0.00  0.00     0.066 A 
HETATM   11  C   UNK N   1      25.043  17.846   4.043  0.00  0.00     0.257 C 
HETATM   12  O   UNK N   1      25.556  16.736   4.019  0.00  0.00    -0.267 OA
ENDROOT
BRANCH   8  13
HETATM   13  C   UNK N   1      21.617  15.816   6.636  0.00  0.00    -0.026 A 
HETATM   14  C   UNK N   1      20.837  16.014   7.779  0.00  0.00     0.015 A 
HETATM   15  C   UNK N   1      20.662  14.958   8.685  0.00  0.00     0.038 A 
HETATM   16  C   UNK N   1      21.291  13.713   8.462  0.00  0.00     0.078 A 
HETATM   17  C   UNK N   1      22.105  13.544   7.354  0.00  0.00     0.038 A 
HETATM   18  C   UNK N   1      22.261  14.577   6.452  0.00  0.00     0.015 A 
BRANCH  16  19
HETATM   19  O   UNK N   1      21.088  12.644   9.263  0.00  0.00    -0.255 OA
BRANCH  19  20
HETATM   20  C   UNK N   1      21.801  12.385  10.410  0.00  0.00     0.530 C 
HETATM   21  F   UNK N   1      20.931  12.255  11.478  0.00  0.00    -0.144 F 
HETATM   22  F   UNK N   1      22.486  11.197  10.246  0.00  0.00    -0.144 F 
HETATM   23  F   UNK N   1      22.702  13.404  10.654  0.00  0.00    -0.144 F 
ENDBRANCH  19  20
ENDBRANCH  16  19
ENDBRANCH   8  13
BRANCH   1  24
HETATM   24  C   UNK N   1      27.270  18.769   4.125  0.00  0.00     0.202 C 
BRANCH  24  25
HETATM   25  C   UNK N   1      27.720  18.443   5.495  0.00  0.00     0.099 A 
HETATM   26  N   UNK N   1      28.145  17.192   5.815  0.00  0.00    -0.354 N 
HETATM   27  C   UNK N   1      28.593  16.911   7.063  0.00  0.00     0.091 A 
ATOM     28  HN  UNK N   1      28.125  16.457   5.108  1.00  0.00     0.166 HD
HETATM   29  C   UNK N   1      28.626  17.913   8.029  0.00  0.00     0.034 A 
HETATM   30  C   UNK N   1      28.183  19.188   7.684  0.00  0.00     0.091 A 
HETATM   31  N   UNK N   1      27.738  19.431   6.427  0.00  0.00    -0.354 N 
ATOM     32  HN  UNK N   1      27.413  20.365   6.179  1.00  0.00     0.166 HD
ENDBRANCH  24  25
ENDBRANCH   1  24
TORSDOF 5
ENDMDL
MODEL 2
REMARK VINA RESULT:      -7.7      5.635      8.169
REMARK  5 active torsions:
REMARK  status: ('A' for Active; 'I' for Inactive)
REMARK    1  A    between atoms: C_5  and  C_9 
REMARK    2  A    between atoms: C_9  and  N_10 
REMARK    3  A    between atoms: C_17  and  C_22 
REMARK    4  A    between atoms: C_25  and  O_28 
REMARK    5  A    between atoms: O_28  and  C_29 
ROOT
HETATM    1  N   UNK N   1      20.975  18.074   3.412  0.00  0.00    -0.339 N 
HETATM    2  C   UNK N   1      20.753  18.948   2.291  0.00  0.00     0.153 C 
HETATM    3  C   UNK N   1      20.745  20.374   2.803  0.00  0.00     0.195 C 
HETATM    4  O   UNK N   1      22.008  20.912   2.704  0.00  0.00    -0.348 OA
HETATM    5  C   UNK N   1      23.162  20.317   3.111  0.00  0.00     0.084 A 
HETATM    6  C   UNK N   1      24.377  20.949   2.774  0.00  0.00     0.039 A 
HETATM    7  C   UNK N   1      25.612  20.333   3.045  0.00  0.00     0.015 A 
HETATM    8  C   UNK N   1      25.629  19.089   3.687  0.00  0.00    -0.025 A 
HETATM    9  C   UNK N   1      24.437  18.529   4.093  0.00  0.00     0.032 A 
HETATM   10  C   UNK N   1      23.209  19.082   3.823  0.00  0.00     0.066 A 
HETATM   11  C   UNK N   1      22.089  18.172   4.184  0.00  0.00     0.257 C 
HETATM   12  O   UNK N   1      22.258  17.377   5.099  0.00  0.00    -0.267 OA
ENDROOT
BRANCH   8  13
HETATM   13  C   UNK N   1      26.829  18.248   3.854  0.00  0.00    -0.026 A 
HETATM   14  C   UNK N   1      26.900  16.923   3.411  0.00  0.00     0.015 A 
HETATM   15  C   UNK N   1      28.079  16.191   3.614  0.00  0.00     0.038 A 
HETATM   16  C   UNK N   1      29.177  16.776   4.285  0.00  0.00     0.078 A 
HETATM   17  C   UNK N   1      29.076  18.071   4.766  0.00  0.00     0.038 A 
HETATM   18  C   UNK N   1      27.923  18.797   4.549  0.00  0.00     0.015 A 
BRANCH  16  19
HETATM   19  O   UNK N   1      30.359  16.139   4.433  0.00  0.00    -0.255 OA
BRANCH  19  20
HETATM   20  C   UNK N   1      31.479  16.393   3.678  0.00  0.00     0.530 C 
HETATM   21  F   UNK N   1      31.101  16.812   2.414  0.00  0.00    -0.144 F 
HETATM   22  F   UNK N   1      32.203  17.400   4.284  0.00  0.00    -0.144 F 
HETATM   23  F   UNK N   1      32.262  15.257   3.585  0.00  0.00    -0.144 F 
ENDBRANCH  19  20
ENDBRANCH  16  19
ENDBRANCH   8  13
BRANCH   1  24
HETATM   24  C   UNK N   1      20.108  16.929   3.596  0.00  0.00     0.202 C 
BRANCH  24  25
HETATM   25  C   UNK N   1      20.369  15.831   2.641  0.00  0.00     0.099 A 
HETATM   26  N   UNK N   1      19.379  15.338   1.850  0.00  0.00    -0.354 N 
HETATM   27  C   UNK N   1      19.636  14.357   0.949  0.00  0.00     0.091 A 
ATOM     28  HN  UNK N   1      18.433  15.709   1.936  1.00  0.00     0.166 HD
HETATM   29  C   UNK N   1      20.927  13.851   0.826  0.00  0.00     0.034 A 
HETATM   30  C   UNK N   1      21.928  14.365   1.647  0.00  0.00     0.091 A 
HETATM   31  N   UNK N   1      21.633  15.343   2.539  0.00  0.00    -0.354 N 
ATOM     32  HN  UNK N   1      22.367  15.715   3.140  1.00  0.00     0.166 HD
ENDBRANCH  24  25
ENDBRANCH   1  24
TORSDOF 5
ENDMDL
MODEL 3
REMARK VINA RESULT:      -7.7      7.112     10.652
REMARK  5 active torsions:
REMARK  status: ('A' for Active; 'I' for Inactive)
REMARK    1  A    between atoms: C_5  and  C_9 
REMARK    2  A    between atoms: C_9  and  N_10 
REMARK    3  A    between atoms: C_17  and  C_22 
REMARK    4  A    between atoms: C_25  and  O_28 
REMARK    5  A    between atoms: O_28  and  C_29 
ROOT
HETATM    1  N   UNK N   1      34.482  15.199   9.604  0.00  0.00    -0.339 N 
HETATM    2  C   UNK N   1      35.483  15.013   8.587  0.00  0.00     0.153 C 
HETATM    3  C   UNK N   1      35.262  13.654   7.955  0.00  0.00     0.195 C 
HETATM    4  O   UNK N   1      34.460  13.783   6.843  0.00  0.00    -0.348 OA
HETATM    5  C   UNK N   1      33.294  14.481   6.779  0.00  0.00     0.084 A 
HETATM    6  C   UNK N   1      32.697  14.640   5.511  0.00  0.00     0.039 A 
HETATM    7  C   UNK N   1      31.563  15.455   5.343  0.00  0.00     0.015 A 
HETATM    8  C   UNK N   1      31.005  16.089   6.460  0.00  0.00    -0.025 A 
HETATM    9  C   UNK N   1      31.545  15.849   7.704  0.00  0.00     0.032 A 
HETATM   10  C   UNK N   1      32.667  15.084   7.910  0.00  0.00     0.066 A 
HETATM   11  C   UNK N   1      33.155  15.163   9.313  0.00  0.00     0.257 C 
HETATM   12  O   UNK N   1      32.339  15.373  10.201  0.00  0.00    -0.267 OA
ENDROOT
BRANCH   8  13
HETATM   13  C   UNK N   1      29.948  17.116   6.400  0.00  0.00    -0.026 A 
HETATM   14  C   UNK N   1      29.414  17.592   5.198  0.00  0.00     0.015 A 
HETATM   15  C   UNK N   1      28.414  18.576   5.231  0.00  0.00     0.038 A 
HETATM   16  C   UNK N   1      27.970  19.102   6.465  0.00  0.00     0.078 A 
HETATM   17  C   UNK N   1      28.543  18.661   7.646  0.00  0.00     0.038 A 
HETATM   18  C   UNK N   1      29.513  17.680   7.614  0.00  0.00     0.015 A 
BRANCH  16  19
HETATM   19  O   UNK N   1      26.955  19.991   6.551  0.00  0.00    -0.255 OA
BRANCH  19  20
HETATM   20  C   UNK N   1      27.015  21.287   6.098  0.00  0.00     0.530 C 
HETATM   21  F   UNK N   1      26.819  21.310   4.728  0.00  0.00    -0.144 F 
HETATM   22  F   UNK N   1      26.011  22.015   6.705  0.00  0.00    -0.144 F 
HETATM   23  F   UNK N   1      28.241  21.846   6.410  0.00  0.00    -0.144 F 
ENDBRANCH  19  20
ENDBRANCH  16  19
ENDBRANCH   8  13
BRANCH   1  24
HETATM   24  C   UNK N   1      34.887  15.647  10.920  0.00  0.00     0.202 C 
BRANCH  24  25
HETATM   25  C   UNK N   1      35.273  14.545  11.826  0.00  0.00     0.099 A 
HETATM   26  N   UNK N   1      36.238  14.716  12.769  0.00  0.00    -0.354 N 
HETATM   27  C   UNK N   1      36.559  13.713  13.622  0.00  0.00     0.091 A 
ATOM     28  HN  UNK N   1      36.726  15.610  12.834  1.00  0.00     0.166 HD
HETATM   29  C   UNK N   1      35.892  12.493  13.539  0.00  0.00     0.034 A 
HETATM   30  C   UNK N   1      34.909  12.334  12.565  0.00  0.00     0.091 A 
HETATM   31  N   UNK N   1      34.618  13.359  11.726  0.00  0.00    -0.354 N 
ATOM     32  HN  UNK N   1      33.900  13.239  11.013  1.00  0.00     0.166 HD
ENDBRANCH  24  25
ENDBRANCH   1  24
TORSDOF 5
ENDMDL
MODEL 4
REMARK VINA RESULT:      -7.5      9.858     13.316
REMARK  5 active torsions:
REMARK  status: ('A' for Active; 'I' for Inactive)
REMARK    1  A    between atoms: C_5  and  C_9 
REMARK    2  A    between atoms: C_9  and  N_10 
REMARK    3  A    between atoms: C_17  and  C_22 
REMARK    4  A    between atoms: C_25  and  O_28 
REMARK    5  A    between atoms: O_28  and  C_29 
ROOT
HETATM    1  N   UNK N   1      34.515  16.363   8.753  0.00  0.00    -0.339 N 
HETATM    2  C   UNK N   1      34.300  15.385   7.720  0.00  0.00     0.153 C 
HETATM    3  C   UNK N   1      35.653  14.977   7.172  0.00  0.00     0.195 C 
HETATM    4  O   UNK N   1      36.109  13.863   7.840  0.00  0.00    -0.348 OA
HETATM    5  C   UNK N   1      36.123  13.693   9.190  0.00  0.00     0.084 A 
HETATM    6  C   UNK N   1      36.470  12.418   9.685  0.00  0.00     0.039 A 
HETATM    7  C   UNK N   1      36.383  12.128  11.058  0.00  0.00     0.015 A 
HETATM    8  C   UNK N   1      35.977  13.132  11.945  0.00  0.00    -0.025 A 
HETATM    9  C   UNK N   1      35.732  14.397  11.457  0.00  0.00     0.032 A 
HETATM   10  C   UNK N   1      35.776  14.717  10.122  0.00  0.00     0.066 A 
HETATM   11  C   UNK N   1      35.265  16.088   9.852  0.00  0.00     0.257 C 
HETATM   12  O   UNK N   1      35.383  16.934  10.728  0.00  0.00    -0.267 OA
ENDROOT
BRANCH   8  13
HETATM   13  C   UNK N   1      35.656  12.915  13.368  0.00  0.00    -0.026 A 
HETATM   14  C   UNK N   1      34.624  12.074  13.798  0.00  0.00     0.015 A 
HETATM   15  C   UNK N   1      34.382  11.928  15.172  0.00  0.00     0.038 A 
HETATM   16  C   UNK N   1      35.154  12.643  16.114  0.00  0.00     0.078 A 
HETATM   17  C   UNK N   1      36.139  13.513  15.675  0.00  0.00     0.038 A 
HETATM   18  C   UNK N   1      36.390  13.643  14.324  0.00  0.00     0.015 A 
BRANCH  16  19
HETATM   19  O   UNK N   1      35.011  12.474  17.447  0.00  0.00    -0.255 OA
BRANCH  19  20
HETATM   20  C   UNK N   1      35.463  11.379  18.144  0.00  0.00     0.530 C 
HETATM   21  F   UNK N   1      35.825  11.761  19.425  0.00  0.00    -0.144 F 
HETATM   22  F   UNK N   1      34.441  10.454  18.227  0.00  0.00    -0.144 F 
HETATM   23  F   UNK N   1      36.545  10.812  17.497  0.00  0.00    -0.144 F 
ENDBRANCH  19  20
ENDBRANCH  16  19
ENDBRANCH   8  13
BRANCH   1  24
HETATM   24  C   UNK N   1      33.745  17.590   8.734  0.00  0.00     0.202 C 
BRANCH  24  25
HETATM   25  C   UNK N   1      32.337  17.397   8.326  0.00  0.00     0.099 A 
HETATM   26  N   UNK N   1      31.345  17.305   9.251  0.00  0.00    -0.354 N 
HETATM   27  C   UNK N   1      30.051  17.167   8.868  0.00  0.00     0.091 A 
ATOM     28  HN  UNK N   1      31.576  17.340  10.244  1.00  0.00     0.166 HD
HETATM   29  C   UNK N   1      29.731  17.124   7.514  0.00  0.00     0.034 A 
HETATM   30  C   UNK N   1      30.761  17.214   6.581  0.00  0.00     0.091 A 
HETATM   31  N   UNK N   1      32.043  17.347   7.001  0.00  0.00    -0.354 N 
ATOM     32  HN  UNK N   1      32.795  17.412   6.315  1.00  0.00     0.166 HD
ENDBRANCH  24  25
ENDBRANCH   1  24
TORSDOF 5
ENDMDL
MODEL 5
REMARK VINA RESULT:      -7.5      7.367     10.918
REMARK  5 active torsions:
REMARK  status: ('A' for Active; 'I' for Inactive)
REMARK    1  A    between atoms: C_5  and  C_9 
REMARK    2  A    between atoms: C_9  and  N_10 
REMARK    3  A    between atoms: C_17  and  C_22 
REMARK    4  A    between atoms: C_25  and  O_28 
REMARK    5  A    between atoms: O_28  and  C_29 
ROOT
HETATM    1  N   UNK N   1      30.040  17.192   6.494  0.00  0.00    -0.339 N 
HETATM    2  C   UNK N   1      30.256  16.462   5.273  0.00  0.00     0.153 C 
HETATM    3  C   UNK N   1      31.224  17.253   4.418  0.00  0.00     0.195 C 
HETATM    4  O   UNK N   1      32.511  16.826   4.654  0.00  0.00    -0.348 OA
HETATM    5  C   UNK N   1      33.076  16.635   5.877  0.00  0.00     0.084 A 
HETATM    6  C   UNK N   1      34.350  16.032   5.921  0.00  0.00     0.039 A 
HETATM    7  C   UNK N   1      34.943  15.685   7.148  0.00  0.00     0.015 A 
HETATM    8  C   UNK N   1      34.268  15.973   8.340  0.00  0.00    -0.025 A 
HETATM    9  C   UNK N   1      33.067  16.646   8.282  0.00  0.00     0.032 A 
HETATM   10  C   UNK N   1      32.439  16.978   7.106  0.00  0.00     0.066 A 
HETATM   11  C   UNK N   1      31.066  17.504   7.329  0.00  0.00     0.257 C 
HETATM   12  O   UNK N   1      30.830  18.086   8.379  0.00  0.00    -0.267 OA
ENDROOT
BRANCH   8  13
HETATM   13  C   UNK N   1      34.677  15.493   9.673  0.00  0.00    -0.026 A 
HETATM   14  C   UNK N   1      35.438  16.260  10.561  0.00  0.00     0.015 A 
HETATM   15  C   UNK N   1      35.789  15.724  11.809  0.00  0.00     0.038 A 
HETATM   16  C   UNK N   1      35.402  14.410  12.156  0.00  0.00     0.078 A 
HETATM   17  C   UNK N   1      34.694  13.640  11.248  0.00  0.00     0.038 A 
HETATM   18  C   UNK N   1      34.332  14.175  10.028  0.00  0.00     0.015 A 
BRANCH  16  19
HETATM   19  O   UNK N   1      35.646  13.881  13.375  0.00  0.00    -0.255 OA
BRANCH  19  20
HETATM   20  C   UNK N   1      36.552  12.875  13.619  0.00  0.00     0.530 C 
HETATM   21  F   UNK N   1      37.201  13.116  14.818  0.00  0.00    -0.144 F 
HETATM   22  F   UNK N   1      35.869  11.678  13.714  0.00  0.00    -0.144 F 
HETATM   23  F   UNK N   1      37.471  12.799  12.590  0.00  0.00    -0.144 F 
ENDBRANCH  19  20
ENDBRANCH  16  19
ENDBRANCH   8  13
BRANCH   1  24
HETATM   24  C   UNK N   1      28.685  17.412   6.954  0.00  0.00     0.202 C 
BRANCH  24  25
HETATM   25  C   UNK N   1      28.103  18.689   6.488  0.00  0.00     0.099 A 
HETATM   26  N   UNK N   1      28.123  19.031   5.173  0.00  0.00    -0.354 N 
HETATM   27  C   UNK N   1      27.553  20.186   4.748  0.00  0.00     0.091 A 
ATOM     28  HN  UNK N   1      28.572  18.412   4.498  1.00  0.00     0.166 HD
HETATM   29  C   UNK N   1      26.934  21.031   5.666  0.00  0.00     0.034 A 
HETATM   30  C   UNK N   1      26.928  20.666   7.011  0.00  0.00     0.091 A 
HETATM   31  N   UNK N   1      27.512  19.506   7.398  0.00  0.00    -0.354 N 
ATOM     32  HN  UNK N   1      27.506  19.243   8.383  1.00  0.00     0.166 HD
ENDBRANCH  24  25
ENDBRANCH   1  24
TORSDOF 5
ENDMDL
MODEL 6
REMARK VINA RESULT:      -7.4     11.068     14.488
REMARK  5 active torsions:
REMARK  status: ('A' for Active; 'I' for Inactive)
REMARK    1  A    between atoms: C_5  and  C_9 
REMARK    2  A    between atoms: C_9  and  N_10 
REMARK    3  A    between atoms: C_17  and  C_22 
REMARK    4  A    between atoms: C_25  and  O_28 
REMARK    5  A    between atoms: O_28  and  C_29 
ROOT
HETATM    1  N   UNK N   1      34.310  13.852   9.597  0.00  0.00    -0.339 N 
HETATM    2  C   UNK N   1      34.954  12.881   8.753  0.00  0.00     0.153 C 
HETATM    3  C   UNK N   1      36.374  13.346   8.503  0.00  0.00     0.195 C 
HETATM    4  O   UNK N   1      37.219  12.785   9.435  0.00  0.00    -0.348 OA
HETATM    5  C   UNK N   1      37.009  12.746  10.779  0.00  0.00     0.084 A 
HETATM    6  C   UNK N   1      37.902  11.981  11.558  0.00  0.00     0.039 A 
HETATM    7  C   UNK N   1      37.679  11.787  12.933  0.00  0.00     0.015 A 
HETATM    8  C   UNK N   1      36.571  12.391  13.538  0.00  0.00    -0.025 A 
HETATM    9  C   UNK N   1      35.761  13.211  12.782  0.00  0.00     0.032 A 
HETATM   10  C   UNK N   1      35.925  13.405  11.432  0.00  0.00     0.066 A 
HETATM   11  C   UNK N   1      34.795  14.161  10.829  0.00  0.00     0.257 C 
HETATM   12  O   UNK N   1      34.189  14.959  11.531  0.00  0.00    -0.267 OA
ENDROOT
BRANCH   8  13
HETATM   13  C   UNK N   1      36.111  12.115  14.911  0.00  0.00    -0.026 A 
HETATM   14  C   UNK N   1      35.328  13.010  15.649  0.00  0.00     0.015 A 
HETATM   15  C   UNK N   1      34.938  12.670  16.952  0.00  0.00     0.038 A 
HETATM   16  C   UNK N   1      35.354  11.449  17.528  0.00  0.00     0.078 A 
HETATM   17  C   UNK N   1      36.173  10.594  16.808  0.00  0.00     0.038 A 
HETATM   18  C   UNK N   1      36.540  10.920  15.518  0.00  0.00     0.015 A 
BRANCH  16  19
HETATM   19  O   UNK N   1      34.938  11.043  18.748  0.00  0.00    -0.255 OA
BRANCH  19  20
HETATM   20  C   UNK N   1      35.344  11.605  19.935  0.00  0.00     0.530 C 
HETATM   21  F   UNK N   1      35.312  12.985  19.831  0.00  0.00    -0.144 F 
HETATM   22  F   UNK N   1      34.473  11.212  20.932  0.00  0.00    -0.144 F 
HETATM   23  F   UNK N   1      36.623  11.184  20.251  0.00  0.00    -0.144 F 
ENDBRANCH  19  20
ENDBRANCH  16  19
ENDBRANCH   8  13
BRANCH   1  24
HETATM   24  C   UNK N   1      33.003  14.353   9.226  0.00  0.00     0.202 C 
BRANCH  24  25
HETATM   25  C   UNK N   1      33.051  15.602   8.437  0.00  0.00     0.099 A 
HETATM   26  N   UNK N   1      33.172  16.812   9.044  0.00  0.00    -0.354 N 
HETATM   27  C   UNK N   1      33.255  17.950   8.312  0.00  0.00     0.091 A 
ATOM     28  HN  UNK N   1      33.201  16.864  10.063  1.00  0.00     0.166 HD
HETATM   29  C   UNK N   1      33.220  17.882   6.921  0.00  0.00     0.034 A 
HETATM   30  C   UNK N   1      33.091  16.634   6.316  0.00  0.00     0.091 A 
HETATM   31  N   UNK N   1      33.007  15.518   7.082  0.00  0.00    -0.354 N 
ATOM     32  HN  UNK N   1      32.911  14.606   6.636  1.00  0.00     0.166 HD
ENDBRANCH  24  25
ENDBRANCH   1  24
TORSDOF 5
ENDMDL
MODEL 7
REMARK VINA RESULT:      -7.4      8.120     11.873
REMARK  5 active torsions:
REMARK  status: ('A' for Active; 'I' for Inactive)
REMARK    1  A    between atoms: C_5  and  C_9 
REMARK    2  A    between atoms: C_9  and  N_10 
REMARK    3  A    between atoms: C_17  and  C_22 
REMARK    4  A    between atoms: C_25  and  O_28 
REMARK    5  A    between atoms: O_28  and  C_29 
ROOT
HETATM    1  N   UNK N   1      34.789  14.104  10.186  0.00  0.00    -0.339 N 
HETATM    2  C   UNK N   1      34.640  15.120  11.194  0.00  0.00     0.153 C 
HETATM    3  C   UNK N   1      35.817  16.068  11.082  0.00  0.00     0.195 C 
HETATM    4  O   UNK N   1      35.487  17.126  10.266  0.00  0.00    -0.348 OA
HETATM    5  C   UNK N   1      34.890  17.036   9.046  0.00  0.00     0.084 A 
HETATM    6  C   UNK N   1      34.476  18.236   8.431  0.00  0.00     0.039 A 
HETATM    7  C   UNK N   1      33.739  18.218   7.234  0.00  0.00     0.015 A 
HETATM    8  C   UNK N   1      33.443  16.989   6.631  0.00  0.00    -0.025 A 
HETATM    9  C   UNK N   1      33.935  15.832   7.196  0.00  0.00     0.032 A 
HETATM   10  C   UNK N   1      34.633  15.802   8.378  0.00  0.00     0.066 A 
HETATM   11  C   UNK N   1      34.859  14.415   8.865  0.00  0.00     0.257 C 
HETATM   12  O   UNK N   1      34.939  13.515   8.040  0.00  0.00    -0.267 OA
ENDROOT
BRANCH   8  13
HETATM   13  C   UNK N   1      32.521  16.813   5.494  0.00  0.00    -0.026 A 
HETATM   14  C   UNK N   1      32.955  16.699   4.170  0.00  0.00     0.015 A 
HETATM   15  C   UNK N   1      32.009  16.539   3.146  0.00  0.00     0.038 A 
HETATM   16  C   UNK N   1      30.628  16.521   3.446  0.00  0.00     0.078 A 
HETATM   17  C   UNK N   1      30.207  16.687   4.755  0.00  0.00     0.038 A 
HETATM   18  C   UNK N   1      31.139  16.825   5.764  0.00  0.00     0.015 A 
BRANCH  16  19
HETATM   19  O   UNK N   1      29.685  16.289   2.506  0.00  0.00    -0.255 OA
BRANCH  19  20
HETATM   20  C   UNK N   1      28.910  15.156   2.445  0.00  0.00     0.530 C 
HETATM   21  F   UNK N   1      28.633  14.852   1.123  0.00  0.00    -0.144 F 
HETATM   22  F   UNK N   1      29.612  14.108   3.006  0.00  0.00    -0.144 F 
HETATM   23  F   UNK N   1      27.731  15.344   3.143  0.00  0.00    -0.144 F 
ENDBRANCH  19  20
ENDBRANCH  16  19
ENDBRANCH   8  13
BRANCH   1  24
HETATM   24  C   UNK N   1      34.644  12.713  10.561  0.00  0.00     0.202 C 
BRANCH  24  25
HETATM   25  C   UNK N   1      35.300  12.374  11.842  0.00  0.00     0.099 A 
HETATM   26  N   UNK N   1      36.654  12.315  11.943  0.00  0.00    -0.354 N 
HETATM   27  C   UNK N   1      37.249  12.042  13.130  0.00  0.00     0.091 A 
ATOM     28  HN  UNK N   1      37.229  12.476  11.116  1.00  0.00     0.166 HD
HETATM   29  C   UNK N   1      36.468  11.825  14.263  0.00  0.00     0.034 A 
HETATM   30  C   UNK N   1      35.081  11.886  14.139  0.00  0.00     0.091 A 
HETATM   31  N   UNK N   1      34.522  12.157  12.934  0.00  0.00    -0.354 N 
ATOM     32  HN  UNK N   1      33.507  12.199  12.847  1.00  0.00     0.166 HD
ENDBRANCH  24  25
ENDBRANCH   1  24
TORSDOF 5
ENDMDL
MODEL 8
REMARK VINA RESULT:      -7.2      5.461      8.996
REMARK  5 active torsions:
REMARK  status: ('A' for Active; 'I' for Inactive)
REMARK    1  A    between atoms: C_5  and  C_9 
REMARK    2  A    between atoms: C_9  and  N_10 
REMARK    3  A    between atoms: C_17  and  C_22 
REMARK    4  A    between atoms: C_25  and  O_28 
REMARK    5  A    between atoms: O_28  and  C_29 
ROOT
HETATM    1  N   UNK N   1      24.618  16.712   3.875  0.00  0.00    -0.339 N 
HETATM    2  C   UNK N   1      24.309  15.317   3.705  0.00  0.00     0.153 C 
HETATM    3  C   UNK N   1      24.378  14.999   2.226  0.00  0.00     0.195 C 
HETATM    4  O   UNK N   1      25.637  14.543   1.905  0.00  0.00    -0.348 OA
HETATM    5  C   UNK N   1      26.812  15.121   2.275  0.00  0.00     0.084 A 
HETATM    6  C   UNK N   1      28.002  14.417   1.996  0.00  0.00     0.039 A 
HETATM    7  C   UNK N   1      29.244  14.886   2.461  0.00  0.00     0.015 A 
HETATM    8  C   UNK N   1      29.297  16.085   3.181  0.00  0.00    -0.025 A 
HETATM    9  C   UNK N   1      28.137  16.807   3.365  0.00  0.00     0.032 A 
HETATM   10  C   UNK N   1      26.901  16.372   2.954  0.00  0.00     0.066 A 
HETATM   11  C   UNK N   1      25.802  17.236   3.463  0.00  0.00     0.257 C 
HETATM   12  O   UNK N   1      26.040  18.418   3.670  0.00  0.00    -0.267 OA
ENDROOT
BRANCH   8  13
HETATM   13  C   UNK N   1      30.490  16.586   3.889  0.00  0.00    -0.026 A 
HETATM   14  C   UNK N   1      31.727  16.770   3.264  0.00  0.00     0.015 A 
HETATM   15  C   UNK N   1      32.813  17.247   4.014  0.00  0.00     0.038 A 
HETATM   16  C   UNK N   1      32.668  17.512   5.394  0.00  0.00     0.078 A 
HETATM   17  C   UNK N   1      31.451  17.277   6.014  0.00  0.00     0.038 A 
HETATM   18  C   UNK N   1      30.378  16.826   5.272  0.00  0.00     0.015 A 
BRANCH  16  19
HETATM   19  O   UNK N   1      33.661  18.048   6.138  0.00  0.00    -0.255 OA
BRANCH  19  20
HETATM   20  C   UNK N   1      33.792  17.879   7.496  0.00  0.00     0.530 C 
HETATM   21  F   UNK N   1      34.989  18.431   7.918  0.00  0.00    -0.144 F 
HETATM   22  F   UNK N   1      32.752  18.534   8.126  0.00  0.00    -0.144 F 
HETATM   23  F   UNK N   1      33.751  16.536   7.818  0.00  0.00    -0.144 F 
ENDBRANCH  19  20
ENDBRANCH  16  19
ENDBRANCH   8  13
BRANCH   1  24
HETATM   24  C   UNK N   1      23.749  17.532   4.694  0.00  0.00     0.202 C 
BRANCH  24  25
HETATM   25  C   UNK N   1      22.713  18.250   3.920  0.00  0.00     0.099 A 
HETATM   26  N   UNK N   1      21.504  17.681   3.670  0.00  0.00    -0.354 N 
HETATM   27  C   UNK N   1      20.546  18.361   2.993  0.00  0.00     0.091 A 
ATOM     28  HN  UNK N   1      21.316  16.732   3.994  1.00  0.00     0.166 HD
HETATM   29  C   UNK N   1      20.797  19.658   2.552  0.00  0.00     0.034 A 
HETATM   30  C   UNK N   1      22.043  20.222   2.814  0.00  0.00     0.091 A 
HETATM   31  N   UNK N   1      22.978  19.511   3.490  0.00  0.00    -0.354 N 
ATOM     32  HN  UNK N   1      23.890  19.926   3.679  1.00  0.00     0.166 HD
ENDBRANCH  24  25
ENDBRANCH   1  24
TORSDOF 5
ENDMDL
MODEL 9
REMARK VINA RESULT:      -6.9      9.878     13.367
REMARK  5 active torsions:
REMARK  status: ('A' for Active; 'I' for Inactive)
REMARK    1  A    between atoms: C_5  and  C_9 
REMARK    2  A    between atoms: C_9  and  N_10 
REMARK    3  A    between atoms: C_17  and  C_22 
REMARK    4  A    between atoms: C_25  and  O_28 
REMARK    5  A    between atoms: O_28  and  C_29 
ROOT
HETATM    1  N   UNK N   1      33.999  14.647   7.581  0.00  0.00    -0.339 N 
HETATM    2  C   UNK N   1      34.800  13.785   6.754  0.00  0.00     0.153 C 
HETATM    3  C   UNK N   1      36.138  14.461   6.531  0.00  0.00     0.195 C 
HETATM    4  O   UNK N   1      37.039  14.036   7.483  0.00  0.00    -0.348 OA
HETATM    5  C   UNK N   1      36.810  13.967   8.822  0.00  0.00     0.084 A 
HETATM    6  C   UNK N   1      37.793  13.347   9.622  0.00  0.00     0.039 A 
HETATM    7  C   UNK N   1      37.574  13.123  10.992  0.00  0.00     0.015 A 
HETATM    8  C   UNK N   1      36.374  13.552  11.572  0.00  0.00    -0.025 A 
HETATM    9  C   UNK N   1      35.464  14.238  10.797  0.00  0.00     0.032 A 
HETATM   10  C   UNK N   1      35.625  14.453   9.450  0.00  0.00     0.066 A 
HETATM   11  C   UNK N   1      34.405  15.028   8.821  0.00  0.00     0.257 C 
HETATM   12  O   UNK N   1      33.670  15.724   9.508  0.00  0.00    -0.267 OA
ENDROOT
BRANCH   8  13
HETATM   13  C   UNK N   1      35.933  13.210  12.937  0.00  0.00    -0.026 A 
HETATM   14  C   UNK N   1      34.912  12.291  13.202  0.00  0.00     0.015 A 
HETATM   15  C   UNK N   1      34.551  12.028  14.532  0.00  0.00     0.038 A 
HETATM   16  C   UNK N   1      35.192  12.703  15.594  0.00  0.00     0.078 A 
HETATM   17  C   UNK N   1      36.165  13.650  15.318  0.00  0.00     0.038 A 
HETATM   18  C   UNK N   1      36.534  13.895  14.011  0.00  0.00     0.015 A 
BRANCH  16  19
HETATM   19  O   UNK N   1      34.934  12.425  16.891  0.00  0.00    -0.255 OA
BRANCH  19  20
HETATM   20  C   UNK N   1      35.369  11.296  17.545  0.00  0.00     0.530 C 
HETATM   21  F   UNK N   1      36.589  10.899  17.025  0.00  0.00    -0.144 F 
HETATM   22  F   UNK N   1      35.530  11.594  18.884  0.00  0.00    -0.144 F 
HETATM   23  F   UNK N   1      34.443  10.278  17.410  0.00  0.00    -0.144 F 
ENDBRANCH  19  20
ENDBRANCH  16  19
ENDBRANCH   8  13
BRANCH   1  24
HETATM   24  C   UNK N   1      32.638  14.942   7.182  0.00  0.00     0.202 C 
BRANCH  24  25
HETATM   25  C   UNK N   1      32.544  15.661   5.893  0.00  0.00     0.099 A 
HETATM   26  N   UNK N   1      31.866  15.130   4.841  0.00  0.00    -0.354 N 
HETATM   27  C   UNK N   1      31.751  15.812   3.675  0.00  0.00     0.091 A 
ATOM     28  HN  UNK N   1      31.440  14.207   4.930  1.00  0.00     0.166 HD
HETATM   29  C   UNK N   1      32.327  17.074   3.552  0.00  0.00     0.034 A 
HETATM   30  C   UNK N   1      33.021  17.601   4.639  0.00  0.00     0.091 A 
HETATM   31  N   UNK N   1      33.119  16.887   5.787  0.00  0.00    -0.354 N 
ATOM     32  HN  UNK N   1      33.629  17.275   6.580  1.00  0.00     0.166 HD
ENDBRANCH  24  25
ENDBRANCH   1  24
TORSDOF 5
ENDMDL
