MODEL 1
REMARK VINA RESULT:      -6.1      0.000      0.000
REMARK  5 active torsions:
REMARK  status: ('A' for Active; 'I' for Inactive)
REMARK    1  A    between atoms: C_16  and  C_14 
REMARK    2  A    between atoms: C_17  and  C_14 
REMARK    3  A    between atoms: C_16  and  C_15 
REMARK    4  A    between atoms: N_20  and  C_15 
REMARK    5  A    between atoms: C_19  and  C_18 
ROOT
HETATM    1  C   UNK N   1      29.132  25.207  -4.014  0.00  0.00     0.007 A 
HETATM    2  C   UNK N   1      27.095  24.024  -3.458  0.00  0.00     0.007 A 
HETATM    3  C   UNK N   1      28.383  26.263  -4.526  0.00  0.00     0.008 A 
HETATM    4  C   UNK N   1      26.342  25.077  -3.976  0.00  0.00     0.008 A 
HETATM    5  C   UNK N   1      28.491  24.091  -3.463  0.00  0.00    -0.058 A 
HETATM    6  C   UNK N   1      26.977  26.221  -4.497  0.00  0.00    -0.051 A 
ENDROOT
BRANCH   5   7
HETATM    7  C   UNK N   1      29.282  23.034  -2.769  0.00  0.00     0.044 C 
BRANCH   7   8
HETATM    8  C   UNK N   1      30.477  22.609  -3.634  0.00  0.00     0.014 C 
HETATM    9  C   UNK N   1      31.654  22.083  -2.817  0.00  0.00     0.012 C 
BRANCH   8  10
HETATM   10  C   UNK N   1      30.091  21.617  -4.733  0.00  0.00     0.277 C 
BRANCH  10  11
HETATM   11  N   UNK N   1      30.521  22.021  -6.080  0.00  0.00     0.088 N 
HETATM   12  C   UNK N   1      30.815  20.820  -6.871  0.00  0.00     0.272 C 
HETATM   13  C   UNK N   1      29.549  20.011  -7.183  0.00  0.00     0.030 C 
HETATM   14  C   UNK N   1      28.542  20.887  -7.914  0.00  0.00     0.003 C 
HETATM   15  C   UNK N   1      28.241  22.124  -7.084  0.00  0.00     0.030 C 
HETATM   16  C   UNK N   1      29.542  22.868  -6.782  0.00  0.00     0.272 C 
ENDBRANCH  10  11
ENDBRANCH   8  10
ENDBRANCH   7   8
ENDBRANCH   5   7
BRANCH   6  17
HETATM   17  C   UNK N   1      26.182  27.417  -4.978  0.00  0.00    -0.024 C 
HETATM   18  C   UNK N   1      24.888  27.023  -5.677  0.00  0.00     0.019 C 
HETATM   19  C   UNK N   1      25.815  28.287  -3.789  0.00  0.00     0.019 C 
HETATM   20  C   UNK N   1      27.008  28.239  -5.949  0.00  0.00     0.019 C 
ENDBRANCH   6  17
TORSDOF 5
ENDMDL
MODEL 2
REMARK VINA RESULT:      -6.1      2.138      4.364
REMARK  5 active torsions:
REMARK  status: ('A' for Active; 'I' for Inactive)
REMARK    1  A    between atoms: C_16  and  C_14 
REMARK    2  A    between atoms: C_17  and  C_14 
REMARK    3  A    between atoms: C_16  and  C_15 
REMARK    4  A    between atoms: N_20  and  C_15 
REMARK    5  A    between atoms: C_19  and  C_18 
ROOT
HETATM    1  C   UNK N   1      27.078  27.355  -7.021  0.00  0.00     0.007 A 
HETATM    2  C   UNK N   1      25.415  26.956  -5.309  0.00  0.00     0.007 A 
HETATM    3  C   UNK N   1      27.498  28.501  -6.350  0.00  0.00     0.008 A 
HETATM    4  C   UNK N   1      25.829  28.106  -4.638  0.00  0.00     0.008 A 
HETATM    5  C   UNK N   1      26.046  26.570  -6.494  0.00  0.00    -0.058 A 
HETATM    6  C   UNK N   1      26.892  28.882  -5.139  0.00  0.00    -0.051 A 
ENDROOT
BRANCH   5   7
HETATM    7  C   UNK N   1      25.702  25.260  -7.118  0.00  0.00     0.044 C 
BRANCH   7   8
HETATM    8  C   UNK N   1      26.197  24.104  -6.238  0.00  0.00     0.014 C 
HETATM    9  C   UNK N   1      25.610  22.752  -6.634  0.00  0.00     0.012 C 
BRANCH   8  10
HETATM   10  C   UNK N   1      27.723  24.032  -6.154  0.00  0.00     0.277 C 
BRANCH  10  11
HETATM   11  N   UNK N   1      28.231  23.618  -4.837  0.00  0.00     0.088 N 
HETATM   12  C   UNK N   1      29.661  23.307  -4.950  0.00  0.00     0.272 C 
HETATM   13  C   UNK N   1      30.503  24.561  -5.223  0.00  0.00     0.030 C 
HETATM   14  C   UNK N   1      30.274  25.588  -4.123  0.00  0.00     0.003 C 
HETATM   15  C   UNK N   1      28.792  25.906  -4.021  0.00  0.00     0.030 C 
HETATM   16  C   UNK N   1      28.006  24.616  -3.779  0.00  0.00     0.272 C 
ENDBRANCH  10  11
ENDBRANCH   8  10
ENDBRANCH   7   8
ENDBRANCH   5   7
BRANCH   6  17
HETATM   17  C   UNK N   1      27.422  30.082  -4.381  0.00  0.00    -0.024 C 
HETATM   18  C   UNK N   1      26.314  30.937  -3.782  0.00  0.00     0.019 C 
HETATM   19  C   UNK N   1      28.303  29.604  -3.240  0.00  0.00     0.019 C 
HETATM   20  C   UNK N   1      28.248  30.960  -5.302  0.00  0.00     0.019 C 
ENDBRANCH   6  17
TORSDOF 5
ENDMDL
MODEL 3
REMARK VINA RESULT:      -6.0     10.426     12.786
REMARK  5 active torsions:
REMARK  status: ('A' for Active; 'I' for Inactive)
REMARK    1  A    between atoms: C_16  and  C_14 
REMARK    2  A    between atoms: C_17  and  C_14 
REMARK    3  A    between atoms: C_16  and  C_15 
REMARK    4  A    between atoms: N_20  and  C_15 
REMARK    5  A    between atoms: C_19  and  C_18 
ROOT
HETATM    1  C   UNK N   1      29.378  17.303   6.022  0.00  0.00     0.007 A 
HETATM    2  C   UNK N   1      28.945  18.554   8.048  0.00  0.00     0.007 A 
HETATM    3  C   UNK N   1      28.442  18.078   5.341  0.00  0.00     0.008 A 
HETATM    4  C   UNK N   1      28.003  19.328   7.370  0.00  0.00     0.008 A 
HETATM    5  C   UNK N   1      29.644  17.550   7.374  0.00  0.00    -0.058 A 
HETATM    6  C   UNK N   1      27.755  19.114   6.001  0.00  0.00    -0.051 A 
ENDROOT
BRANCH   5   7
HETATM    7  C   UNK N   1      30.756  16.836   8.065  0.00  0.00     0.044 C 
BRANCH   7   8
HETATM    8  C   UNK N   1      32.107  17.244   7.461  0.00  0.00     0.014 C 
HETATM    9  C   UNK N   1      33.099  17.760   8.500  0.00  0.00     0.012 C 
BRANCH   8  10
HETATM   10  C   UNK N   1      32.736  16.139   6.610  0.00  0.00     0.277 C 
BRANCH  10  11
HETATM   11  N   UNK N   1      33.810  16.606   5.721  0.00  0.00     0.088 N 
HETATM   12  C   UNK N   1      34.362  15.459   4.990  0.00  0.00     0.272 C 
HETATM   13  C   UNK N   1      33.360  14.881   3.982  0.00  0.00     0.030 C 
HETATM   14  C   UNK N   1      32.925  15.965   3.006  0.00  0.00     0.003 C 
HETATM   15  C   UNK N   1      32.349  17.144   3.774  0.00  0.00     0.030 C 
HETATM   16  C   UNK N   1      33.382  17.654   4.780  0.00  0.00     0.272 C 
ENDBRANCH  10  11
ENDBRANCH   8  10
ENDBRANCH   7   8
ENDBRANCH   5   7
BRANCH   6  17
HETATM   17  C   UNK N   1      26.807  20.000   5.220  0.00  0.00    -0.024 C 
HETATM   18  C   UNK N   1      25.405  19.416   5.115  0.00  0.00     0.019 C 
HETATM   19  C   UNK N   1      26.694  21.346   5.915  0.00  0.00     0.019 C 
HETATM   20  C   UNK N   1      27.332  20.219   3.814  0.00  0.00     0.019 C 
ENDBRANCH   6  17
TORSDOF 5
ENDMDL
MODEL 4
REMARK VINA RESULT:      -5.9      2.346      6.831
REMARK  5 active torsions:
REMARK  status: ('A' for Active; 'I' for Inactive)
REMARK    1  A    between atoms: C_16  and  C_14 
REMARK    2  A    between atoms: C_17  and  C_14 
REMARK    3  A    between atoms: C_16  and  C_15 
REMARK    4  A    between atoms: N_20  and  C_15 
REMARK    5  A    between atoms: C_19  and  C_18 
ROOT
HETATM    1  C   UNK N   1      29.062  23.469  -4.649  0.00  0.00     0.007 A 
HETATM    2  C   UNK N   1      29.366  23.178  -2.265  0.00  0.00     0.007 A 
HETATM    3  C   UNK N   1      30.287  22.850  -4.883  0.00  0.00     0.008 A 
HETATM    4  C   UNK N   1      30.596  22.563  -2.497  0.00  0.00     0.008 A 
HETATM    5  C   UNK N   1      28.590  23.621  -3.340  0.00  0.00    -0.058 A 
HETATM    6  C   UNK N   1      31.063  22.371  -3.812  0.00  0.00    -0.051 A 
ENDROOT
BRANCH   5   7
HETATM    7  C   UNK N   1      27.212  24.134  -3.091  0.00  0.00     0.044 C 
BRANCH   7   8
HETATM    8  C   UNK N   1      26.772  25.056  -4.237  0.00  0.00     0.014 C 
HETATM    9  C   UNK N   1      25.630  24.479  -5.069  0.00  0.00     0.012 C 
BRANCH   8  10
HETATM   10  C   UNK N   1      26.441  26.473  -3.765  0.00  0.00     0.277 C 
BRANCH  10  11
HETATM   11  N   UNK N   1      27.622  27.316  -3.527  0.00  0.00     0.088 N 
HETATM   12  C   UNK N   1      28.349  27.492  -4.790  0.00  0.00     0.272 C 
HETATM   13  C   UNK N   1      27.561  28.344  -5.795  0.00  0.00     0.030 C 
HETATM   14  C   UNK N   1      27.237  29.699  -5.182  0.00  0.00     0.003 C 
HETATM   15  C   UNK N   1      26.480  29.504  -3.879  0.00  0.00     0.030 C 
HETATM   16  C   UNK N   1      27.301  28.625  -2.935  0.00  0.00     0.272 C 
ENDBRANCH  10  11
ENDBRANCH   8  10
ENDBRANCH   7   8
ENDBRANCH   5   7
BRANCH   6  17
HETATM   17  C   UNK N   1      32.349  21.623  -4.093  0.00  0.00    -0.024 C 
HETATM   18  C   UNK N   1      33.364  22.462  -4.858  0.00  0.00     0.019 C 
HETATM   19  C   UNK N   1      32.988  21.213  -2.778  0.00  0.00     0.019 C 
HETATM   20  C   UNK N   1      32.063  20.375  -4.907  0.00  0.00     0.019 C 
ENDBRANCH   6  17
TORSDOF 5
ENDMDL
MODEL 5
REMARK VINA RESULT:      -5.8     24.141     27.529
REMARK  5 active torsions:
REMARK  status: ('A' for Active; 'I' for Inactive)
REMARK    1  A    between atoms: C_16  and  C_14 
REMARK    2  A    between atoms: C_17  and  C_14 
REMARK    3  A    between atoms: C_16  and  C_15 
REMARK    4  A    between atoms: N_20  and  C_15 
REMARK    5  A    between atoms: C_19  and  C_18 
ROOT
HETATM    1  C   UNK N   1      34.418   9.484  18.247  0.00  0.00     0.007 A 
HETATM    2  C   UNK N   1      34.822  10.807  20.233  0.00  0.00     0.007 A 
HETATM    3  C   UNK N   1      33.557   8.660  18.967  0.00  0.00     0.008 A 
HETATM    4  C   UNK N   1      33.965   9.980  20.958  0.00  0.00     0.008 A 
HETATM    5  C   UNK N   1      35.041  10.569  18.873  0.00  0.00    -0.058 A 
HETATM    6  C   UNK N   1      33.303   8.908  20.329  0.00  0.00    -0.051 A 
ENDROOT
BRANCH   5   7
HETATM    7  C   UNK N   1      35.833  11.547  18.073  0.00  0.00     0.044 C 
BRANCH   7   8
HETATM    8  C   UNK N   1      34.949  12.727  17.646  0.00  0.00     0.014 C 
HETATM    9  C   UNK N   1      35.346  14.046  18.303  0.00  0.00     0.012 C 
BRANCH   8  10
HETATM   10  C   UNK N   1      34.857  12.881  16.127  0.00  0.00     0.277 C 
BRANCH  10  11
HETATM   11  N   UNK N   1      36.028  12.368  15.401  0.00  0.00     0.088 N 
HETATM   12  C   UNK N   1      35.575  11.492  14.314  0.00  0.00     0.272 C 
HETATM   13  C   UNK N   1      34.848  12.272  13.211  0.00  0.00     0.030 C 
HETATM   14  C   UNK N   1      35.758  13.361  12.662  0.00  0.00     0.003 C 
HETATM   15  C   UNK N   1      36.216  14.265  13.795  0.00  0.00     0.030 C 
HETATM   16  C   UNK N   1      36.904  13.426  14.873  0.00  0.00     0.272 C 
ENDBRANCH  10  11
ENDBRANCH   8  10
ENDBRANCH   7   8
ENDBRANCH   5   7
BRANCH   6  17
HETATM   17  C   UNK N   1      32.297   8.054  21.071  0.00  0.00    -0.024 C 
HETATM   18  C   UNK N   1      32.728   6.599  21.186  0.00  0.00     0.019 C 
HETATM   19  C   UNK N   1      32.122   8.595  22.480  0.00  0.00     0.019 C 
HETATM   20  C   UNK N   1      30.955   8.092  20.364  0.00  0.00     0.019 C 
ENDBRANCH   6  17
TORSDOF 5
ENDMDL
MODEL 6
REMARK VINA RESULT:      -5.8     24.766     28.084
REMARK  5 active torsions:
REMARK  status: ('A' for Active; 'I' for Inactive)
REMARK    1  A    between atoms: C_16  and  C_14 
REMARK    2  A    between atoms: C_17  and  C_14 
REMARK    3  A    between atoms: C_16  and  C_15 
REMARK    4  A    between atoms: N_20  and  C_15 
REMARK    5  A    between atoms: C_19  and  C_18 
ROOT
HETATM    1  C   UNK N   1      35.611  10.878  17.823  0.00  0.00     0.007 A 
HETATM    2  C   UNK N   1      35.167  13.235  18.148  0.00  0.00     0.007 A 
HETATM    3  C   UNK N   1      35.844  11.106  16.470  0.00  0.00     0.008 A 
HETATM    4  C   UNK N   1      35.395  13.465  16.791  0.00  0.00     0.008 A 
HETATM    5  C   UNK N   1      35.287  11.945  18.670  0.00  0.00    -0.058 A 
HETATM    6  C   UNK N   1      35.758  12.406  15.938  0.00  0.00    -0.051 A 
ENDROOT
BRANCH   5   7
HETATM    7  C   UNK N   1      35.196  11.736  20.144  0.00  0.00     0.044 C 
BRANCH   7   8
HETATM    8  C   UNK N   1      35.711  10.338  20.516  0.00  0.00     0.014 C 
HETATM    9  C   UNK N   1      37.158  10.340  21.004  0.00  0.00     0.012 C 
BRANCH   8  10
HETATM   10  C   UNK N   1      34.801   9.616  21.512  0.00  0.00     0.277 C 
BRANCH  10  11
HETATM   11  N   UNK N   1      34.523   8.215  21.161  0.00  0.00     0.088 N 
HETATM   12  C   UNK N   1      33.559   7.661  22.119  0.00  0.00     0.272 C 
HETATM   13  C   UNK N   1      32.170   8.296  21.971  0.00  0.00     0.030 C 
HETATM   14  C   UNK N   1      31.664   8.107  20.548  0.00  0.00     0.003 C 
HETATM   15  C   UNK N   1      32.666   8.689  19.566  0.00  0.00     0.030 C 
HETATM   16  C   UNK N   1      34.034   8.039  19.784  0.00  0.00     0.272 C 
ENDBRANCH  10  11
ENDBRANCH   8  10
ENDBRANCH   7   8
ENDBRANCH   5   7
BRANCH   6  17
HETATM   17  C   UNK N   1      36.101  12.644  14.483  0.00  0.00    -0.024 C 
HETATM   18  C   UNK N   1      36.438  14.099  14.186  0.00  0.00     0.019 C 
HETATM   19  C   UNK N   1      37.312  11.806  14.110  0.00  0.00     0.019 C 
HETATM   20  C   UNK N   1      34.937  12.241  13.597  0.00  0.00     0.019 C 
ENDBRANCH   6  17
TORSDOF 5
ENDMDL
MODEL 7
REMARK VINA RESULT:      -5.6     17.422     20.816
REMARK  5 active torsions:
REMARK  status: ('A' for Active; 'I' for Inactive)
REMARK    1  A    between atoms: C_16  and  C_14 
REMARK    2  A    between atoms: C_17  and  C_14 
REMARK    3  A    between atoms: C_16  and  C_15 
REMARK    4  A    between atoms: N_20  and  C_15 
REMARK    5  A    between atoms: C_19  and  C_18 
ROOT
HETATM    1  C   UNK N   1      33.971  14.725  10.745  0.00  0.00     0.007 A 
HETATM    2  C   UNK N   1      35.385  16.683  10.591  0.00  0.00     0.007 A 
HETATM    3  C   UNK N   1      33.265  15.142   9.619  0.00  0.00     0.008 A 
HETATM    4  C   UNK N   1      34.675  17.107   9.467  0.00  0.00     0.008 A 
HETATM    5  C   UNK N   1      35.044  15.486  11.225  0.00  0.00    -0.058 A 
HETATM    6  C   UNK N   1      33.620  16.330   8.953  0.00  0.00    -0.051 A 
ENDROOT
BRANCH   5   7
HETATM    7  C   UNK N   1      35.903  14.965  12.326  0.00  0.00     0.044 C 
BRANCH   7   8
HETATM    8  C   UNK N   1      35.894  13.430  12.328  0.00  0.00     0.014 C 
HETATM    9  C   UNK N   1      37.223  12.819  11.893  0.00  0.00     0.012 C 
BRANCH   8  10
HETATM   10  C   UNK N   1      35.435  12.840  13.664  0.00  0.00     0.277 C 
BRANCH  10  11
HETATM   11  N   UNK N   1      36.536  12.501  14.578  0.00  0.00     0.088 N 
HETATM   12  C   UNK N   1      36.618  13.521  15.631  0.00  0.00     0.272 C 
HETATM   13  C   UNK N   1      35.409  13.473  16.575  0.00  0.00     0.030 C 
HETATM   14  C   UNK N   1      35.291  12.088  17.194  0.00  0.00     0.003 C 
HETATM   15  C   UNK N   1      35.201  11.042  16.096  0.00  0.00     0.030 C 
HETATM   16  C   UNK N   1      36.415  11.160  15.173  0.00  0.00     0.272 C 
ENDBRANCH  10  11
ENDBRANCH   8  10
ENDBRANCH   7   8
ENDBRANCH   5   7
BRANCH   6  17
HETATM   17  C   UNK N   1      32.896  16.720   7.682  0.00  0.00    -0.024 C 
HETATM   18  C   UNK N   1      32.457  15.516   6.859  0.00  0.00     0.019 C 
HETATM   19  C   UNK N   1      31.650  17.513   8.037  0.00  0.00     0.019 C 
HETATM   20  C   UNK N   1      33.792  17.582   6.812  0.00  0.00     0.019 C 
ENDBRANCH   6  17
TORSDOF 5
ENDMDL
MODEL 8
REMARK VINA RESULT:      -5.5     20.501     24.154
REMARK  5 active torsions:
REMARK  status: ('A' for Active; 'I' for Inactive)
REMARK    1  A    between atoms: C_16  and  C_14 
REMARK    2  A    between atoms: C_17  and  C_14 
REMARK    3  A    between atoms: C_16  and  C_15 
REMARK    4  A    between atoms: N_20  and  C_15 
REMARK    5  A    between atoms: C_19  and  C_18 
ROOT
HETATM    1  C   UNK N   1      34.928  10.359  15.338  0.00  0.00     0.007 A 
HETATM    2  C   UNK N   1      35.203  12.688  15.938  0.00  0.00     0.007 A 
HETATM    3  C   UNK N   1      35.086   9.994  16.673  0.00  0.00     0.008 A 
HETATM    4  C   UNK N   1      35.368  12.324  17.275  0.00  0.00     0.008 A 
HETATM    5  C   UNK N   1      34.969  11.709  14.969  0.00  0.00    -0.058 A 
HETATM    6  C   UNK N   1      35.290  10.973  17.663  0.00  0.00    -0.051 A 
ENDROOT
BRANCH   5   7
HETATM    7  C   UNK N   1      34.640  12.118  13.574  0.00  0.00     0.044 C 
BRANCH   7   8
HETATM    8  C   UNK N   1      35.670  13.133  13.058  0.00  0.00     0.014 C 
HETATM    9  C   UNK N   1      36.883  12.479  12.402  0.00  0.00     0.012 C 
BRANCH   8  10
HETATM   10  C   UNK N   1      35.055  14.188  12.137  0.00  0.00     0.277 C 
BRANCH  10  11
HETATM   11  N   UNK N   1      35.673  14.253  10.805  0.00  0.00     0.088 N 
HETATM   12  C   UNK N   1      34.659  13.948   9.789  0.00  0.00     0.272 C 
HETATM   13  C   UNK N   1      33.595  15.050   9.687  0.00  0.00     0.030 C 
HETATM   14  C   UNK N   1      34.261  16.384   9.380  0.00  0.00     0.003 C 
HETATM   15  C   UNK N   1      35.304  16.692  10.442  0.00  0.00     0.030 C 
HETATM   16  C   UNK N   1      36.315  15.546  10.515  0.00  0.00     0.272 C 
ENDBRANCH  10  11
ENDBRANCH   8  10
ENDBRANCH   7   8
ENDBRANCH   5   7
BRANCH   6  17
HETATM   17  C   UNK N   1      35.372  10.561  19.117  0.00  0.00    -0.024 C 
HETATM   18  C   UNK N   1      36.702   9.910  19.472  0.00  0.00     0.019 C 
HETATM   19  C   UNK N   1      35.213  11.790  19.996  0.00  0.00     0.019 C 
HETATM   20  C   UNK N   1      34.265   9.578  19.448  0.00  0.00     0.019 C 
ENDBRANCH   6  17
TORSDOF 5
ENDMDL
MODEL 9
REMARK VINA RESULT:      -5.5     14.689     17.027
REMARK  5 active torsions:
REMARK  status: ('A' for Active; 'I' for Inactive)
REMARK    1  A    between atoms: C_16  and  C_14 
REMARK    2  A    between atoms: C_17  and  C_14 
REMARK    3  A    between atoms: C_16  and  C_15 
REMARK    4  A    between atoms: N_20  and  C_15 
REMARK    5  A    between atoms: C_19  and  C_18 
ROOT
HETATM    1  C   UNK N   1      21.985  14.795   6.828  0.00  0.00     0.007 A 
HETATM    2  C   UNK N   1      20.516  15.019   8.738  0.00  0.00     0.007 A 
HETATM    3  C   UNK N   1      22.800  13.928   7.552  0.00  0.00     0.008 A 
HETATM    4  C   UNK N   1      21.334  14.156   9.468  0.00  0.00     0.008 A 
HETATM    5  C   UNK N   1      20.832  15.330   7.413  0.00  0.00    -0.058 A 
HETATM    6  C   UNK N   1      22.475  13.582   8.877  0.00  0.00    -0.051 A 
ENDROOT
BRANCH   5   7
HETATM    7  C   UNK N   1      19.872  16.126   6.595  0.00  0.00     0.044 C 
BRANCH   7   8
HETATM    8  C   UNK N   1      19.878  15.636   5.140  0.00  0.00     0.014 C 
HETATM    9  C   UNK N   1      18.935  14.461   4.896  0.00  0.00     0.012 C 
BRANCH   8  10
HETATM   10  C   UNK N   1      19.621  16.759   4.134  0.00  0.00     0.277 C 
BRANCH  10  11
HETATM   11  N   UNK N   1      20.665  16.894   3.107  0.00  0.00     0.088 N 
HETATM   12  C   UNK N   1      20.257  17.917   2.137  0.00  0.00     0.272 C 
HETATM   13  C   UNK N   1      20.248  19.323   2.751  0.00  0.00     0.030 C 
HETATM   14  C   UNK N   1      21.625  19.651   3.312  0.00  0.00     0.003 C 
HETATM   15  C   UNK N   1      22.034  18.589   4.319  0.00  0.00     0.030 C 
HETATM   16  C   UNK N   1      21.994  17.211   3.656  0.00  0.00     0.272 C 
ENDBRANCH  10  11
ENDBRANCH   8  10
ENDBRANCH   7   8
ENDBRANCH   5   7
BRANCH   6  17
HETATM   17  C   UNK N   1      23.325  12.570   9.616  0.00  0.00    -0.024 C 
HETATM   18  C   UNK N   1      23.424  11.237   8.888  0.00  0.00     0.019 C 
HETATM   19  C   UNK N   1      24.735  13.117   9.769  0.00  0.00     0.019 C 
HETATM   20  C   UNK N   1      22.750  12.310  10.996  0.00  0.00     0.019 C 
ENDBRANCH   6  17
TORSDOF 5
ENDMDL
