MODEL 1
REMARK VINA RESULT:      -8.5      0.000      0.000
REMARK  6 active torsions:
REMARK  status: ('A' for Active; 'I' for Inactive)
REMARK    1  A    between atoms: C_6  and  O_10 
REMARK    2  A    between atoms: C_7  and  O_8 
REMARK    3  A    between atoms: C_19  and  O_20 
REMARK    4  A    between atoms: O_20  and  C_21 
REMARK    5  A    between atoms: C_30  and  O_35 
REMARK    6  A    between atoms: C_47  and  O_52 
ROOT
HETATM    1  C   UNK N   1      25.700  20.937   3.386  0.00  0.00     0.051 C 
HETATM    2  C   UNK N   1      24.979  19.641   3.517  0.00  0.00    -0.025 A 
HETATM    3  C   UNK N   1      23.585  19.667   3.382  0.00  0.00     0.017 A 
HETATM    4  C   UNK N   1      22.837  18.500   3.529  0.00  0.00    -0.044 A 
HETATM    5  C   UNK N   1      23.487  17.297   3.812  0.00  0.00     0.019 A 
HETATM    6  C   UNK N   1      24.871  17.252   3.971  0.00  0.00     0.108 A 
HETATM    7  C   UNK N   1      25.640  18.411   3.822  0.00  0.00     0.107 A 
HETATM    8  C   UNK N   1      22.655  16.117   4.166  0.00  0.00     0.294 C 
HETATM    9  C   UNK N   1      21.845  15.421   3.007  0.00  0.00     0.279 C 
HETATM   10  C   UNK N   1      22.231  14.905   1.482  0.00  0.00     0.094 C 
HETATM   11  C   UNK N   1      21.037  14.166   1.082  0.00  0.00     0.072 C 
HETATM   12  C   UNK N   1      19.707  14.450   1.401  0.00  0.00     0.092 C 
HETATM   13  C   UNK N   1      18.777  13.692   0.691  0.00  0.00     0.090 A 
HETATM   14  C   UNK N   1      19.137  12.509   0.221  0.00  0.00     0.109 A 
HETATM   15  C   UNK N   1      20.356  11.973   0.598  0.00  0.00     0.004 C 
HETATM   16  C   UNK N   1      21.242  12.897   1.364  0.00  0.00     0.071 C 
HETATM   17  C   UNK N   1      20.396  10.523   0.352  0.00  0.00     0.054 C 
HETATM   18  O   UNK N   1      18.087  11.893  -0.313  0.00  0.00    -0.323 OA
HETATM   19  C   UNK N   1      16.966  12.696  -0.106  0.00  0.00     0.351 A 
HETATM   20  O   UNK N   1      17.457  13.813   0.583  0.00  0.00    -0.327 OA
HETATM   21  C   UNK N   1      19.568  14.228   2.908  0.00  0.00     0.262 C 
HETATM   22  N   UNK N   1      20.448  15.217   3.535  0.00  0.00     0.135 N 
HETATM   23  C   UNK N   1      19.796  16.543   3.629  0.00  0.00     0.391 C 
HETATM   24  C   UNK N   1      20.676  17.475   4.476  0.00  0.00     0.286 C 
HETATM   25  C   UNK N   1      21.328  18.555   3.553  0.00  0.00     0.079 C 
HETATM   26  N   UNK N   1      21.666  16.614   5.166  0.00  0.00     0.104 N 
HETATM   27  C   UNK N   1      22.236  17.279   6.337  0.00  0.00     0.311 C 
HETATM   28  C   UNK N   1      19.646  12.665   3.578  0.00  0.00     0.215 C 
HETATM   29  O   UNK N   1      20.511  11.486   3.326  0.00  0.00    -0.317 OA
HETATM   30  C   UNK N   1      21.433  10.410   2.974  0.00  0.00     0.290 C 
HETATM   31  O   UNK N   1      21.203   9.341   3.516  0.00  0.00    -0.262 OA
HETATM   32  C   UNK N   1      22.767  10.389   1.890  0.00  0.00     0.147 C 
HETATM   33  C   UNK N   1      23.306  11.591   0.718  0.00  0.00     0.118 C 
HETATM   34  S   UNK N   1      23.735  13.656   0.678  0.00  0.00    -0.158 SA
HETATM   35  C   UNK N   1      24.110  10.090   2.580  0.00  0.00     0.150 C 
HETATM   36  C   UNK N   1      24.823   8.980   2.100  0.00  0.00    -0.040 C 
HETATM   37  C   UNK N   1      26.041   9.482   1.754  0.00  0.00    -0.003 A 
HETATM   38  C   UNK N   1      26.960   8.996   0.837  0.00  0.00     0.050 A 
HETATM   39  C   UNK N   1      27.967   9.887   0.392  0.00  0.00     0.069 A 
HETATM   40  C   UNK N   1      28.063  11.182   0.950  0.00  0.00     0.039 A 
HETATM   41  C   UNK N   1      27.122  11.628   1.886  0.00  0.00     0.033 A 
HETATM   42  C   UNK N   1      26.109  10.756   2.229  0.00  0.00     0.039 A 
HETATM   43  N   UNK N   1      24.957  11.122   2.777  0.00  0.00    -0.378 N 
HETATM   44  C   UNK N   1      24.223   7.722   1.563  0.00  0.00     0.056 C 
HETATM   45  C   UNK N   1      22.730   7.918   1.565  0.00  0.00     0.119 C 
HETATM   46  N   UNK N   1      22.482   9.235   0.984  0.00  0.00    -0.402 N 
HETATM   47  H   UNK N   1      24.761  11.972   3.234  0.00  0.00     0.160 HD
HETATM   48  H   UNK N   1      22.141   9.358   0.031  0.00  0.00     0.154 HD
ENDROOT
BRANCH  16  49
HETATM   49  O   UNK N   1      22.157  12.678   2.488  0.00  0.00    -0.282 OA
BRANCH  49  50
HETATM   50  C   UNK N   1      22.973  13.051   3.592  0.00  0.00     0.259 C 
HETATM   51  O   UNK N   1      24.072  13.582   3.473  0.00  0.00    -0.265 OA
HETATM   52  C   UNK N   1      22.545  12.747   4.981  0.00  0.00     0.126 C 
ENDBRANCH  49  50
ENDBRANCH  16  49
BRANCH  39  53
HETATM   53  O   UNK N   1      28.799   9.556  -0.619  0.00  0.00    -0.356 OA
HETATM   54  C   UNK N   1      29.843  10.357  -1.022  0.00  0.00     0.210 C 
ENDBRANCH  39  53
BRANCH  23  55
HETATM   55  O   UNK N   1      18.546  16.426   4.242  0.00  0.00    -0.366 OA
HETATM   56  H   UNK N   1      18.074  15.592   4.393  0.00  0.00     0.212 HD
ENDBRANCH  23  55
BRANCH   6  57
HETATM   57  O   UNK N   1      25.468  16.096   4.318  0.00  0.00    -0.357 OA
HETATM   58  H   UNK N   1      25.837  15.401   3.808  0.00  0.00     0.217 HD
ENDBRANCH   6  57
BRANCH   7  59
HETATM   59  O   UNK N   1      26.985  18.289   4.004  0.00  0.00    -0.353 OA
HETATM   60  C   UNK N   1      27.682  18.563   5.155  0.00  0.00     0.210 C 
ENDBRANCH   7  59
TORSDOF 6
ENDMDL
MODEL 2
REMARK VINA RESULT:      -8.4      2.890      7.724
REMARK  6 active torsions:
REMARK  status: ('A' for Active; 'I' for Inactive)
REMARK    1  A    between atoms: C_6  and  O_10 
REMARK    2  A    between atoms: C_7  and  O_8 
REMARK    3  A    between atoms: C_19  and  O_20 
REMARK    4  A    between atoms: O_20  and  C_21 
REMARK    5  A    between atoms: C_30  and  O_35 
REMARK    6  A    between atoms: C_47  and  O_52 
ROOT
HETATM    1  C   UNK N   1      31.352  17.372   8.313  0.00  0.00     0.051 C 
HETATM    2  C   UNK N   1      30.460  16.818   7.256  0.00  0.00    -0.025 A 
HETATM    3  C   UNK N   1      30.899  15.667   6.587  0.00  0.00     0.017 A 
HETATM    4  C   UNK N   1      30.138  15.111   5.561  0.00  0.00    -0.044 A 
HETATM    5  C   UNK N   1      28.928  15.708   5.199  0.00  0.00     0.019 A 
HETATM    6  C   UNK N   1      28.483  16.866   5.838  0.00  0.00     0.108 A 
HETATM    7  C   UNK N   1      29.230  17.435   6.875  0.00  0.00     0.107 A 
HETATM    8  C   UNK N   1      28.243  15.220   3.974  0.00  0.00     0.294 C 
HETATM    9  C   UNK N   1      27.542  13.811   4.043  0.00  0.00     0.279 C 
HETATM   10  C   UNK N   1      26.504  13.092   5.114  0.00  0.00     0.094 C 
HETATM   11  C   UNK N   1      26.111  11.874   4.413  0.00  0.00     0.072 C 
HETATM   12  C   UNK N   1      26.894  11.081   3.570  0.00  0.00     0.092 C 
HETATM   13  C   UNK N   1      26.307   9.864   3.226  0.00  0.00     0.090 A 
HETATM   14  C   UNK N   1      24.990   9.757   3.247  0.00  0.00     0.109 A 
HETATM   15  C   UNK N   1      24.221  10.894   3.425  0.00  0.00     0.004 C 
HETATM   16  C   UNK N   1      24.988  12.126   3.776  0.00  0.00     0.071 C 
HETATM   17  C   UNK N   1      22.833  10.670   2.993  0.00  0.00     0.054 C 
HETATM   18  O   UNK N   1      24.621   8.571   2.773  0.00  0.00    -0.323 OA
HETATM   19  C   UNK N   1      25.769   7.902   2.351  0.00  0.00     0.351 A 
HETATM   20  O   UNK N   1      26.815   8.794   2.620  0.00  0.00    -0.327 OA
HETATM   21  C   UNK N   1      27.183  11.926   2.328  0.00  0.00     0.262 C 
HETATM   22  N   UNK N   1      27.969  13.068   2.803  0.00  0.00     0.135 N 
HETATM   23  C   UNK N   1      29.401  12.720   2.949  0.00  0.00     0.391 C 
HETATM   24  C   UNK N   1      30.200  13.999   3.242  0.00  0.00     0.286 C 
HETATM   25  C   UNK N   1      30.686  13.977   4.728  0.00  0.00     0.079 C 
HETATM   26  N   UNK N   1      29.306  15.140   2.931  0.00  0.00     0.104 N 
HETATM   27  C   UNK N   1      30.062  16.371   2.707  0.00  0.00     0.311 C 
HETATM   28  C   UNK N   1      25.950  12.311   1.219  0.00  0.00     0.215 C 
HETATM   29  O   UNK N   1      24.535  12.730   1.367  0.00  0.00    -0.317 OA
HETATM   30  C   UNK N   1      23.164  13.136   1.663  0.00  0.00     0.290 C 
HETATM   31  O   UNK N   1      22.438  13.236   0.687  0.00  0.00    -0.262 OA
HETATM   32  C   UNK N   1      22.391  13.459   3.164  0.00  0.00     0.147 C 
HETATM   33  C   UNK N   1      22.951  13.200   4.816  0.00  0.00     0.118 C 
HETATM   34  S   UNK N   1      24.655  13.642   5.979  0.00  0.00    -0.158 SA
HETATM   35  C   UNK N   1      21.888  14.907   3.293  0.00  0.00     0.150 C 
HETATM   36  C   UNK N   1      20.517  15.070   3.548  0.00  0.00    -0.040 C 
HETATM   37  C   UNK N   1      20.469  15.812   4.689  0.00  0.00    -0.003 A 
HETATM   38  C   UNK N   1      19.463  15.894   5.639  0.00  0.00     0.050 A 
HETATM   39  C   UNK N   1      19.804  16.438   6.901  0.00  0.00     0.069 A 
HETATM   40  C   UNK N   1      21.101  16.957   7.121  0.00  0.00     0.039 A 
HETATM   41  C   UNK N   1      22.083  16.868   6.128  0.00  0.00     0.033 A 
HETATM   42  C   UNK N   1      21.731  16.255   4.943  0.00  0.00     0.039 A 
HETATM   43  N   UNK N   1      22.596  15.751   4.072  0.00  0.00    -0.378 N 
HETATM   44  C   UNK N   1      19.425  14.182   3.049  0.00  0.00     0.056 C 
HETATM   45  C   UNK N   1      20.088  13.055   2.302  0.00  0.00     0.119 C 
HETATM   46  N   UNK N   1      21.181  12.583   3.147  0.00  0.00    -0.402 N 
HETATM   47  H   UNK N   1      23.558  15.952   4.008  0.00  0.00     0.160 HD
HETATM   48  H   UNK N   1      21.123  11.718   3.685  0.00  0.00     0.154 HD
ENDROOT
BRANCH  16  49
HETATM   49  O   UNK N   1      24.823  13.531   3.394  0.00  0.00    -0.282 OA
BRANCH  49  50
HETATM   50  C   UNK N   1      25.233  14.876   3.174  0.00  0.00     0.259 C 
HETATM   51  O   UNK N   1      25.288  15.720   4.060  0.00  0.00    -0.265 OA
HETATM   52  C   UNK N   1      25.562  15.347   1.804  0.00  0.00     0.126 C 
ENDBRANCH  49  50
ENDBRANCH  16  49
BRANCH  39  53
HETATM   53  O   UNK N   1      18.938  16.403   7.937  0.00  0.00    -0.356 OA
HETATM   54  C   UNK N   1      18.949  17.330   8.954  0.00  0.00     0.210 C 
ENDBRANCH  39  53
BRANCH  23  55
HETATM   55  O   UNK N   1      29.883  12.150   1.768  0.00  0.00    -0.366 OA
HETATM   56  H   UNK N   1      30.571  11.467   1.717  0.00  0.00     0.212 HD
ENDBRANCH  23  55
BRANCH   6  57
HETATM   57  O   UNK N   1      27.352  17.466   5.423  0.00  0.00    -0.357 OA
HETATM   58  H   UNK N   1      26.677  17.195   4.830  0.00  0.00     0.217 HD
ENDBRANCH   6  57
BRANCH   7  59
HETATM   59  O   UNK N   1      28.736  18.572   7.440  0.00  0.00    -0.353 OA
HETATM   60  C   UNK N   1      28.173  18.687   8.687  0.00  0.00     0.210 C 
ENDBRANCH   7  59
TORSDOF 6
ENDMDL
MODEL 3
REMARK VINA RESULT:      -8.3      9.980     14.283
REMARK  6 active torsions:
REMARK  status: ('A' for Active; 'I' for Inactive)
REMARK    1  A    between atoms: C_6  and  O_10 
REMARK    2  A    between atoms: C_7  and  O_8 
REMARK    3  A    between atoms: C_19  and  O_20 
REMARK    4  A    between atoms: O_20  and  C_21 
REMARK    5  A    between atoms: C_30  and  O_35 
REMARK    6  A    between atoms: C_47  and  O_52 
ROOT
HETATM    1  C   UNK N   1      28.034  16.669   5.608  0.00  0.00     0.051 C 
HETATM    2  C   UNK N   1      29.402  16.242   6.013  0.00  0.00    -0.025 A 
HETATM    3  C   UNK N   1      30.020  16.965   7.042  0.00  0.00     0.017 A 
HETATM    4  C   UNK N   1      31.314  16.650   7.451  0.00  0.00    -0.044 A 
HETATM    5  C   UNK N   1      31.998  15.603   6.827  0.00  0.00     0.019 A 
HETATM    6  C   UNK N   1      31.409  14.884   5.788  0.00  0.00     0.108 A 
HETATM    7  C   UNK N   1      30.108  15.182   5.367  0.00  0.00     0.107 A 
HETATM    8  C   UNK N   1      33.439  15.423   7.138  0.00  0.00     0.294 C 
HETATM    9  C   UNK N   1      33.814  14.841   8.554  0.00  0.00     0.279 C 
HETATM   10  C   UNK N   1      33.287  13.548   9.443  0.00  0.00     0.094 C 
HETATM   11  C   UNK N   1      34.240  13.510  10.549  0.00  0.00     0.072 C 
HETATM   12  C   UNK N   1      34.848  14.591  11.192  0.00  0.00     0.092 C 
HETATM   13  C   UNK N   1      35.538  14.246  12.354  0.00  0.00     0.090 A 
HETATM   14  C   UNK N   1      36.001  13.014  12.485  0.00  0.00     0.109 A 
HETATM   15  C   UNK N   1      35.956  12.155  11.402  0.00  0.00     0.004 C 
HETATM   16  C   UNK N   1      35.193  12.664  10.224  0.00  0.00     0.071 C 
HETATM   17  C   UNK N   1      36.877  11.023  11.583  0.00  0.00     0.054 C 
HETATM   18  O   UNK N   1      36.729  12.918  13.593  0.00  0.00    -0.323 OA
HETATM   19  C   UNK N   1      36.803  14.184  14.172  0.00  0.00     0.351 A 
HETATM   20  O   UNK N   1      36.063  15.006  13.312  0.00  0.00    -0.327 OA
HETATM   21  C   UNK N   1      35.782  15.234  10.165  0.00  0.00     0.262 C 
HETATM   22  N   UNK N   1      34.910  15.724   9.094  0.00  0.00     0.135 N 
HETATM   23  C   UNK N   1      34.314  17.036   9.435  0.00  0.00     0.391 C 
HETATM   24  C   UNK N   1      33.587  17.592   8.201  0.00  0.00     0.286 C 
HETATM   25  C   UNK N   1      32.043  17.531   8.437  0.00  0.00     0.079 C 
HETATM   26  N   UNK N   1      34.039  16.786   7.042  0.00  0.00     0.104 N 
HETATM   27  C   UNK N   1      33.812  17.485   5.778  0.00  0.00     0.311 C 
HETATM   28  C   UNK N   1      37.193  14.441   9.640  0.00  0.00     0.215 C 
HETATM   29  O   UNK N   1      37.502  13.037   9.272  0.00  0.00    -0.317 OA
HETATM   30  C   UNK N   1      37.659  11.624   8.939  0.00  0.00     0.290 C 
HETATM   31  O   UNK N   1      38.806  11.278   8.707  0.00  0.00    -0.262 OA
HETATM   32  C   UNK N   1      36.500  10.356   8.860  0.00  0.00     0.147 C 
HETATM   33  C   UNK N   1      34.808  10.323   9.354  0.00  0.00     0.118 C 
HETATM   34  S   UNK N   1      33.069  11.480   9.062  0.00  0.00    -0.158 SA
HETATM   35  C   UNK N   1      36.365   9.740   7.456  0.00  0.00     0.150 C 
HETATM   36  C   UNK N   1      36.593   8.358   7.358  0.00  0.00    -0.040 C 
HETATM   37  C   UNK N   1      35.454   7.865   6.797  0.00  0.00    -0.003 A 
HETATM   38  C   UNK N   1      34.921   6.588   6.876  0.00  0.00     0.050 A 
HETATM   39  C   UNK N   1      33.559   6.430   6.523  0.00  0.00     0.069 A 
HETATM   40  C   UNK N   1      32.826   7.529   6.020  0.00  0.00     0.039 A 
HETATM   41  C   UNK N   1      33.409   8.800   5.941  0.00  0.00     0.033 A 
HETATM   42  C   UNK N   1      34.713   8.926   6.375  0.00  0.00     0.039 A 
HETATM   43  N   UNK N   1      35.279  10.073   6.727  0.00  0.00    -0.378 N 
HETATM   44  C   UNK N   1      37.562   7.573   8.180  0.00  0.00     0.056 C 
HETATM   45  C   UNK N   1      38.169   8.531   9.170  0.00  0.00     0.119 C 
HETATM   46  N   UNK N   1      37.063   9.292   9.745  0.00  0.00    -0.402 N 
HETATM   47  H   UNK N   1      34.971  10.980   6.502  0.00  0.00     0.160 HD
HETATM   48  H   UNK N   1      36.702   9.110  10.681  0.00  0.00     0.154 HD
ENDROOT
BRANCH  16  49
HETATM   49  O   UNK N   1      35.416  12.544   8.781  0.00  0.00    -0.282 OA
BRANCH  49  50
HETATM   50  C   UNK N   1      35.265  12.891   7.408  0.00  0.00     0.259 C 
HETATM   51  O   UNK N   1      34.282  12.594   6.740  0.00  0.00    -0.265 OA
HETATM   52  C   UNK N   1      36.356  13.593   6.686  0.00  0.00     0.126 C 
ENDBRANCH  49  50
ENDBRANCH  16  49
BRANCH  39  53
HETATM   53  O   UNK N   1      32.912   5.262   6.728  0.00  0.00    -0.356 OA
HETATM   54  C   UNK N   1      31.651   5.191   7.273  0.00  0.00     0.210 C 
ENDBRANCH  39  53
BRANCH  23  55
HETATM   55  O   UNK N   1      35.313  17.938   9.812  0.00  0.00    -0.366 OA
HETATM   56  H   UNK N   1      35.738  17.969  10.684  0.00  0.00     0.212 HD
ENDBRANCH  23  55
BRANCH   6  57
HETATM   57  O   UNK N   1      32.113  13.929   5.151  0.00  0.00    -0.357 OA
HETATM   58  H   UNK N   1      32.426  13.089   5.428  0.00  0.00     0.217 HD
ENDBRANCH   6  57
BRANCH   7  59
HETATM   59  O   UNK N   1      29.607  14.444   4.338  0.00  0.00    -0.353 OA
HETATM   60  C   UNK N   1      28.795  13.341   4.440  0.00  0.00     0.210 C 
ENDBRANCH   7  59
TORSDOF 6
ENDMDL
MODEL 4
REMARK VINA RESULT:      -8.2      2.251      8.339
REMARK  6 active torsions:
REMARK  status: ('A' for Active; 'I' for Inactive)
REMARK    1  A    between atoms: C_6  and  O_10 
REMARK    2  A    between atoms: C_7  and  O_8 
REMARK    3  A    between atoms: C_19  and  O_20 
REMARK    4  A    between atoms: O_20  and  C_21 
REMARK    5  A    between atoms: C_30  and  O_35 
REMARK    6  A    between atoms: C_47  and  O_52 
ROOT
HETATM    1  C   UNK N   1      30.171  10.170  -1.093  0.00  0.00     0.051 C 
HETATM    2  C   UNK N   1      29.443  10.863   0.007  0.00  0.00    -0.025 A 
HETATM    3  C   UNK N   1      30.089  11.945   0.620  0.00  0.00     0.017 A 
HETATM    4  C   UNK N   1      29.488  12.621   1.680  0.00  0.00    -0.044 A 
HETATM    5  C   UNK N   1      28.231  12.213   2.133  0.00  0.00     0.019 A 
HETATM    6  C   UNK N   1      27.580  11.126   1.550  0.00  0.00     0.108 A 
HETATM    7  C   UNK N   1      28.164  10.439   0.481  0.00  0.00     0.107 A 
HETATM    8  C   UNK N   1      27.709  12.812   3.388  0.00  0.00     0.294 C 
HETATM    9  C   UNK N   1      27.218  14.308   3.334  0.00  0.00     0.279 C 
HETATM   10  C   UNK N   1      26.227  15.158   2.316  0.00  0.00     0.094 C 
HETATM   11  C   UNK N   1      26.064  16.430   3.013  0.00  0.00     0.072 C 
HETATM   12  C   UNK N   1      27.010  17.109   3.785  0.00  0.00     0.092 C 
HETATM   13  C   UNK N   1      26.632  18.404   4.139  0.00  0.00     0.090 A 
HETATM   14  C   UNK N   1      25.345  18.703   4.201  0.00  0.00     0.109 A 
HETATM   15  C   UNK N   1      24.409  17.690   4.099  0.00  0.00     0.004 C 
HETATM   16  C   UNK N   1      24.962  16.355   3.727  0.00  0.00     0.071 C 
HETATM   17  C   UNK N   1      23.101  18.122   4.615  0.00  0.00     0.054 C 
HETATM   18  O   UNK N   1      25.187  19.937   4.672  0.00  0.00    -0.323 OA
HETATM   19  C   UNK N   1      26.447  20.435   5.003  0.00  0.00     0.351 A 
HETATM   20  O   UNK N   1      27.330  19.395   4.687  0.00  0.00    -0.327 OA
HETATM   21  C   UNK N   1      27.255  16.247   5.026  0.00  0.00     0.262 C 
HETATM   22  N   UNK N   1      27.832  14.996   4.526  0.00  0.00     0.135 N 
HETATM   23  C   UNK N   1      29.286  15.127   4.280  0.00  0.00     0.391 C 
HETATM   24  C   UNK N   1      29.868  13.741   3.965  0.00  0.00     0.286 C 
HETATM   25  C   UNK N   1      30.251  13.672   2.450  0.00  0.00     0.079 C 
HETATM   26  N   UNK N   1      28.841  12.748   4.359  0.00  0.00     0.104 N 
HETATM   27  C   UNK N   1      29.422  11.422   4.561  0.00  0.00     0.311 C 
HETATM   28  C   UNK N   1      26.057  16.062   6.220  0.00  0.00     0.215 C 
HETATM   29  O   UNK N   1      24.588  15.854   6.173  0.00  0.00    -0.317 OA
HETATM   30  C   UNK N   1      23.156  15.651   5.975  0.00  0.00     0.290 C 
HETATM   31  O   UNK N   1      22.491  15.672   6.998  0.00  0.00    -0.262 OA
HETATM   32  C   UNK N   1      22.245  15.426   4.535  0.00  0.00     0.147 C 
HETATM   33  C   UNK N   1      22.724  15.579   2.845  0.00  0.00     0.118 C 
HETATM   34  S   UNK N   1      24.263  14.876   1.585  0.00  0.00    -0.158 SA
HETATM   35  C   UNK N   1      21.528  14.067   4.472  0.00  0.00     0.150 C 
HETATM   36  C   UNK N   1      20.134  14.105   4.309  0.00  0.00    -0.040 C 
HETATM   37  C   UNK N   1      19.902  13.363   3.191  0.00  0.00    -0.003 A 
HETATM   38  C   UNK N   1      18.833  13.418   2.310  0.00  0.00     0.050 A 
HETATM   39  C   UNK N   1      19.005  12.814   1.041  0.00  0.00     0.069 A 
HETATM   40  C   UNK N   1      20.194  12.107   0.749  0.00  0.00     0.039 A 
HETATM   41  C   UNK N   1      21.244  12.062   1.675  0.00  0.00     0.033 A 
HETATM   42  C   UNK N   1      21.065  12.735   2.866  0.00  0.00     0.039 A 
HETATM   43  N   UNK N   1      22.052  13.117   3.667  0.00  0.00    -0.378 N 
HETATM   44  C   UNK N   1      19.219  15.150   4.858  0.00  0.00     0.056 C 
HETATM   45  C   UNK N   1      20.089  16.177   5.535  0.00  0.00     0.119 C 
HETATM   46  N   UNK N   1      21.180  16.472   4.611  0.00  0.00    -0.402 N 
HETATM   47  H   UNK N   1      22.976  12.778   3.674  0.00  0.00     0.160 HD
HETATM   48  H   UNK N   1      21.213  17.328   4.058  0.00  0.00     0.154 HD
ENDROOT
BRANCH  16  49
HETATM   49  O   UNK N   1      24.619  14.994   4.150  0.00  0.00    -0.282 OA
BRANCH  49  50
HETATM   50  C   UNK N   1      24.822  13.596   4.325  0.00  0.00     0.259 C 
HETATM   51  O   UNK N   1      24.727  12.780   3.415  0.00  0.00    -0.265 OA
HETATM   52  C   UNK N   1      25.105  13.040   5.672  0.00  0.00     0.126 C 
ENDBRANCH  49  50
ENDBRANCH  16  49
BRANCH  39  53
HETATM   53  O   UNK N   1      18.086  12.963   0.063  0.00  0.00    -0.356 OA
HETATM   54  C   UNK N   1      17.583  14.187  -0.312  0.00  0.00     0.210 C 
ENDBRANCH  39  53
BRANCH  23  55
HETATM   55  O   UNK N   1      29.925  15.635   5.414  0.00  0.00    -0.366 OA
HETATM   56  H   UNK N   1      30.868  15.853   5.475  0.00  0.00     0.212 HD
ENDBRANCH  23  55
BRANCH   6  57
HETATM   57  O   UNK N   1      26.403  10.703   2.051  0.00  0.00    -0.357 OA
HETATM   58  H   UNK N   1      25.882  11.004   2.771  0.00  0.00     0.217 HD
ENDBRANCH   6  57
BRANCH   7  59
HETATM   59  O   UNK N   1      27.472   9.381  -0.026  0.00  0.00    -0.353 OA
HETATM   60  C   UNK N   1      27.629   8.060   0.316  0.00  0.00     0.210 C 
ENDBRANCH   7  59
TORSDOF 6
ENDMDL
MODEL 5
REMARK VINA RESULT:      -8.0      2.926      9.175
REMARK  6 active torsions:
REMARK  status: ('A' for Active; 'I' for Inactive)
REMARK    1  A    between atoms: C_6  and  O_10 
REMARK    2  A    between atoms: C_7  and  O_8 
REMARK    3  A    between atoms: C_19  and  O_20 
REMARK    4  A    between atoms: O_20  and  C_21 
REMARK    5  A    between atoms: C_30  and  O_35 
REMARK    6  A    between atoms: C_47  and  O_52 
ROOT
HETATM    1  C   UNK N   1      18.797   9.005   3.826  0.00  0.00     0.051 C 
HETATM    2  C   UNK N   1      20.082   9.691   4.135  0.00  0.00    -0.025 A 
HETATM    3  C   UNK N   1      21.264   8.977   3.891  0.00  0.00     0.017 A 
HETATM    4  C   UNK N   1      22.504   9.537   4.189  0.00  0.00    -0.044 A 
HETATM    5  C   UNK N   1      22.567  10.822   4.735  0.00  0.00     0.019 A 
HETATM    6  C   UNK N   1      21.403  11.542   5.004  0.00  0.00     0.108 A 
HETATM    7  C   UNK N   1      20.148  10.999   4.706  0.00  0.00     0.107 A 
HETATM    8  C   UNK N   1      23.879  11.310   5.232  0.00  0.00     0.294 C 
HETATM    9  C   UNK N   1      24.967  11.698   4.160  0.00  0.00     0.279 C 
HETATM   10  C   UNK N   1      24.951  12.624   2.787  0.00  0.00     0.094 C 
HETATM   11  C   UNK N   1      26.366  12.704   2.438  0.00  0.00     0.072 C 
HETATM   12  C   UNK N   1      27.344  11.719   2.598  0.00  0.00     0.092 C 
HETATM   13  C   UNK N   1      28.554  12.011   1.968  0.00  0.00     0.090 A 
HETATM   14  C   UNK N   1      28.875  13.275   1.749  0.00  0.00     0.109 A 
HETATM   15  C   UNK N   1      28.103  14.277   2.308  0.00  0.00     0.004 C 
HETATM   16  C   UNK N   1      26.843  13.814   2.960  0.00  0.00     0.071 C 
HETATM   17  C   UNK N   1      28.829  15.556   2.333  0.00  0.00     0.054 C 
HETATM   18  O   UNK N   1      30.108  13.352   1.257  0.00  0.00    -0.323 OA
HETATM   19  C   UNK N   1      30.641  12.064   1.229  0.00  0.00     0.351 A 
HETATM   20  O   UNK N   1      29.622  11.251   1.740  0.00  0.00    -0.327 OA
HETATM   21  C   UNK N   1      27.535  11.541   4.106  0.00  0.00     0.262 C 
HETATM   22  N   UNK N   1      26.250  11.047   4.608  0.00  0.00     0.135 N 
HETATM   23  C   UNK N   1      26.114   9.585   4.411  0.00  0.00     0.391 C 
HETATM   24  C   UNK N   1      24.854   9.097   5.140  0.00  0.00     0.286 C 
HETATM   25  C   UNK N   1      23.763   8.710   4.088  0.00  0.00     0.079 C 
HETATM   26  N   UNK N   1      24.435  10.191   6.047  0.00  0.00     0.104 N 
HETATM   27  C   UNK N   1      23.568   9.702   7.118  0.00  0.00     0.311 C 
HETATM   28  C   UNK N   1      28.260  12.756   5.051  0.00  0.00     0.215 C 
HETATM   29  O   UNK N   1      28.142  14.235   5.083  0.00  0.00    -0.317 OA
HETATM   30  C   UNK N   1      27.924  15.676   5.002  0.00  0.00     0.290 C 
HETATM   31  O   UNK N   1      28.660  16.345   5.710  0.00  0.00    -0.262 OA
HETATM   32  C   UNK N   1      26.828  16.592   4.045  0.00  0.00     0.147 C 
HETATM   33  C   UNK N   1      25.779  16.093   2.720  0.00  0.00     0.118 C 
HETATM   34  S   UNK N   1      24.340  14.597   2.339  0.00  0.00    -0.158 SA
HETATM   35  C   UNK N   1      25.817  17.399   4.878  0.00  0.00     0.150 C 
HETATM   36  C   UNK N   1      25.799  18.786   4.662  0.00  0.00    -0.040 C 
HETATM   37  C   UNK N   1      24.509  19.061   4.324  0.00  0.00    -0.003 A 
HETATM   38  C   UNK N   1      24.004  20.118   3.584  0.00  0.00     0.050 A 
HETATM   39  C   UNK N   1      22.695  19.980   3.062  0.00  0.00     0.069 A 
HETATM   40  C   UNK N   1      21.923  18.839   3.383  0.00  0.00     0.039 A 
HETATM   41  C   UNK N   1      22.466  17.801   4.148  0.00  0.00     0.033 A 
HETATM   42  C   UNK N   1      23.774  17.940   4.566  0.00  0.00     0.039 A 
HETATM   43  N   UNK N   1      24.551  16.935   4.949  0.00  0.00    -0.378 N 
HETATM   44  C   UNK N   1      26.982  19.631   4.318  0.00  0.00     0.056 C 
HETATM   45  C   UNK N   1      28.155  18.698   4.170  0.00  0.00     0.119 C 
HETATM   46  N   UNK N   1      27.698  17.584   3.344  0.00  0.00    -0.402 N 
HETATM   47  H   UNK N   1      24.264  16.036   5.229  0.00  0.00     0.160 HD
HETATM   48  H   UNK N   1      27.955  17.490   2.361  0.00  0.00     0.154 HD
ENDROOT
BRANCH  16  49
HETATM   49  O   UNK N   1      26.142  14.250   4.170  0.00  0.00    -0.282 OA
BRANCH  49  50
HETATM   50  C   UNK N   1      25.206  14.152   5.239  0.00  0.00     0.259 C 
HETATM   51  O   UNK N   1      23.998  14.303   5.095  0.00  0.00    -0.265 OA
HETATM   52  C   UNK N   1      25.673  13.919   6.629  0.00  0.00     0.126 C 
ENDBRANCH  49  50
ENDBRANCH  16  49
BRANCH  39  53
HETATM   53  O   UNK N   1      22.187  20.881   2.195  0.00  0.00    -0.356 OA
HETATM   54  C   UNK N   1      21.062  20.640   1.439  0.00  0.00     0.210 C 
ENDBRANCH  39  53
BRANCH  23  55
HETATM   55  O   UNK N   1      27.224   8.921   4.938  0.00  0.00    -0.366 OA
HETATM   56  H   UNK N   1      27.458   7.995   4.762  0.00  0.00     0.212 HD
ENDBRANCH  23  55
BRANCH   6  57
HETATM   57  O   UNK N   1      21.484  12.747   5.599  0.00  0.00    -0.357 OA
HETATM   58  H   UNK N   1      21.905  13.545   5.346  0.00  0.00     0.217 HD
ENDBRANCH   6  57
BRANCH   7  59
HETATM   59  O   UNK N   1      19.058  11.757   5.010  0.00  0.00    -0.353 OA
HETATM   60  C   UNK N   1      18.438  12.666   4.187  0.00  0.00     0.210 C 
ENDBRANCH   7  59
TORSDOF 6
ENDMDL
MODEL 6
REMARK VINA RESULT:      -7.9      1.824      1.963
REMARK  6 active torsions:
REMARK  status: ('A' for Active; 'I' for Inactive)
REMARK    1  A    between atoms: C_6  and  O_10 
REMARK    2  A    between atoms: C_7  and  O_8 
REMARK    3  A    between atoms: C_19  and  O_20 
REMARK    4  A    between atoms: O_20  and  C_21 
REMARK    5  A    between atoms: C_30  and  O_35 
REMARK    6  A    between atoms: C_47  and  O_52 
ROOT
HETATM    1  C   UNK N   1      26.707  20.568   3.971  0.00  0.00     0.051 C 
HETATM    2  C   UNK N   1      25.712  19.470   4.127  0.00  0.00    -0.025 A 
HETATM    3  C   UNK N   1      24.447  19.668   3.558  0.00  0.00     0.017 A 
HETATM    4  C   UNK N   1      23.451  18.703   3.693  0.00  0.00    -0.044 A 
HETATM    5  C   UNK N   1      23.721  17.529   4.401  0.00  0.00     0.019 A 
HETATM    6  C   UNK N   1      24.967  17.321   4.992  0.00  0.00     0.108 A 
HETATM    7  C   UNK N   1      25.981  18.276   4.862  0.00  0.00     0.107 A 
HETATM    8  C   UNK N   1      22.588  16.617   4.704  0.00  0.00     0.294 C 
HETATM    9  C   UNK N   1      21.989  15.776   3.514  0.00  0.00     0.279 C 
HETATM   10  C   UNK N   1      22.649  14.835   2.322  0.00  0.00     0.094 C 
HETATM   11  C   UNK N   1      21.476  14.204   1.724  0.00  0.00     0.072 C 
HETATM   12  C   UNK N   1      20.205  14.756   1.546  0.00  0.00     0.092 C 
HETATM   13  C   UNK N   1      19.358  13.988   0.747  0.00  0.00     0.090 A 
HETATM   14  C   UNK N   1      19.565  12.685   0.660  0.00  0.00     0.109 A 
HETATM   15  C   UNK N   1      20.488  12.088   1.500  0.00  0.00     0.004 C 
HETATM   16  C   UNK N   1      21.315  13.035   2.304  0.00  0.00     0.071 C 
HETATM   17  C   UNK N   1      20.276  10.634   1.574  0.00  0.00     0.054 C 
HETATM   18  O   UNK N   1      18.589  12.116  -0.041  0.00  0.00    -0.323 OA
HETATM   19  C   UNK N   1      17.658  13.103  -0.361  0.00  0.00     0.351 A 
HETATM   20  O   UNK N   1      18.176  14.272   0.209  0.00  0.00    -0.327 OA
HETATM   21  C   UNK N   1      19.619  14.950   2.946  0.00  0.00     0.262 C 
HETATM   22  N   UNK N   1      20.492  15.924   3.606  0.00  0.00     0.135 N 
HETATM   23  C   UNK N   1      20.145  17.312   3.224  0.00  0.00     0.391 C 
HETATM   24  C   UNK N   1      20.945  18.288   4.100  0.00  0.00     0.286 C 
HETATM   25  C   UNK N   1      22.041  18.986   3.231  0.00  0.00     0.079 C 
HETATM   26  N   UNK N   1      21.499  17.495   5.223  0.00  0.00     0.104 N 
HETATM   27  C   UNK N   1      21.863  18.345   6.355  0.00  0.00     0.311 C 
HETATM   28  C   UNK N   1      19.171  13.617   3.905  0.00  0.00     0.215 C 
HETATM   29  O   UNK N   1      19.791  12.298   4.178  0.00  0.00    -0.317 OA
HETATM   30  C   UNK N   1      20.517  11.043   4.356  0.00  0.00     0.290 C 
HETATM   31  O   UNK N   1      19.921  10.195   5.000  0.00  0.00    -0.262 OA
HETATM   32  C   UNK N   1      22.056  10.546   3.772  0.00  0.00     0.147 C 
HETATM   33  C   UNK N   1      23.140  11.314   2.613  0.00  0.00     0.118 C 
HETATM   34  S   UNK N   1      24.004  13.213   2.298  0.00  0.00    -0.158 SA
HETATM   35  C   UNK N   1      23.063  10.238   4.893  0.00  0.00     0.150 C 
HETATM   36  C   UNK N   1      23.619   8.949   4.894  0.00  0.00    -0.040 C 
HETATM   37  C   UNK N   1      24.964   9.158   4.854  0.00  0.00    -0.003 A 
HETATM   38  C   UNK N   1      25.967   8.322   4.389  0.00  0.00     0.050 A 
HETATM   39  C   UNK N   1      27.226   8.909   4.113  0.00  0.00     0.069 A 
HETATM   40  C   UNK N   1      27.449  10.275   4.402  0.00  0.00     0.039 A 
HETATM   41  C   UNK N   1      26.411  11.081   4.887  0.00  0.00     0.033 A 
HETATM   42  C   UNK N   1      25.178  10.487   5.062  0.00  0.00     0.039 A 
HETATM   43  N   UNK N   1      24.030  11.148   5.136  0.00  0.00    -0.378 N 
HETATM   44  C   UNK N   1      22.926   7.699   4.459  0.00  0.00     0.056 C 
HETATM   45  C   UNK N   1      21.568   8.109   3.952  0.00  0.00     0.119 C 
HETATM   46  N   UNK N   1      21.781   9.255   3.073  0.00  0.00    -0.402 N 
HETATM   47  H   UNK N   1      23.908  12.105   5.329  0.00  0.00     0.160 HD
HETATM   48  H   UNK N   1      21.744   9.179   2.057  0.00  0.00     0.154 HD
ENDROOT
BRANCH  16  49
HETATM   49  O   UNK N   1      21.822  12.977   3.678  0.00  0.00    -0.282 OA
BRANCH  49  50
HETATM   50  C   UNK N   1      22.369  13.495   4.886  0.00  0.00     0.259 C 
HETATM   51  O   UNK N   1      23.547  13.805   5.016  0.00  0.00    -0.265 OA
HETATM   52  C   UNK N   1      21.522  13.628   6.098  0.00  0.00     0.126 C 
ENDBRANCH  49  50
ENDBRANCH  16  49
BRANCH  39  53
HETATM   53  O   UNK N   1      28.207   8.211   3.502  0.00  0.00    -0.356 OA
HETATM   54  C   UNK N   1      29.426   8.759   3.177  0.00  0.00     0.210 C 
ENDBRANCH  39  53
BRANCH  23  55
HETATM   55  O   UNK N   1      18.782  17.543   3.424  0.00  0.00    -0.366 OA
HETATM   56  H   UNK N   1      18.239  17.125   4.111  0.00  0.00     0.212 HD
ENDBRANCH  23  55
BRANCH   6  57
HETATM   57  O   UNK N   1      25.180  16.217   5.732  0.00  0.00    -0.357 OA
HETATM   58  H   UNK N   1      25.599  16.088   6.561  0.00  0.00     0.217 HD
ENDBRANCH   6  57
BRANCH   7  59
HETATM   59  O   UNK N   1      27.166  18.006   5.478  0.00  0.00    -0.353 OA
HETATM   60  C   UNK N   1      28.284  17.459   4.898  0.00  0.00     0.210 C 
ENDBRANCH   7  59
TORSDOF 6
ENDMDL
MODEL 7
REMARK VINA RESULT:      -7.7      2.682      7.688
REMARK  6 active torsions:
REMARK  status: ('A' for Active; 'I' for Inactive)
REMARK    1  A    between atoms: C_6  and  O_10 
REMARK    2  A    between atoms: C_7  and  O_8 
REMARK    3  A    between atoms: C_19  and  O_20 
REMARK    4  A    between atoms: O_20  and  C_21 
REMARK    5  A    between atoms: C_30  and  O_35 
REMARK    6  A    between atoms: C_47  and  O_52 
ROOT
HETATM    1  C   UNK N   1      23.503   6.380   4.055  0.00  0.00     0.051 C 
HETATM    2  C   UNK N   1      23.141   7.815   3.887  0.00  0.00    -0.025 A 
HETATM    3  C   UNK N   1      21.892   8.222   4.376  0.00  0.00     0.017 A 
HETATM    4  C   UNK N   1      21.466   9.539   4.224  0.00  0.00    -0.044 A 
HETATM    5  C   UNK N   1      22.294  10.461   3.577  0.00  0.00     0.019 A 
HETATM    6  C   UNK N   1      23.532  10.073   3.066  0.00  0.00     0.108 A 
HETATM    7  C   UNK N   1      23.980   8.756   3.214  0.00  0.00     0.107 A 
HETATM    8  C   UNK N   1      21.734  11.796   3.247  0.00  0.00     0.294 C 
HETATM    9  C   UNK N   1      21.512  12.809   4.434  0.00  0.00     0.279 C 
HETATM   10  C   UNK N   1      22.451  13.326   5.696  0.00  0.00     0.094 C 
HETATM   11  C   UNK N   1      21.665  14.424   6.252  0.00  0.00     0.072 C 
HETATM   12  C   UNK N   1      20.274  14.523   6.337  0.00  0.00     0.092 C 
HETATM   13  C   UNK N   1      19.826  15.589   7.117  0.00  0.00     0.090 A 
HETATM   14  C   UNK N   1      20.604  16.647   7.266  0.00  0.00     0.109 A 
HETATM   15  C   UNK N   1      21.753  16.756   6.502  0.00  0.00     0.004 C 
HETATM   16  C   UNK N   1      22.101  15.540   5.709  0.00  0.00     0.071 C 
HETATM   17  C   UNK N   1      22.242  18.143   6.472  0.00  0.00     0.054 C 
HETATM   18  O   UNK N   1      19.957  17.598   7.933  0.00  0.00    -0.323 OA
HETATM   19  C   UNK N   1      18.656  17.152   8.162  0.00  0.00     0.351 A 
HETATM   20  O   UNK N   1      18.612  15.880   7.577  0.00  0.00    -0.327 OA
HETATM   21  C   UNK N   1      19.759  14.634   4.900  0.00  0.00     0.262 C 
HETATM   22  N   UNK N   1      20.126  13.372   4.253  0.00  0.00     0.135 N 
HETATM   23  C   UNK N   1      19.152  12.300   4.561  0.00  0.00     0.391 C 
HETATM   24  C   UNK N   1      19.469  11.072   3.694  0.00  0.00     0.286 C 
HETATM   25  C   UNK N   1      20.058   9.938   4.595  0.00  0.00     0.079 C 
HETATM   26  N   UNK N   1      20.400  11.527   2.635  0.00  0.00     0.104 N 
HETATM   27  C   UNK N   1      20.405  10.615   1.493  0.00  0.00     0.311 C 
HETATM   28  C   UNK N   1      20.043  16.031   3.970  0.00  0.00     0.215 C 
HETATM   29  O   UNK N   1      21.220  16.915   3.783  0.00  0.00    -0.317 OA
HETATM   30  C   UNK N   1      22.452  17.693   3.695  0.00  0.00     0.290 C 
HETATM   31  O   UNK N   1      22.360  18.725   3.052  0.00  0.00    -0.262 OA
HETATM   32  C   UNK N   1      24.004  17.415   4.382  0.00  0.00     0.147 C 
HETATM   33  C   UNK N   1      24.530  16.222   5.569  0.00  0.00     0.118 C 
HETATM   34  S   UNK N   1      24.396  14.137   5.859  0.00  0.00    -0.158 SA
HETATM   35  C   UNK N   1      25.112  17.231   3.331  0.00  0.00     0.150 C 
HETATM   36  C   UNK N   1      26.199  18.116   3.412  0.00  0.00    -0.040 C 
HETATM   37  C   UNK N   1      27.290  17.306   3.518  0.00  0.00    -0.003 A 
HETATM   38  C   UNK N   1      28.532  17.578   4.070  0.00  0.00     0.050 A 
HETATM   39  C   UNK N   1      29.355  16.473   4.393  0.00  0.00     0.069 A 
HETATM   40  C   UNK N   1      28.941  15.162   4.064  0.00  0.00     0.039 A 
HETATM   41  C   UNK N   1      27.684  14.932   3.491  0.00  0.00     0.033 A 
HETATM   42  C   UNK N   1      26.880  16.032   3.271  0.00  0.00     0.039 A 
HETATM   43  N   UNK N   1      25.564  15.978   3.108  0.00  0.00    -0.378 N 
HETATM   44  C   UNK N   1      26.134  19.540   3.855  0.00  0.00     0.056 C 
HETATM   45  C   UNK N   1      24.710  19.802   4.269  0.00  0.00     0.119 C 
HETATM   46  N   UNK N   1      24.310  18.681   5.114  0.00  0.00    -0.402 N 
HETATM   47  H   UNK N   1      25.027  15.188   2.872  0.00  0.00     0.160 HD
HETATM   48  H   UNK N   1      24.244  18.756   6.129  0.00  0.00     0.154 HD
ENDROOT
BRANCH  16  49
HETATM   49  O   UNK N   1      22.668  15.368   4.369  0.00  0.00    -0.282 OA
BRANCH  49  50
HETATM   50  C   UNK N   1      22.988  14.668   3.172  0.00  0.00     0.259 C 
HETATM   51  O   UNK N   1      23.906  13.860   3.085  0.00  0.00    -0.265 OA
HETATM   52  C   UNK N   1      22.240  14.940   1.918  0.00  0.00     0.126 C 
ENDBRANCH  49  50
ENDBRANCH  16  49
BRANCH  39  53
HETATM   53  O   UNK N   1      30.505  16.632   5.084  0.00  0.00    -0.356 OA
HETATM   54  C   UNK N   1      31.558  17.388   4.622  0.00  0.00     0.210 C 
ENDBRANCH  39  53
BRANCH  23  55
HETATM   55  O   UNK N   1      17.854  12.728   4.277  0.00  0.00    -0.366 OA
HETATM   56  H   UNK N   1      17.468  12.794   3.389  0.00  0.00     0.212 HD
ENDBRANCH  23  55
BRANCH   6  57
HETATM   57  O   UNK N   1      24.280  10.958   2.381  0.00  0.00    -0.357 OA
HETATM   58  H   UNK N   1      24.643  10.939   1.516  0.00  0.00     0.217 HD
ENDBRANCH   6  57
BRANCH   7  59
HETATM   59  O   UNK N   1      25.194   8.451   2.677  0.00  0.00    -0.353 OA
HETATM   60  C   UNK N   1      26.392   8.389   3.343  0.00  0.00     0.210 C 
ENDBRANCH   7  59
TORSDOF 6
ENDMDL
MODEL 8
REMARK VINA RESULT:      -7.7     12.242     16.212
REMARK  6 active torsions:
REMARK  status: ('A' for Active; 'I' for Inactive)
REMARK    1  A    between atoms: C_6  and  O_10 
REMARK    2  A    between atoms: C_7  and  O_8 
REMARK    3  A    between atoms: C_19  and  O_20 
REMARK    4  A    between atoms: O_20  and  C_21 
REMARK    5  A    between atoms: C_30  and  O_35 
REMARK    6  A    between atoms: C_47  and  O_52 
ROOT
HETATM    1  C   UNK N   1      35.352  13.730  17.916  0.00  0.00     0.051 C 
HETATM    2  C   UNK N   1      35.637  13.048  16.623  0.00  0.00    -0.025 A 
HETATM    3  C   UNK N   1      35.419  11.664  16.568  0.00  0.00     0.017 A 
HETATM    4  C   UNK N   1      35.698  10.949  15.405  0.00  0.00    -0.044 A 
HETATM    5  C   UNK N   1      36.198  11.621  14.286  0.00  0.00     0.019 A 
HETATM    6  C   UNK N   1      36.441  12.993  14.326  0.00  0.00     0.108 A 
HETATM    7  C   UNK N   1      36.161  13.730  15.482  0.00  0.00     0.107 A 
HETATM    8  C   UNK N   1      36.677  10.810  13.138  0.00  0.00     0.294 C 
HETATM    9  C   UNK N   1      35.593  10.099  12.242  0.00  0.00     0.279 C 
HETATM   10  C   UNK N   1      34.188  10.598  11.522  0.00  0.00     0.094 C 
HETATM   11  C   UNK N   1      33.837   9.459  10.679  0.00  0.00     0.072 C 
HETATM   12  C   UNK N   1      34.032   8.102  10.950  0.00  0.00     0.092 C 
HETATM   13  C   UNK N   1      33.393   7.245  10.054  0.00  0.00     0.090 A 
HETATM   14  C   UNK N   1      33.129   7.675   8.832  0.00  0.00     0.109 A 
HETATM   15  C   UNK N   1      33.652   8.885   8.411  0.00  0.00     0.004 C 
HETATM   16  C   UNK N   1      34.319   9.688   9.477  0.00  0.00     0.071 C 
HETATM   17  C   UNK N   1      33.631   8.991   6.945  0.00  0.00     0.054 C 
HETATM   18  O   UNK N   1      32.636   6.682   8.098  0.00  0.00    -0.323 OA
HETATM   19  C   UNK N   1      32.653   5.524   8.873  0.00  0.00     0.351 A 
HETATM   20  O   UNK N   1      33.192   5.931  10.100  0.00  0.00    -0.327 OA
HETATM   21  C   UNK N   1      35.545   7.875  10.949  0.00  0.00     0.262 C 
HETATM   22  N   UNK N   1      36.064   8.679  12.058  0.00  0.00     0.135 N 
HETATM   23  C   UNK N   1      35.919   7.977  13.354  0.00  0.00     0.391 C 
HETATM   24  C   UNK N   1      36.664   8.770  14.439  0.00  0.00     0.286 C 
HETATM   25  C   UNK N   1      35.626   9.441  15.397  0.00  0.00     0.079 C 
HETATM   26  N   UNK N   1      37.532   9.743  13.735  0.00  0.00     0.104 N 
HETATM   27  C   UNK N   1      38.619  10.214  14.591  0.00  0.00     0.311 C 
HETATM   28  C   UNK N   1      36.447   7.965   9.509  0.00  0.00     0.215 C 
HETATM   29  O   UNK N   1      36.427   8.883   8.344  0.00  0.00    -0.317 OA
HETATM   30  C   UNK N   1      36.295   9.863   7.269  0.00  0.00     0.290 C 
HETATM   31  O   UNK N   1      36.979   9.635   6.284  0.00  0.00    -0.262 OA
HETATM   32  C   UNK N   1      35.305  11.263   7.144  0.00  0.00     0.147 C 
HETATM   33  C   UNK N   1      33.998  11.833   8.180  0.00  0.00     0.118 C 
HETATM   34  S   UNK N   1      33.670  12.192  10.233  0.00  0.00    -0.158 SA
HETATM   35  C   UNK N   1      36.109  12.568   7.010  0.00  0.00     0.150 C 
HETATM   36  C   UNK N   1      35.844  13.348   5.874  0.00  0.00    -0.040 C 
HETATM   37  C   UNK N   1      35.496  14.568   6.371  0.00  0.00    -0.003 A 
HETATM   38  C   UNK N   1      34.719  15.560   5.794  0.00  0.00     0.050 A 
HETATM   39  C   UNK N   1      34.202  16.561   6.651  0.00  0.00     0.069 A 
HETATM   40  C   UNK N   1      34.562  16.577   8.019  0.00  0.00     0.039 A 
HETATM   41  C   UNK N   1      35.364  15.564   8.558  0.00  0.00     0.033 A 
HETATM   42  C   UNK N   1      35.777  14.562   7.703  0.00  0.00     0.039 A 
HETATM   43  N   UNK N   1      36.196  13.366   8.096  0.00  0.00    -0.378 N 
HETATM   44  C   UNK N   1      35.471  12.827   4.525  0.00  0.00     0.056 C 
HETATM   45  C   UNK N   1      35.357  11.331   4.653  0.00  0.00     0.119 C 
HETATM   46  N   UNK N   1      34.570  11.076   5.857  0.00  0.00    -0.402 N 
HETATM   47  H   UNK N   1      36.507  13.112   8.995  0.00  0.00     0.160 HD
HETATM   48  H   UNK N   1      33.591  10.791   5.821  0.00  0.00     0.154 HD
ENDROOT
BRANCH  16  49
HETATM   49  O   UNK N   1      35.513  10.537   9.468  0.00  0.00    -0.282 OA
BRANCH  49  50
HETATM   50  C   UNK N   1      36.584  11.283  10.038  0.00  0.00     0.259 C 
HETATM   51  O   UNK N   1      36.436  12.369  10.585  0.00  0.00    -0.265 OA
HETATM   52  C   UNK N   1      37.981  10.791   9.935  0.00  0.00     0.126 C 
ENDBRANCH  49  50
ENDBRANCH  16  49
BRANCH  39  53
HETATM   53  O   UNK N   1      33.303  17.466   6.210  0.00  0.00    -0.356 OA
HETATM   54  C   UNK N   1      32.922  17.563   4.891  0.00  0.00     0.210 C 
ENDBRANCH  39  53
BRANCH  23  55
HETATM   55  O   UNK N   1      36.469   6.696  13.275  0.00  0.00    -0.366 OA
HETATM   56  H   UNK N   1      37.418   6.496  13.237  0.00  0.00     0.212 HD
ENDBRANCH  23  55
BRANCH   6  57
HETATM   57  O   UNK N   1      36.993  13.607  13.262  0.00  0.00    -0.357 OA
HETATM   58  H   UNK N   1      36.749  14.375  12.783  0.00  0.00     0.217 HD
ENDBRANCH   6  57
BRANCH   7  59
HETATM   59  O   UNK N   1      36.437  15.063  15.448  0.00  0.00    -0.353 OA
HETATM   60  C   UNK N   1      37.562  15.679  15.938  0.00  0.00     0.210 C 
ENDBRANCH   7  59
TORSDOF 6
ENDMDL
MODEL 9
REMARK VINA RESULT:      -7.7     10.015     14.389
REMARK  6 active torsions:
REMARK  status: ('A' for Active; 'I' for Inactive)
REMARK    1  A    between atoms: C_6  and  O_10 
REMARK    2  A    between atoms: C_7  and  O_8 
REMARK    3  A    between atoms: C_19  and  O_20 
REMARK    4  A    between atoms: O_20  and  C_21 
REMARK    5  A    between atoms: C_30  and  O_35 
REMARK    6  A    between atoms: C_47  and  O_52 
ROOT
HETATM    1  C   UNK N   1      35.039   7.869   0.741  0.00  0.00     0.051 C 
HETATM    2  C   UNK N   1      35.107   9.070   1.619  0.00  0.00    -0.025 A 
HETATM    3  C   UNK N   1      34.332  10.177   1.251  0.00  0.00     0.017 A 
HETATM    4  C   UNK N   1      34.370  11.351   2.001  0.00  0.00    -0.044 A 
HETATM    5  C   UNK N   1      35.191  11.420   3.130  0.00  0.00     0.019 A 
HETATM    6  C   UNK N   1      35.986  10.336   3.503  0.00  0.00     0.108 A 
HETATM    7  C   UNK N   1      35.956   9.147   2.766  0.00  0.00     0.107 A 
HETATM    8  C   UNK N   1      35.370  12.740   3.787  0.00  0.00     0.294 C 
HETATM    9  C   UNK N   1      34.159  13.313   4.617  0.00  0.00     0.279 C 
HETATM   10  C   UNK N   1      33.155  12.683   5.773  0.00  0.00     0.094 C 
HETATM   11  C   UNK N   1      32.421  13.858   6.235  0.00  0.00     0.072 C 
HETATM   12  C   UNK N   1      32.005  14.958   5.482  0.00  0.00     0.092 C 
HETATM   13  C   UNK N   1      31.135  15.814   6.157  0.00  0.00     0.090 A 
HETATM   14  C   UNK N   1      31.170  15.855   7.478  0.00  0.00     0.109 A 
HETATM   15  C   UNK N   1      32.186  15.196   8.149  0.00  0.00     0.004 C 
HETATM   16  C   UNK N   1      33.046  14.326   7.294  0.00  0.00     0.071 C 
HETATM   17  C   UNK N   1      32.323  15.695   9.525  0.00  0.00     0.054 C 
HETATM   18  O   UNK N   1      30.362  16.811   7.925  0.00  0.00    -0.323 OA
HETATM   19  C   UNK N   1      29.831  17.476   6.821  0.00  0.00     0.351 A 
HETATM   20  O   UNK N   1      30.396  16.828   5.715  0.00  0.00    -0.327 OA
HETATM   21  C   UNK N   1      33.277  15.691   5.049  0.00  0.00     0.262 C 
HETATM   22  N   UNK N   1      34.000  14.750   4.190  0.00  0.00     0.135 N 
HETATM   23  C   UNK N   1      33.474  14.761   2.806  0.00  0.00     0.391 C 
HETATM   24  C   UNK N   1      34.399  13.922   1.912  0.00  0.00     0.286 C 
HETATM   25  C   UNK N   1      33.671  12.597   1.513  0.00  0.00     0.079 C 
HETATM   26  N   UNK N   1      35.647  13.700   2.680  0.00  0.00     0.104 N 
HETATM   27  C   UNK N   1      36.762  13.345   1.804  0.00  0.00     0.311 C 
HETATM   28  C   UNK N   1      34.240  16.524   6.179  0.00  0.00     0.215 C 
HETATM   29  O   UNK N   1      34.697  16.217   7.557  0.00  0.00    -0.317 OA
HETATM   30  C   UNK N   1      35.073  15.783   8.899  0.00  0.00     0.290 C 
HETATM   31  O   UNK N   1      35.670  16.619   9.558  0.00  0.00    -0.262 OA
HETATM   32  C   UNK N   1      34.778  14.303   9.722  0.00  0.00     0.147 C 
HETATM   33  C   UNK N   1      33.758  12.934   9.280  0.00  0.00     0.118 C 
HETATM   34  S   UNK N   1      33.457  11.681   7.610  0.00  0.00    -0.158 SA
HETATM   35  C   UNK N   1      36.065  13.547  10.098  0.00  0.00     0.150 C 
HETATM   36  C   UNK N   1      36.242  13.258  11.460  0.00  0.00    -0.040 C 
HETATM   37  C   UNK N   1      36.403  11.906  11.504  0.00  0.00    -0.003 A 
HETATM   38  C   UNK N   1      36.162  11.029  12.549  0.00  0.00     0.050 A 
HETATM   39  C   UNK N   1      36.052   9.654  12.230  0.00  0.00     0.069 A 
HETATM   40  C   UNK N   1      36.280   9.214  10.906  0.00  0.00     0.039 A 
HETATM   41  C   UNK N   1      36.537  10.133   9.882  0.00  0.00     0.033 A 
HETATM   42  C   UNK N   1      36.552  11.471  10.222  0.00  0.00     0.039 A 
HETATM   43  N   UNK N   1      36.397  12.467   9.360  0.00  0.00    -0.378 N 
HETATM   44  C   UNK N   1      35.787  14.111  12.599  0.00  0.00     0.056 C 
HETATM   45  C   UNK N   1      35.043  15.276  12.001  0.00  0.00     0.119 C 
HETATM   46  N   UNK N   1      34.134  14.720  11.003  0.00  0.00    -0.402 N 
HETATM   47  H   UNK N   1      36.502  12.426   8.382  0.00  0.00     0.160 HD
HETATM   48  H   UNK N   1      33.132  14.623  11.169  0.00  0.00     0.154 HD
ENDROOT
BRANCH  16  49
HETATM   49  O   UNK N   1      34.483  14.043   7.310  0.00  0.00    -0.282 OA
BRANCH  49  50
HETATM   50  C   UNK N   1      35.723  13.574   6.790  0.00  0.00     0.259 C 
HETATM   51  O   UNK N   1      36.029  12.388   6.739  0.00  0.00    -0.265 OA
HETATM   52  C   UNK N   1      36.757  14.534   6.330  0.00  0.00     0.126 C 
ENDBRANCH  49  50
ENDBRANCH  16  49
BRANCH  39  53
HETATM   53  O   UNK N   1      35.655   8.750  13.152  0.00  0.00    -0.356 OA
HETATM   54  C   UNK N   1      35.692   8.994  14.505  0.00  0.00     0.210 C 
ENDBRANCH  39  53
BRANCH  23  55
HETATM   55  O   UNK N   1      33.437  16.068   2.313  0.00  0.00    -0.366 OA
HETATM   56  H   UNK N   1      34.091  16.457   1.710  0.00  0.00     0.212 HD
ENDBRANCH  23  55
BRANCH   6  57
HETATM   57  O   UNK N   1      36.824  10.450   4.550  0.00  0.00    -0.357 OA
HETATM   58  H   UNK N   1      37.343   9.820   5.011  0.00  0.00     0.217 HD
ENDBRANCH   6  57
BRANCH   7  59
HETATM   59  O   UNK N   1      36.770   8.139   3.185  0.00  0.00    -0.353 OA
HETATM   60  C   UNK N   1      36.424   7.097   4.010  0.00  0.00     0.210 C 
ENDBRANCH   7  59
TORSDOF 6
ENDMDL
