MODEL 1
REMARK VINA RESULT:      -8.3      0.000      0.000
REMARK  5 active torsions:
REMARK  status: ('A' for Active; 'I' for Inactive)
REMARK    1  A    between atoms: C_8  and  C_7 
REMARK    2  A    between atoms: C_8  and  C_9 
REMARK    3  A    between atoms: C_8  and  C_16 
REMARK    4  A    between atoms: C_8  and  O_36 
REMARK    5  A    between atoms: C_22  and  C_28 
ROOT
HETATM    1  C   UNK N   1      24.134  13.999   6.765  0.00  0.00    -0.024 A 
HETATM    2  C   UNK N   1      23.672  13.116   5.766  0.00  0.00     0.012 A 
HETATM    3  C   UNK N   1      23.118  11.877   6.078  0.00  0.00     0.002 A 
HETATM    4  C   UNK N   1      23.028  11.476   7.409  0.00  0.00     0.020 A 
HETATM    5  C   UNK N   1      23.446  12.340   8.426  0.00  0.00     0.017 A 
HETATM    6  C   UNK N   1      23.998  13.594   8.106  0.00  0.00     0.032 A 
HETATM    7  C   UNK N   1      23.310  11.949   9.803  0.00  0.00    -0.078 C 
HETATM    8  C   UNK N   1      23.214  11.659  10.971  0.00  0.00     0.018 C 
ENDROOT
BRANCH   1   9
HETATM    9  C   UNK N   1      25.067  15.149   6.442  0.00  0.00    -0.008 A 
HETATM   10  C   UNK N   1      24.587  16.262   5.725  0.00  0.00     0.003 A 
HETATM   11  C   UNK N   1      25.485  17.142   5.081  0.00  0.00     0.048 A 
HETATM   12  C   UNK N   1      23.227  16.462   5.564  0.00  0.00     0.025 A 
HETATM   13  C   UNK N   1      24.976  18.118   4.217  0.00  0.00     0.031 A 
HETATM   14  N   UNK N   1      26.831  17.005   5.258  0.00  0.00    -0.318 N 
HETATM   15  C   UNK N   1      23.608  18.248   4.048  0.00  0.00     0.013 A 
HETATM   16  C   UNK N   1      22.704  17.457   4.767  0.00  0.00    -0.012 A 
HETATM   17  C   UNK N   1      27.325  15.981   6.039  0.00  0.00     0.248 A 
HETATM   18  C   UNK N   1      27.753  17.939   4.611  0.00  0.00     0.159 C 
HETATM   19  C   UNK N   1      26.457  15.025   6.595  0.00  0.00     0.087 A 
HETATM   20  O   UNK N   1      28.527  15.866   6.206  0.00  0.00    -0.268 OA
BRANCH  16  21
HETATM   21  C   UNK N   1      21.178  17.643   4.785  0.00  0.00     0.156 C 
BRANCH  21  22
HETATM   22  C   UNK N   1      20.620  17.648   3.316  0.00  0.00     0.072 A 
HETATM   23  C   UNK N   1      19.638  18.500   2.812  0.00  0.00     0.118 A 
HETATM   24  N   UNK N   1      19.196  18.032   1.633  0.00  0.00    -0.360 N 
HETATM   25  C   UNK N   1      19.891  16.903   1.411  0.00  0.00     0.182 A 
ATOM     26  HN  UNK N   1      18.484  18.447   1.033  1.00  0.00     0.166 HD
HETATM   27  N   UNK N   1      20.761  16.654   2.413  0.00  0.00    -0.347 N 
HETATM   28  C   UNK N   1      21.572  15.457   2.502  0.00  0.00     0.157 C 
ENDBRANCH  21  22
BRANCH  21  29
HETATM   29  C   UNK N   1      20.596  16.786   5.977  0.00  0.00    -0.013 A 
HETATM   30  C   UNK N   1      20.587  17.300   7.295  0.00  0.00     0.012 A 
HETATM   31  C   UNK N   1      20.503  16.441   8.414  0.00  0.00     0.024 A 
HETATM   32  C   UNK N   1      20.450  15.050   8.245  0.00  0.00     0.034 A 
HETATM   33  C   UNK N   1      20.408  14.522   6.957  0.00  0.00     0.024 A 
HETATM   34 Cl   UNK N   1      20.536  13.970   9.633  0.00  0.00    -0.084 Cl
HETATM   35  C   UNK N   1      20.484  15.373   5.846  0.00  0.00     0.012 A 
ENDBRANCH  21  29
BRANCH  21  36
HETATM   36  O   UNK N   1      20.999  18.972   5.194  0.00  0.00    -0.374 OA
HETATM   37  H   UNK N   1      21.093  19.903   5.447  0.00  0.00     0.212 HD
ENDBRANCH  21  36
ENDBRANCH  16  21
ENDBRANCH   1   9
TORSDOF 5
ENDMDL
MODEL 2
REMARK VINA RESULT:      -7.9     14.510     17.748
REMARK  5 active torsions:
REMARK  status: ('A' for Active; 'I' for Inactive)
REMARK    1  A    between atoms: C_8  and  C_7 
REMARK    2  A    between atoms: C_8  and  C_9 
REMARK    3  A    between atoms: C_8  and  C_16 
REMARK    4  A    between atoms: C_8  and  O_36 
REMARK    5  A    between atoms: C_22  and  C_28 
ROOT
HETATM    1  C   UNK N   1      27.717  26.808  -6.559  0.00  0.00    -0.024 A 
HETATM    2  C   UNK N   1      28.434  27.464  -7.583  0.00  0.00     0.012 A 
HETATM    3  C   UNK N   1      28.629  28.842  -7.577  0.00  0.00     0.002 A 
HETATM    4  C   UNK N   1      28.094  29.611  -6.547  0.00  0.00     0.020 A 
HETATM    5  C   UNK N   1      27.407  28.990  -5.499  0.00  0.00     0.017 A 
HETATM    6  C   UNK N   1      27.218  27.596  -5.506  0.00  0.00     0.032 A 
HETATM    7  C   UNK N   1      26.894  29.776  -4.410  0.00  0.00    -0.078 C 
HETATM    8  C   UNK N   1      26.447  30.399  -3.477  0.00  0.00     0.018 C 
ENDROOT
BRANCH   1   9
HETATM    9  C   UNK N   1      27.175  25.404  -6.740  0.00  0.00    -0.008 A 
HETATM   10  C   UNK N   1      27.931  24.298  -6.308  0.00  0.00     0.003 A 
HETATM   11  C   UNK N   1      27.652  23.003  -6.798  0.00  0.00     0.048 A 
HETATM   12  C   UNK N   1      29.014  24.472  -5.464  0.00  0.00     0.025 A 
HETATM   13  C   UNK N   1      28.540  21.961  -6.505  0.00  0.00     0.031 A 
HETATM   14  N   UNK N   1      26.563  22.785  -7.590  0.00  0.00    -0.318 N 
HETATM   15  C   UNK N   1      29.640  22.195  -5.698  0.00  0.00     0.013 A 
HETATM   16  C   UNK N   1      29.865  23.447  -5.113  0.00  0.00    -0.012 A 
HETATM   17  C   UNK N   1      25.747  23.838  -7.949  0.00  0.00     0.248 A 
HETATM   18  C   UNK N   1      26.265  21.435  -8.070  0.00  0.00     0.159 C 
HETATM   19  C   UNK N   1      26.069  25.152  -7.568  0.00  0.00     0.087 A 
HETATM   20  O   UNK N   1      24.767  23.640  -8.647  0.00  0.00    -0.268 OA
BRANCH  16  21
HETATM   21  C   UNK N   1      30.948  23.759  -4.067  0.00  0.00     0.156 C 
BRANCH  21  22
HETATM   22  C   UNK N   1      31.851  22.494  -3.836  0.00  0.00     0.072 A 
HETATM   23  C   UNK N   1      31.911  21.729  -2.671  0.00  0.00     0.118 A 
HETATM   24  N   UNK N   1      32.988  20.928  -2.712  0.00  0.00    -0.360 N 
HETATM   25  C   UNK N   1      33.591  21.196  -3.884  0.00  0.00     0.182 A 
ATOM     26  HN  UNK N   1      33.285  20.257  -2.004  1.00  0.00     0.166 HD
HETATM   27  N   UNK N   1      32.918  22.135  -4.581  0.00  0.00    -0.347 N 
HETATM   28  C   UNK N   1      33.381  22.702  -5.831  0.00  0.00     0.157 C 
ENDBRANCH  21  22
BRANCH  21  29
HETATM   29  C   UNK N   1      31.482  25.221  -4.339  0.00  0.00    -0.013 A 
HETATM   30  C   UNK N   1      31.082  26.297  -3.513  0.00  0.00     0.012 A 
HETATM   31  C   UNK N   1      31.162  27.634  -3.964  0.00  0.00     0.024 A 
HETATM   32  C   UNK N   1      31.619  27.925  -5.256  0.00  0.00     0.034 A 
HETATM   33  C   UNK N   1      32.065  26.888  -6.071  0.00  0.00     0.024 A 
HETATM   34 Cl   UNK N   1      31.544  29.567  -5.890  0.00  0.00    -0.084 Cl
HETATM   35  C   UNK N   1      31.993  25.562  -5.622  0.00  0.00     0.012 A 
ENDBRANCH  21  29
BRANCH  21  36
HETATM   36  O   UNK N   1      30.241  23.866  -2.862  0.00  0.00    -0.374 OA
HETATM   37  H   UNK N   1      29.952  23.971  -1.943  0.00  0.00     0.212 HD
ENDBRANCH  21  36
ENDBRANCH  16  21
ENDBRANCH   1   9
TORSDOF 5
ENDMDL
MODEL 3
REMARK VINA RESULT:      -7.8     14.469     16.540
REMARK  5 active torsions:
REMARK  status: ('A' for Active; 'I' for Inactive)
REMARK    1  A    between atoms: C_8  and  C_7 
REMARK    2  A    between atoms: C_8  and  C_9 
REMARK    3  A    between atoms: C_8  and  C_16 
REMARK    4  A    between atoms: C_8  and  O_36 
REMARK    5  A    between atoms: C_22  and  C_28 
ROOT
HETATM    1  C   UNK N   1      29.251  21.449  -7.721  0.00  0.00    -0.024 A 
HETATM    2  C   UNK N   1      28.221  20.606  -8.190  0.00  0.00     0.012 A 
HETATM    3  C   UNK N   1      27.450  20.936  -9.301  0.00  0.00     0.002 A 
HETATM    4  C   UNK N   1      27.679  22.135  -9.970  0.00  0.00     0.020 A 
HETATM    5  C   UNK N   1      28.715  22.977  -9.553  0.00  0.00     0.017 A 
HETATM    6  C   UNK N   1      29.495  22.637  -8.434  0.00  0.00     0.032 A 
HETATM    7  C   UNK N   1      28.985  24.194 -10.271  0.00  0.00    -0.078 C 
HETATM    8  C   UNK N   1      29.245  25.224 -10.845  0.00  0.00     0.018 C 
ENDROOT
BRANCH   1   9
HETATM    9  C   UNK N   1      29.828  21.303  -6.327  0.00  0.00    -0.008 A 
HETATM   10  C   UNK N   1      29.585  22.296  -5.359  0.00  0.00     0.003 A 
HETATM   11  C   UNK N   1      30.401  22.393  -4.210  0.00  0.00     0.048 A 
HETATM   12  C   UNK N   1      28.600  23.247  -5.559  0.00  0.00     0.025 A 
HETATM   13  C   UNK N   1      30.262  23.504  -3.371  0.00  0.00     0.031 A 
HETATM   14  N   UNK N   1      31.348  21.445  -3.956  0.00  0.00    -0.318 N 
HETATM   15  C   UNK N   1      29.295  24.458  -3.640  0.00  0.00     0.013 A 
HETATM   16  C   UNK N   1      28.404  24.315  -4.710  0.00  0.00    -0.012 A 
HETATM   17  C   UNK N   1      31.540  20.403  -4.839  0.00  0.00     0.248 A 
HETATM   18  C   UNK N   1      32.170  21.538  -2.748  0.00  0.00     0.159 C 
HETATM   19  C   UNK N   1      30.819  20.349  -6.045  0.00  0.00     0.087 A 
HETATM   20  O   UNK N   1      32.379  19.550  -4.605  0.00  0.00    -0.268 OA
BRANCH  16  21
HETATM   21  C   UNK N   1      27.191  25.219  -4.985  0.00  0.00     0.156 C 
BRANCH  21  22
HETATM   22  C   UNK N   1      27.246  26.488  -4.060  0.00  0.00     0.072 A 
HETATM   23  C   UNK N   1      26.247  26.910  -3.183  0.00  0.00     0.118 A 
HETATM   24  N   UNK N   1      26.495  28.170  -2.791  0.00  0.00    -0.360 N 
HETATM   25  C   UNK N   1      27.628  28.527  -3.420  0.00  0.00     0.182 A 
ATOM     26  HN  UNK N   1      25.939  28.736  -2.149  1.00  0.00     0.166 HD
HETATM   27  N   UNK N   1      28.102  27.524  -4.188  0.00  0.00    -0.347 N 
HETATM   28  C   UNK N   1      29.250  27.648  -5.063  0.00  0.00     0.157 C 
ENDBRANCH  21  22
BRANCH  21  29
HETATM   29  C   UNK N   1      26.941  25.239  -6.545  0.00  0.00    -0.013 A 
HETATM   30  C   UNK N   1      27.208  26.404  -7.301  0.00  0.00     0.012 A 
HETATM   31  C   UNK N   1      26.602  26.613  -8.560  0.00  0.00     0.024 A 
HETATM   32  C   UNK N   1      25.699  25.677  -9.082  0.00  0.00     0.034 A 
HETATM   33  C   UNK N   1      25.457  24.500  -8.381  0.00  0.00     0.024 A 
HETATM   34 Cl   UNK N   1      24.799  26.019 -10.558  0.00  0.00    -0.084 Cl
HETATM   35  C   UNK N   1      26.063  24.288  -7.135  0.00  0.00     0.012 A 
ENDBRANCH  21  29
BRANCH  21  36
HETATM   36  O   UNK N   1      26.104  24.501  -4.470  0.00  0.00    -0.374 OA
HETATM   37  H   UNK N   1      25.234  24.146  -4.231  0.00  0.00     0.212 HD
ENDBRANCH  21  36
ENDBRANCH  16  21
ENDBRANCH   1   9
TORSDOF 5
ENDMDL
MODEL 4
REMARK VINA RESULT:      -7.8      3.126      7.538
REMARK  5 active torsions:
REMARK  status: ('A' for Active; 'I' for Inactive)
REMARK    1  A    between atoms: C_8  and  C_7 
REMARK    2  A    between atoms: C_8  and  C_9 
REMARK    3  A    between atoms: C_8  and  C_16 
REMARK    4  A    between atoms: C_8  and  O_36 
REMARK    5  A    between atoms: C_22  and  C_28 
ROOT
HETATM    1  C   UNK N   1      20.841  17.585   4.596  0.00  0.00    -0.024 A 
HETATM    2  C   UNK N   1      21.080  18.976   4.579  0.00  0.00     0.012 A 
HETATM    3  C   UNK N   1      20.960  19.729   3.415  0.00  0.00     0.002 A 
HETATM    4  C   UNK N   1      20.612  19.103   2.221  0.00  0.00     0.020 A 
HETATM    5  C   UNK N   1      20.335  17.732   2.208  0.00  0.00     0.017 A 
HETATM    6  C   UNK N   1      20.451  16.977   3.389  0.00  0.00     0.032 A 
HETATM    7  C   UNK N   1      19.929  17.091   0.986  0.00  0.00    -0.078 C 
HETATM    8  C   UNK N   1      19.586  16.515  -0.018  0.00  0.00     0.018 C 
ENDROOT
BRANCH   1   9
HETATM    9  C   UNK N   1      21.329  16.707   5.731  0.00  0.00    -0.008 A 
HETATM   10  C   UNK N   1      22.701  16.415   5.855  0.00  0.00     0.003 A 
HETATM   11  C   UNK N   1      23.134  15.319   6.634  0.00  0.00     0.048 A 
HETATM   12  C   UNK N   1      23.641  17.141   5.146  0.00  0.00     0.025 A 
HETATM   13  C   UNK N   1      24.479  14.936   6.578  0.00  0.00     0.031 A 
HETATM   14  N   UNK N   1      22.241  14.612   7.385  0.00  0.00    -0.318 N 
HETATM   15  C   UNK N   1      25.374  15.664   5.813  0.00  0.00     0.013 A 
HETATM   16  C   UNK N   1      24.980  16.819   5.127  0.00  0.00    -0.012 A 
HETATM   17  C   UNK N   1      20.901  14.940   7.360  0.00  0.00     0.248 A 
HETATM   18  C   UNK N   1      22.703  13.496   8.212  0.00  0.00     0.159 C 
HETATM   19  C   UNK N   1      20.431  15.952   6.505  0.00  0.00     0.087 A 
HETATM   20  O   UNK N   1      20.106  14.315   8.041  0.00  0.00    -0.268 OA
BRANCH  16  21
HETATM   21  C   UNK N   1      25.927  17.790   4.402  0.00  0.00     0.156 C 
BRANCH  21  22
HETATM   22  C   UNK N   1      26.538  18.812   5.428  0.00  0.00     0.072 A 
HETATM   23  C   UNK N   1      26.454  20.202   5.352  0.00  0.00     0.118 A 
HETATM   24  N   UNK N   1      27.330  20.754   6.208  0.00  0.00    -0.360 N 
HETATM   25  C   UNK N   1      27.953  19.720   6.802  0.00  0.00     0.182 A 
ATOM     26  HN  UNK N   1      27.489  21.747   6.372  1.00  0.00     0.166 HD
HETATM   27  N   UNK N   1      27.485  18.538   6.350  0.00  0.00    -0.347 N 
HETATM   28  C   UNK N   1      28.034  17.252   6.729  0.00  0.00     0.157 C 
ENDBRANCH  21  22
BRANCH  21  29
HETATM   29  C   UNK N   1      26.753  16.964   3.339  0.00  0.00    -0.013 A 
HETATM   30  C   UNK N   1      26.115  15.998   2.527  0.00  0.00     0.012 A 
HETATM   31  C   UNK N   1      26.851  14.960   1.912  0.00  0.00     0.024 A 
HETATM   32  C   UNK N   1      28.233  14.848   2.112  0.00  0.00     0.034 A 
HETATM   33  C   UNK N   1      28.892  15.814   2.867  0.00  0.00     0.024 A 
HETATM   34 Cl   UNK N   1      29.123  13.454   1.505  0.00  0.00    -0.084 Cl
HETATM   35  C   UNK N   1      28.165  16.848   3.472  0.00  0.00     0.012 A 
ENDBRANCH  21  29
BRANCH  21  36
HETATM   36  O   UNK N   1      25.073  18.591   3.631  0.00  0.00    -0.374 OA
HETATM   37  H   UNK N   1      24.433  18.953   3.000  0.00  0.00     0.212 HD
ENDBRANCH  21  36
ENDBRANCH  16  21
ENDBRANCH   1   9
TORSDOF 5
ENDMDL
MODEL 5
REMARK VINA RESULT:      -7.5      3.164      7.050
REMARK  5 active torsions:
REMARK  status: ('A' for Active; 'I' for Inactive)
REMARK    1  A    between atoms: C_8  and  C_7 
REMARK    2  A    between atoms: C_8  and  C_9 
REMARK    3  A    between atoms: C_8  and  C_16 
REMARK    4  A    between atoms: C_8  and  O_36 
REMARK    5  A    between atoms: C_22  and  C_28 
ROOT
HETATM    1  C   UNK N   1      25.570  19.488   3.853  0.00  0.00    -0.024 A 
HETATM    2  C   UNK N   1      26.220  20.476   4.623  0.00  0.00     0.012 A 
HETATM    3  C   UNK N   1      27.537  20.328   5.047  0.00  0.00     0.002 A 
HETATM    4  C   UNK N   1      28.241  19.171   4.725  0.00  0.00     0.020 A 
HETATM    5  C   UNK N   1      27.639  18.187   3.935  0.00  0.00     0.017 A 
HETATM    6  C   UNK N   1      26.309  18.344   3.503  0.00  0.00     0.032 A 
HETATM    7  C   UNK N   1      28.379  17.012   3.560  0.00  0.00    -0.078 C 
HETATM    8  C   UNK N   1      28.965  16.012   3.224  0.00  0.00     0.018 C 
ENDROOT
BRANCH   1   9
HETATM    9  C   UNK N   1      24.061  19.452   3.713  0.00  0.00    -0.008 A 
HETATM   10  C   UNK N   1      23.359  18.259   3.973  0.00  0.00     0.003 A 
HETATM   11  C   UNK N   1      22.044  18.079   3.489  0.00  0.00     0.048 A 
HETATM   12  C   UNK N   1      23.977  17.209   4.631  0.00  0.00     0.025 A 
HETATM   13  C   UNK N   1      21.450  16.817   3.592  0.00  0.00     0.031 A 
HETATM   14  N   UNK N   1      21.388  19.109   2.881  0.00  0.00    -0.318 N 
HETATM   15  C   UNK N   1      22.128  15.781   4.213  0.00  0.00     0.013 A 
HETATM   16  C   UNK N   1      23.384  15.976   4.798  0.00  0.00    -0.012 A 
HETATM   17  C   UNK N   1      22.018  20.323   2.702  0.00  0.00     0.248 A 
HETATM   18  C   UNK N   1      20.015  18.923   2.408  0.00  0.00     0.159 C 
HETATM   19  C   UNK N   1      23.364  20.489   3.072  0.00  0.00     0.087 A 
HETATM   20  O   UNK N   1      21.425  21.246   2.169  0.00  0.00    -0.268 OA
BRANCH  16  21
HETATM   21  C   UNK N   1      24.135  14.947   5.660  0.00  0.00     0.156 C 
BRANCH  21  22
HETATM   22  C   UNK N   1      23.107  14.009   6.391  0.00  0.00     0.072 A 
HETATM   23  C   UNK N   1      22.693  14.121   7.718  0.00  0.00     0.118 A 
HETATM   24  N   UNK N   1      22.061  12.996   8.089  0.00  0.00    -0.360 N 
HETATM   25  C   UNK N   1      22.087  12.195   7.010  0.00  0.00     0.182 A 
ATOM     26  HN  UNK N   1      21.647  12.792   8.999  1.00  0.00     0.166 HD
HETATM   27  N   UNK N   1      22.710  12.790   5.971  0.00  0.00    -0.347 N 
HETATM   28  C   UNK N   1      22.982  12.134   4.707  0.00  0.00     0.157 C 
ENDBRANCH  21  22
BRANCH  21  29
HETATM   29  C   UNK N   1      25.397  14.457   4.847  0.00  0.00    -0.013 A 
HETATM   30  C   UNK N   1      25.373  14.425   3.433  0.00  0.00     0.012 A 
HETATM   31  C   UNK N   1      26.265  13.605   2.706  0.00  0.00     0.024 A 
HETATM   32  C   UNK N   1      27.183  12.782   3.372  0.00  0.00     0.034 A 
HETATM   33  C   UNK N   1      27.260  12.832   4.761  0.00  0.00     0.024 A 
HETATM   34 Cl   UNK N   1      28.165  11.622   2.481  0.00  0.00    -0.084 Cl
HETATM   35  C   UNK N   1      26.381  13.650   5.483  0.00  0.00     0.012 A 
ENDBRANCH  21  29
BRANCH  21  36
HETATM   36  O   UNK N   1      24.672  15.705   6.710  0.00  0.00    -0.374 OA
HETATM   37  H   UNK N   1      24.842  16.319   7.440  0.00  0.00     0.212 HD
ENDBRANCH  21  36
ENDBRANCH  16  21
ENDBRANCH   1   9
TORSDOF 5
ENDMDL
MODEL 6
REMARK VINA RESULT:      -7.5     11.264     14.526
REMARK  5 active torsions:
REMARK  status: ('A' for Active; 'I' for Inactive)
REMARK    1  A    between atoms: C_8  and  C_7 
REMARK    2  A    between atoms: C_8  and  C_9 
REMARK    3  A    between atoms: C_8  and  C_16 
REMARK    4  A    between atoms: C_8  and  O_36 
REMARK    5  A    between atoms: C_22  and  C_28 
ROOT
HETATM    1  C   UNK N   1      34.604  10.181  11.918  0.00  0.00    -0.024 A 
HETATM    2  C   UNK N   1      35.783   9.523  11.506  0.00  0.00     0.012 A 
HETATM    3  C   UNK N   1      35.762   8.499  10.563  0.00  0.00     0.002 A 
HETATM    4  C   UNK N   1      34.550   8.090  10.015  0.00  0.00     0.020 A 
HETATM    5  C   UNK N   1      33.367   8.743  10.375  0.00  0.00     0.017 A 
HETATM    6  C   UNK N   1      33.393   9.781  11.323  0.00  0.00     0.032 A 
HETATM    7  C   UNK N   1      32.119   8.355   9.774  0.00  0.00    -0.078 C 
HETATM    8  C   UNK N   1      31.051   8.059   9.294  0.00  0.00     0.018 C 
ENDROOT
BRANCH   1   9
HETATM    9  C   UNK N   1      34.555  11.006  13.189  0.00  0.00    -0.008 A 
HETATM   10  C   UNK N   1      35.077  12.314  13.199  0.00  0.00     0.003 A 
HETATM   11  C   UNK N   1      35.400  12.949  14.418  0.00  0.00     0.048 A 
HETATM   12  C   UNK N   1      35.365  12.964  12.012  0.00  0.00     0.025 A 
HETATM   13  C   UNK N   1      36.097  14.162  14.388  0.00  0.00     0.031 A 
HETATM   14  N   UNK N   1      35.084  12.358  15.607  0.00  0.00    -0.318 N 
HETATM   15  C   UNK N   1      36.409  14.751  13.174  0.00  0.00     0.013 A 
HETATM   16  C   UNK N   1      35.995  14.189  11.961  0.00  0.00    -0.012 A 
HETATM   17  C   UNK N   1      34.480  11.118  15.625  0.00  0.00     0.248 A 
HETATM   18  C   UNK N   1      35.396  13.037  16.866  0.00  0.00     0.159 C 
HETATM   19  C   UNK N   1      34.254  10.417  14.428  0.00  0.00     0.087 A 
HETATM   20  O   UNK N   1      34.187  10.597  16.688  0.00  0.00    -0.268 OA
BRANCH  16  21
HETATM   21  C   UNK N   1      36.134  14.852  10.580  0.00  0.00     0.156 C 
BRANCH  21  22
HETATM   22  C   UNK N   1      37.017  13.953   9.641  0.00  0.00     0.072 A 
HETATM   23  C   UNK N   1      38.233  13.358   9.978  0.00  0.00     0.118 A 
HETATM   24  N   UNK N   1      38.848  12.927   8.865  0.00  0.00    -0.360 N 
HETATM   25  C   UNK N   1      38.028  13.255   7.850  0.00  0.00     0.182 A 
ATOM     26  HN  UNK N   1      39.747  12.450   8.802  1.00  0.00     0.166 HD
HETATM   27  N   UNK N   1      36.914  13.871   8.297  0.00  0.00    -0.347 N 
HETATM   28  C   UNK N   1      35.896  14.431   7.431  0.00  0.00     0.157 C 
ENDBRANCH  21  22
BRANCH  21  29
HETATM   29  C   UNK N   1      34.734  15.473  10.194  0.00  0.00    -0.013 A 
HETATM   30  C   UNK N   1      33.616  14.639   9.964  0.00  0.00     0.012 A 
HETATM   31  C   UNK N   1      32.511  15.090   9.207  0.00  0.00     0.024 A 
HETATM   32  C   UNK N   1      32.507  16.373   8.644  0.00  0.00     0.034 A 
HETATM   33  C   UNK N   1      33.574  17.231   8.897  0.00  0.00     0.024 A 
HETATM   34 Cl   UNK N   1      31.222  16.872   7.547  0.00  0.00    -0.084 Cl
HETATM   35  C   UNK N   1      34.668  16.788   9.653  0.00  0.00     0.012 A 
ENDBRANCH  21  29
BRANCH  21  36
HETATM   36  O   UNK N   1      36.954  15.963  10.815  0.00  0.00    -0.374 OA
HETATM   37  H   UNK N   1      37.677  16.606  10.885  0.00  0.00     0.212 HD
ENDBRANCH  21  36
ENDBRANCH  16  21
ENDBRANCH   1   9
TORSDOF 5
ENDMDL
MODEL 7
REMARK VINA RESULT:      -7.5      3.139      5.901
REMARK  5 active torsions:
REMARK  status: ('A' for Active; 'I' for Inactive)
REMARK    1  A    between atoms: C_8  and  C_7 
REMARK    2  A    between atoms: C_8  and  C_9 
REMARK    3  A    between atoms: C_8  and  C_16 
REMARK    4  A    between atoms: C_8  and  O_36 
REMARK    5  A    between atoms: C_22  and  C_28 
ROOT
HETATM    1  C   UNK N   1      20.436  14.194   6.978  0.00  0.00    -0.024 A 
HETATM    2  C   UNK N   1      19.889  15.483   6.804  0.00  0.00     0.012 A 
HETATM    3  C   UNK N   1      19.181  15.832   5.657  0.00  0.00     0.002 A 
HETATM    4  C   UNK N   1      19.015  14.899   4.637  0.00  0.00     0.020 A 
HETATM    5  C   UNK N   1      19.515  13.603   4.791  0.00  0.00     0.017 A 
HETATM    6  C   UNK N   1      20.224  13.252   5.955  0.00  0.00     0.032 A 
HETATM    7  C   UNK N   1      19.303  12.622   3.760  0.00  0.00    -0.078 C 
HETATM    8  C   UNK N   1      19.148  11.771   2.919  0.00  0.00     0.018 C 
ENDROOT
BRANCH   1   9
HETATM    9  C   UNK N   1      21.510  13.918   8.012  0.00  0.00    -0.008 A 
HETATM   10  C   UNK N   1      22.857  14.203   7.719  0.00  0.00     0.003 A 
HETATM   11  C   UNK N   1      23.896  13.613   8.474  0.00  0.00     0.048 A 
HETATM   12  C   UNK N   1      23.189  14.994   6.634  0.00  0.00     0.025 A 
HETATM   13  C   UNK N   1      25.217  13.757   8.038  0.00  0.00     0.031 A 
HETATM   14  N   UNK N   1      23.607  12.869   9.580  0.00  0.00    -0.318 N 
HETATM   15  C   UNK N   1      25.497  14.518   6.915  0.00  0.00     0.013 A 
HETATM   16  C   UNK N   1      24.488  15.200   6.224  0.00  0.00    -0.012 A 
HETATM   17  C   UNK N   1      22.294  12.656   9.948  0.00  0.00     0.248 A 
HETATM   18  C   UNK N   1      24.690  12.286  10.373  0.00  0.00     0.159 C 
HETATM   19  C   UNK N   1      21.243  13.136   9.148  0.00  0.00     0.087 A 
HETATM   20  O   UNK N   1      22.037  12.000  10.943  0.00  0.00    -0.268 OA
BRANCH  16  21
HETATM   21  C   UNK N   1      24.715  16.206   5.083  0.00  0.00     0.156 C 
BRANCH  21  22
HETATM   22  C   UNK N   1      25.809  15.659   4.096  0.00  0.00     0.072 A 
HETATM   23  C   UNK N   1      26.879  16.384   3.573  0.00  0.00     0.118 A 
HETATM   24  N   UNK N   1      27.423  15.708   2.548  0.00  0.00    -0.360 N 
HETATM   25  C   UNK N   1      26.697  14.583   2.432  0.00  0.00     0.182 A 
ATOM     26  HN  UNK N   1      28.220  15.990   1.977  1.00  0.00     0.166 HD
HETATM   27  N   UNK N   1      25.720  14.530   3.361  0.00  0.00    -0.347 N 
HETATM   28  C   UNK N   1      24.714  13.488   3.420  0.00  0.00     0.157 C 
ENDBRANCH  21  22
BRANCH  21  29
HETATM   29  C   UNK N   1      23.308  16.783   4.654  0.00  0.00    -0.013 A 
HETATM   30  C   UNK N   1      22.548  16.148   3.645  0.00  0.00     0.012 A 
HETATM   31  C   UNK N   1      21.543  16.847   2.939  0.00  0.00     0.024 A 
HETATM   32  C   UNK N   1      21.290  18.199   3.208  0.00  0.00     0.034 A 
HETATM   33  C   UNK N   1      21.990  18.832   4.230  0.00  0.00     0.024 A 
HETATM   34 Cl   UNK N   1      20.174  19.123   2.206  0.00  0.00    -0.084 Cl
HETATM   35  C   UNK N   1      22.983  18.139   4.936  0.00  0.00     0.012 A 
ENDBRANCH  21  29
BRANCH  21  36
HETATM   36  O   UNK N   1      25.359  17.286   5.700  0.00  0.00    -0.374 OA
HETATM   37  H   UNK N   1      25.766  18.134   5.936  0.00  0.00     0.212 HD
ENDBRANCH  21  36
ENDBRANCH  16  21
ENDBRANCH   1   9
TORSDOF 5
ENDMDL
MODEL 8
REMARK VINA RESULT:      -7.5      2.499      4.494
REMARK  5 active torsions:
REMARK  status: ('A' for Active; 'I' for Inactive)
REMARK    1  A    between atoms: C_8  and  C_7 
REMARK    2  A    between atoms: C_8  and  C_9 
REMARK    3  A    between atoms: C_8  and  C_16 
REMARK    4  A    between atoms: C_8  and  O_36 
REMARK    5  A    between atoms: C_22  and  C_28 
ROOT
HETATM    1  C   UNK N   1      24.550  16.634   4.532  0.00  0.00    -0.024 A 
HETATM    2  C   UNK N   1      25.758  16.504   3.813  0.00  0.00     0.012 A 
HETATM    3  C   UNK N   1      26.804  15.707   4.271  0.00  0.00     0.002 A 
HETATM    4  C   UNK N   1      26.675  15.026   5.478  0.00  0.00     0.020 A 
HETATM    5  C   UNK N   1      25.480  15.106   6.199  0.00  0.00     0.017 A 
HETATM    6  C   UNK N   1      24.424  15.907   5.730  0.00  0.00     0.032 A 
HETATM    7  C   UNK N   1      25.327  14.366   7.423  0.00  0.00    -0.078 C 
HETATM    8  C   UNK N   1      25.158  13.761   8.454  0.00  0.00     0.018 C 
ENDROOT
BRANCH   1   9
HETATM    9  C   UNK N   1      23.579  17.766   4.259  0.00  0.00    -0.008 A 
HETATM   10  C   UNK N   1      22.201  17.498   4.147  0.00  0.00     0.003 A 
HETATM   11  C   UNK N   1      21.338  18.425   3.522  0.00  0.00     0.048 A 
HETATM   12  C   UNK N   1      21.684  16.284   4.566  0.00  0.00     0.025 A 
HETATM   13  C   UNK N   1      20.019  18.047   3.249  0.00  0.00     0.031 A 
HETATM   14  N   UNK N   1      21.803  19.650   3.142  0.00  0.00    -0.318 N 
HETATM   15  C   UNK N   1      19.560  16.801   3.642  0.00  0.00     0.013 A 
HETATM   16  C   UNK N   1      20.372  15.917   4.363  0.00  0.00    -0.012 A 
HETATM   17  C   UNK N   1      23.129  19.978   3.333  0.00  0.00     0.248 A 
HETATM   18  C   UNK N   1      20.895  20.617   2.522  0.00  0.00     0.159 C 
HETATM   19  C   UNK N   1      24.031  19.030   3.846  0.00  0.00     0.087 A 
HETATM   20  O   UNK N   1      23.540  21.077   3.003  0.00  0.00    -0.268 OA
BRANCH  16  21
HETATM   21  C   UNK N   1      19.905  14.595   4.996  0.00  0.00     0.156 C 
BRANCH  21  22
HETATM   22  C   UNK N   1      19.642  13.527   3.873  0.00  0.00     0.072 A 
HETATM   23  C   UNK N   1      18.488  12.757   3.726  0.00  0.00     0.118 A 
HETATM   24  N   UNK N   1      18.723  11.753   2.866  0.00  0.00    -0.360 N 
HETATM   25  C   UNK N   1      20.006  11.894   2.490  0.00  0.00     0.182 A 
ATOM     26  HN  UNK N   1      18.066  11.036   2.562  1.00  0.00     0.166 HD
HETATM   27  N   UNK N   1      20.579  12.963   3.082  0.00  0.00    -0.347 N 
HETATM   28  C   UNK N   1      21.980  13.307   2.950  0.00  0.00     0.157 C 
ENDBRANCH  21  22
BRANCH  21  29
HETATM   29  C   UNK N   1      20.758  14.352   6.303  0.00  0.00    -0.013 A 
HETATM   30  C   UNK N   1      21.377  13.102   6.536  0.00  0.00     0.012 A 
HETATM   31  C   UNK N   1      21.751  12.704   7.838  0.00  0.00     0.024 A 
HETATM   32  C   UNK N   1      21.496  13.532   8.940  0.00  0.00     0.034 A 
HETATM   33  C   UNK N   1      20.933  14.788   8.731  0.00  0.00     0.024 A 
HETATM   34 Cl   UNK N   1      21.787  12.964  10.582  0.00  0.00    -0.084 Cl
HETATM   35  C   UNK N   1      20.568  15.188   7.439  0.00  0.00     0.012 A 
ENDBRANCH  21  29
BRANCH  21  36
HETATM   36  O   UNK N   1      18.617  14.878   5.470  0.00  0.00    -0.374 OA
HETATM   37  H   UNK N   1      17.706  15.179   5.605  0.00  0.00     0.212 HD
ENDBRANCH  21  36
ENDBRANCH  16  21
ENDBRANCH   1   9
TORSDOF 5
ENDMDL
MODEL 9
REMARK VINA RESULT:      -7.5      3.086      7.069
REMARK  5 active torsions:
REMARK  status: ('A' for Active; 'I' for Inactive)
REMARK    1  A    between atoms: C_8  and  C_7 
REMARK    2  A    between atoms: C_8  and  C_9 
REMARK    3  A    between atoms: C_8  and  C_16 
REMARK    4  A    between atoms: C_8  and  O_36 
REMARK    5  A    between atoms: C_22  and  C_28 
ROOT
HETATM    1  C   UNK N   1      22.178  18.312   4.703  0.00  0.00    -0.024 A 
HETATM    2  C   UNK N   1      21.139  18.819   3.892  0.00  0.00     0.012 A 
HETATM    3  C   UNK N   1      21.373  19.781   2.914  0.00  0.00     0.002 A 
HETATM    4  C   UNK N   1      22.660  20.279   2.729  0.00  0.00     0.020 A 
HETATM    5  C   UNK N   1      23.718  19.775   3.491  0.00  0.00     0.017 A 
HETATM    6  C   UNK N   1      23.478  18.798   4.475  0.00  0.00     0.032 A 
HETATM    7  C   UNK N   1      25.057  20.253   3.270  0.00  0.00    -0.078 C 
HETATM    8  C   UNK N   1      26.194  20.627   3.116  0.00  0.00     0.018 C 
ENDROOT
BRANCH   1   9
HETATM    9  C   UNK N   1      21.891  17.574   5.996  0.00  0.00    -0.008 A 
HETATM   10  C   UNK N   1      22.405  16.278   6.194  0.00  0.00     0.003 A 
HETATM   11  C   UNK N   1      21.853  15.430   7.179  0.00  0.00     0.048 A 
HETATM   12  C   UNK N   1      23.399  15.782   5.368  0.00  0.00     0.025 A 
HETATM   13  C   UNK N   1      22.248  14.088   7.219  0.00  0.00     0.031 A 
HETATM   14  N   UNK N   1      20.907  15.901   8.042  0.00  0.00    -0.318 N 
HETATM   15  C   UNK N   1      23.210  13.624   6.338  0.00  0.00     0.013 A 
HETATM   16  C   UNK N   1      23.848  14.481   5.433  0.00  0.00    -0.012 A 
HETATM   17  C   UNK N   1      20.457  17.201   7.934  0.00  0.00     0.248 A 
HETATM   18  C   UNK N   1      20.361  15.024   9.079  0.00  0.00     0.159 C 
HETATM   19  C   UNK N   1      20.908  18.027   6.890  0.00  0.00     0.087 A 
HETATM   20  O   UNK N   1      19.621  17.624   8.713  0.00  0.00    -0.268 OA
BRANCH  16  21
HETATM   21  C   UNK N   1      25.045  14.105   4.544  0.00  0.00     0.156 C 
BRANCH  21  22
HETATM   22  C   UNK N   1      24.539  13.633   3.133  0.00  0.00     0.072 A 
HETATM   23  C   UNK N   1      23.211  13.406   2.770  0.00  0.00     0.118 A 
HETATM   24  N   UNK N   1      23.169  12.731   1.610  0.00  0.00    -0.360 N 
HETATM   25  C   UNK N   1      24.453  12.536   1.261  0.00  0.00     0.182 A 
ATOM     26  HN  UNK N   1      22.339  12.430   1.102  1.00  0.00     0.166 HD
HETATM   27  N   UNK N   1      25.297  13.077   2.164  0.00  0.00    -0.347 N 
HETATM   28  C   UNK N   1      26.738  12.939   2.110  0.00  0.00     0.157 C 
ENDBRANCH  21  22
BRANCH  21  29
HETATM   29  C   UNK N   1      26.189  15.165   4.793  0.00  0.00    -0.013 A 
HETATM   30  C   UNK N   1      26.660  15.421   6.101  0.00  0.00     0.012 A 
HETATM   31  C   UNK N   1      27.326  16.627   6.416  0.00  0.00     0.024 A 
HETATM   32  C   UNK N   1      27.518  17.613   5.438  0.00  0.00     0.034 A 
HETATM   33  C   UNK N   1      27.108  17.364   4.131  0.00  0.00     0.024 A 
HETATM   34 Cl   UNK N   1      28.177  19.189   5.865  0.00  0.00    -0.084 Cl
HETATM   35  C   UNK N   1      26.453  16.166   3.816  0.00  0.00     0.012 A 
ENDBRANCH  21  29
BRANCH  21  36
HETATM   36  O   UNK N   1      25.538  12.923   5.113  0.00  0.00    -0.374 OA
HETATM   37  H   UNK N   1      25.678  12.028   5.460  0.00  0.00     0.212 HD
ENDBRANCH  21  36
ENDBRANCH  16  21
ENDBRANCH   1   9
TORSDOF 5
ENDMDL
