MODEL 1
REMARK VINA RESULT:      -8.0      0.000      0.000
REMARK  9 active torsions:
REMARK  status: ('A' for Active; 'I' for Inactive)
REMARK    1  A    between atoms: C_12  and  O_22 
REMARK    2  A    between atoms: C_14  and  C_20 
REMARK    3  A    between atoms: C_15  and  O_18 
REMARK    4  A    between atoms: O_22  and  C_23 
REMARK    5  A    between atoms: C_23  and  C_25 
REMARK    6  A    between atoms: C_25  and  S_26 
REMARK    7  A    between atoms: C_27  and  S_26 
REMARK    8  A    between atoms: C_30  and  N_34 
REMARK    9  A    between atoms: C_32  and  O_33 
ROOT
HETATM    1  C   UNK N   1      32.153  18.108   8.457  0.00  0.00     0.011 C 
HETATM    2  C   UNK N   1      31.747  16.667   8.204  0.00  0.00    -0.007 C 
HETATM    3  C   UNK N   1      30.718  16.619   7.018  0.00  0.00     0.006 C 
HETATM    4  C   UNK N   1      30.917  15.438   6.003  0.00  0.00     0.011 C 
HETATM    5  C   UNK N   1      32.390  15.242   5.515  0.00  0.00    -0.023 C 
HETATM    6  C   UNK N   1      32.624  15.980   4.183  0.00  0.00     0.018 C 
HETATM    7  C   UNK N   1      33.016  17.418   4.531  0.00  0.00     0.079 C 
HETATM    8  C   UNK N   1      33.577  17.249   5.885  0.00  0.00     0.132 C 
HETATM    9  O   UNK N   1      34.305  18.077   6.410  0.00  0.00    -0.298 OA
HETATM   10  C   UNK N   1      33.320  15.903   6.457  0.00  0.00     0.075 C 
HETATM   11  C   UNK N   1      32.923  15.710   7.923  0.00  0.00    -0.003 C 
HETATM   12  C   UNK N   1      34.296  15.756   8.592  0.00  0.00     0.142 C 
HETATM   13  C   UNK N   1      35.360  14.792   7.930  0.00  0.00     0.049 C 
HETATM   14  C   UNK N   1      35.083  13.445   7.136  0.00  0.00     0.002 C 
HETATM   15  C   UNK N   1      34.395  13.489   5.698  0.00  0.00     0.134 C 
HETATM   16  C   UNK N   1      32.851  13.750   5.524  0.00  0.00     0.021 C 
HETATM   17  C   UNK N   1      32.294  12.983   4.335  0.00  0.00     0.013 C 
HETATM   18  C   UNK N   1      34.358  12.437   8.010  0.00  0.00     0.022 C 
HETATM   19  C   UNK N   1      32.324  14.350   8.297  0.00  0.00     0.019 C 
ENDROOT
BRANCH  12  20
HETATM   20  O   UNK N   1      34.283  15.614   9.957  0.00  0.00    -0.315 OA
BRANCH  20  21
HETATM   21  C   UNK N   1      35.243  16.222  10.686  0.00  0.00     0.268 C 
HETATM   22  O   UNK N   1      35.570  17.372  10.434  0.00  0.00    -0.264 OA
BRANCH  21  23
HETATM   23  C   UNK N   1      35.996  15.451  11.719  0.00  0.00     0.185 C 
BRANCH  23  24
HETATM   24  S   UNK N   1      35.627  13.678  11.611  0.00  0.00    -0.152 SA
BRANCH  24  25
HETATM   25  C   UNK N   1      35.257  13.536  13.388  0.00  0.00     0.076 C 
HETATM   26  C   UNK N   1      36.444  14.048  14.211  0.00  0.00     0.020 C 
HETATM   27  C   UNK N   1      36.386  13.638  15.690  0.00  0.00     0.026 C 
HETATM   28  C   UNK N   1      34.996  13.170  16.106  0.00  0.00     0.076 C 
HETATM   29  C   UNK N   1      34.541  11.969  15.270  0.00  0.00     0.057 C 
HETATM   30  C   UNK N   1      34.853  12.105  13.770  0.00  0.00     0.133 C 
BRANCH  28  31
HETATM   31  N   UNK N   1      34.994  12.817  17.514  0.00  0.00    -0.426 N 
HETATM   32  H   UNK N   1      34.401  13.324  18.171  0.00  0.00     0.150 HD
HETATM   33  H   UNK N   1      35.588  12.058  17.849  0.00  0.00     0.150 HD
ENDBRANCH  28  31
BRANCH  30  34
HETATM   34  O   UNK N   1      35.867  11.206  13.432  0.00  0.00    -0.394 OA
HETATM   35  H   UNK N   1      35.931  10.240  13.496  0.00  0.00     0.210 HD
ENDBRANCH  30  34
ENDBRANCH  24  25
ENDBRANCH  23  24
ENDBRANCH  21  23
ENDBRANCH  20  21
ENDBRANCH  12  20
BRANCH  14  36
HETATM   36  C   UNK N   1      36.440  12.815   6.952  0.00  0.00    -0.025 C 
HETATM   37  C   UNK N   1      37.581  13.423   7.288  0.00  0.00     0.008 C 
ENDBRANCH  14  36
BRANCH  15  38
HETATM   38  O   UNK N   1      35.132  14.244   4.780  0.00  0.00    -0.394 OA
HETATM   39  H   UNK N   1      35.618  14.576   4.009  0.00  0.00     0.210 HD
ENDBRANCH  15  38
TORSDOF 9
ENDMDL
MODEL 2
REMARK VINA RESULT:      -7.6     15.580     19.069
REMARK  9 active torsions:
REMARK  status: ('A' for Active; 'I' for Inactive)
REMARK    1  A    between atoms: C_12  and  O_22 
REMARK    2  A    between atoms: C_14  and  C_20 
REMARK    3  A    between atoms: C_15  and  O_18 
REMARK    4  A    between atoms: O_22  and  C_23 
REMARK    5  A    between atoms: C_23  and  C_25 
REMARK    6  A    between atoms: C_25  and  S_26 
REMARK    7  A    between atoms: C_27  and  S_26 
REMARK    8  A    between atoms: C_30  and  N_34 
REMARK    9  A    between atoms: C_32  and  O_33 
ROOT
HETATM    1  C   UNK N   1      27.095  25.595  -9.074  0.00  0.00     0.011 C 
HETATM    2  C   UNK N   1      28.071  26.242  -8.108  0.00  0.00    -0.007 C 
HETATM    3  C   UNK N   1      27.634  27.728  -7.847  0.00  0.00     0.006 C 
HETATM    4  C   UNK N   1      27.764  28.215  -6.360  0.00  0.00     0.011 C 
HETATM    5  C   UNK N   1      27.170  27.230  -5.300  0.00  0.00    -0.023 C 
HETATM    6  C   UNK N   1      25.722  27.620  -4.948  0.00  0.00     0.018 C 
HETATM    7  C   UNK N   1      24.812  26.937  -5.972  0.00  0.00     0.079 C 
HETATM    8  C   UNK N   1      25.644  25.790  -6.383  0.00  0.00     0.132 C 
HETATM    9  O   UNK N   1      25.187  24.804  -6.939  0.00  0.00    -0.298 OA
HETATM   10  C   UNK N   1      27.042  25.879  -5.890  0.00  0.00     0.075 C 
HETATM   11  C   UNK N   1      28.235  25.495  -6.769  0.00  0.00    -0.003 C 
HETATM   12  C   UNK N   1      28.243  23.979  -6.582  0.00  0.00     0.142 C 
HETATM   13  C   UNK N   1      28.200  23.522  -5.069  0.00  0.00     0.049 C 
HETATM   14  C   UNK N   1      28.724  24.323  -3.801  0.00  0.00     0.002 C 
HETATM   15  C   UNK N   1      27.963  25.636  -3.311  0.00  0.00     0.134 C 
HETATM   16  C   UNK N   1      28.105  27.011  -4.068  0.00  0.00     0.021 C 
HETATM   17  C   UNK N   1      28.043  28.181  -3.100  0.00  0.00     0.013 C 
HETATM   18  C   UNK N   1      30.209  24.618  -3.920  0.00  0.00     0.022 C 
HETATM   19  C   UNK N   1      29.613  25.978  -6.302  0.00  0.00     0.019 C 
ENDROOT
BRANCH  12  20
HETATM   20  O   UNK N   1      29.227  23.312  -7.270  0.00  0.00    -0.315 OA
BRANCH  20  21
HETATM   21  C   UNK N   1      28.893  22.224  -7.994  0.00  0.00     0.268 C 
HETATM   22  O   UNK N   1      28.050  22.305  -8.874  0.00  0.00    -0.264 OA
BRANCH  21  23
HETATM   23  C   UNK N   1      29.461  20.889  -7.639  0.00  0.00     0.185 C 
BRANCH  23  24
HETATM   24  S   UNK N   1      31.161  20.717  -8.248  0.00  0.00    -0.152 SA
BRANCH  24  25
HETATM   25  C   UNK N   1      31.867  20.620  -6.573  0.00  0.00     0.076 C 
HETATM   26  C   UNK N   1      30.747  20.417  -5.545  0.00  0.00     0.020 C 
HETATM   27  C   UNK N   1      31.187  20.686  -4.099  0.00  0.00     0.026 C 
HETATM   28  C   UNK N   1      32.705  20.701  -3.949  0.00  0.00     0.076 C 
HETATM   29  C   UNK N   1      33.340  21.774  -4.839  0.00  0.00     0.057 C 
HETATM   30  C   UNK N   1      32.740  21.842  -6.253  0.00  0.00     0.133 C 
BRANCH  28  31
HETATM   31  N   UNK N   1      33.062  20.937  -2.562  0.00  0.00    -0.426 N 
HETATM   32  H   UNK N   1      32.395  20.739  -1.817  0.00  0.00     0.150 HD
HETATM   33  H   UNK N   1      33.987  21.303  -2.332  0.00  0.00     0.150 HD
ENDBRANCH  28  31
BRANCH  30  34
HETATM   34  O   UNK N   1      31.997  23.017  -6.379  0.00  0.00    -0.394 OA
HETATM   35  H   UNK N   1      31.548  23.427  -7.135  0.00  0.00     0.210 HD
ENDBRANCH  30  34
ENDBRANCH  24  25
ENDBRANCH  23  24
ENDBRANCH  21  23
ENDBRANCH  20  21
ENDBRANCH  12  20
BRANCH  14  36
HETATM   36  C   UNK N   1      28.667  23.334  -2.666  0.00  0.00    -0.025 C 
HETATM   37  C   UNK N   1      29.713  23.058  -1.882  0.00  0.00     0.008 C 
ENDBRANCH  14  36
BRANCH  15  38
HETATM   38  O   UNK N   1      26.626  25.384  -2.986  0.00  0.00    -0.394 OA
HETATM   39  H   UNK N   1      25.711  25.065  -2.947  0.00  0.00     0.210 HD
ENDBRANCH  15  38
TORSDOF 9
ENDMDL
MODEL 3
REMARK VINA RESULT:      -7.4      3.408      6.322
REMARK  9 active torsions:
REMARK  status: ('A' for Active; 'I' for Inactive)
REMARK    1  A    between atoms: C_12  and  O_22 
REMARK    2  A    between atoms: C_14  and  C_20 
REMARK    3  A    between atoms: C_15  and  O_18 
REMARK    4  A    between atoms: O_22  and  C_23 
REMARK    5  A    between atoms: C_23  and  C_25 
REMARK    6  A    between atoms: C_25  and  S_26 
REMARK    7  A    between atoms: C_27  and  S_26 
REMARK    8  A    between atoms: C_30  and  N_34 
REMARK    9  A    between atoms: C_32  and  O_33 
ROOT
HETATM    1  C   UNK N   1      31.524  15.249   3.404  0.00  0.00     0.011 C 
HETATM    2  C   UNK N   1      30.434  16.306   3.385  0.00  0.00    -0.007 C 
HETATM    3  C   UNK N   1      29.264  15.827   2.453  0.00  0.00     0.006 C 
HETATM    4  C   UNK N   1      27.816  16.122   2.985  0.00  0.00     0.011 C 
HETATM    5  C   UNK N   1      27.581  15.726   4.480  0.00  0.00    -0.023 C 
HETATM    6  C   UNK N   1      26.967  14.316   4.578  0.00  0.00     0.018 C 
HETATM    7  C   UNK N   1      28.129  13.320   4.581  0.00  0.00     0.079 C 
HETATM    8  C   UNK N   1      29.227  14.153   5.108  0.00  0.00     0.132 C 
HETATM    9  O   UNK N   1      30.249  13.682   5.581  0.00  0.00    -0.298 OA
HETATM   10  C   UNK N   1      28.883  15.596   5.173  0.00  0.00     0.075 C 
HETATM   11  C   UNK N   1      29.883  16.684   4.774  0.00  0.00    -0.003 C 
HETATM   12  C   UNK N   1      30.698  16.798   6.062  0.00  0.00     0.142 C 
HETATM   13  C   UNK N   1      29.816  16.977   7.361  0.00  0.00     0.049 C 
HETATM   14  C   UNK N   1      28.366  17.618   7.466  0.00  0.00     0.002 C 
HETATM   15  C   UNK N   1      27.107  16.857   6.851  0.00  0.00     0.134 C 
HETATM   16  C   UNK N   1      26.832  16.823   5.300  0.00  0.00     0.021 C 
HETATM   17  C   UNK N   1      25.341  16.824   5.005  0.00  0.00     0.013 C 
HETATM   18  C   UNK N   1      28.371  19.056   6.980  0.00  0.00     0.022 C 
HETATM   19  C   UNK N   1      29.309  18.082   4.520  0.00  0.00     0.019 C 
ENDROOT
BRANCH  12  20
HETATM   20  O   UNK N   1      31.716  17.719   6.026  0.00  0.00    -0.315 OA
BRANCH  20  21
HETATM   21  C   UNK N   1      32.983  17.299   6.225  0.00  0.00     0.268 C 
HETATM   22  O   UNK N   1      33.880  17.682   5.490  0.00  0.00    -0.264 OA
BRANCH  21  23
HETATM   23  C   UNK N   1      33.272  16.266   7.264  0.00  0.00     0.185 C 
BRANCH  23  24
HETATM   24  S   UNK N   1      33.214  16.979   8.931  0.00  0.00    -0.152 SA
BRANCH  24  25
HETATM   25  C   UNK N   1      34.775  16.191   9.440  0.00  0.00     0.076 C 
HETATM   26  C   UNK N   1      35.068  14.984   8.541  0.00  0.00     0.020 C 
HETATM   27  C   UNK N   1      36.146  14.049   9.105  0.00  0.00     0.026 C 
HETATM   28  C   UNK N   1      36.966  14.709  10.208  0.00  0.00     0.076 C 
HETATM   29  C   UNK N   1      36.076  15.152  11.373  0.00  0.00     0.057 C 
HETATM   30  C   UNK N   1      34.764  15.822  10.930  0.00  0.00     0.133 C 
BRANCH  28  31
HETATM   31  N   UNK N   1      37.982  13.789  10.688  0.00  0.00    -0.426 N 
HETATM   32  H   UNK N   1      37.913  12.793  10.481  0.00  0.00     0.150 HD
HETATM   33  H   UNK N   1      38.768  14.141  11.234  0.00  0.00     0.150 HD
ENDBRANCH  28  31
BRANCH  30  34
HETATM   34  O   UNK N   1      33.697  14.967  11.212  0.00  0.00    -0.394 OA
HETATM   35  H   UNK N   1      32.793  15.133  11.525  0.00  0.00     0.210 HD
ENDBRANCH  30  34
ENDBRANCH  24  25
ENDBRANCH  23  24
ENDBRANCH  21  23
ENDBRANCH  20  21
ENDBRANCH  12  20
BRANCH  14  36
HETATM   36  C   UNK N   1      28.111  17.763   8.944  0.00  0.00    -0.025 C 
HETATM   37  C   UNK N   1      29.077  18.007   9.833  0.00  0.00     0.008 C 
ENDBRANCH  14  36
BRANCH  15  38
HETATM   38  O   UNK N   1      26.927  15.589   7.414  0.00  0.00    -0.394 OA
HETATM   39  H   UNK N   1      27.037  14.700   7.787  0.00  0.00     0.210 HD
ENDBRANCH  15  38
TORSDOF 9
ENDMDL
MODEL 4
REMARK VINA RESULT:      -7.3      2.399      4.456
REMARK  9 active torsions:
REMARK  status: ('A' for Active; 'I' for Inactive)
REMARK    1  A    between atoms: C_12  and  O_22 
REMARK    2  A    between atoms: C_14  and  C_20 
REMARK    3  A    between atoms: C_15  and  O_18 
REMARK    4  A    between atoms: O_22  and  C_23 
REMARK    5  A    between atoms: C_23  and  C_25 
REMARK    6  A    between atoms: C_25  and  S_26 
REMARK    7  A    between atoms: C_27  and  S_26 
REMARK    8  A    between atoms: C_30  and  N_34 
REMARK    9  A    between atoms: C_32  and  O_33 
ROOT
HETATM    1  C   UNK N   1      35.588  13.577   7.676  0.00  0.00     0.011 C 
HETATM    2  C   UNK N   1      35.331  14.953   7.087  0.00  0.00    -0.007 C 
HETATM    3  C   UNK N   1      35.376  14.861   5.519  0.00  0.00     0.006 C 
HETATM    4  C   UNK N   1      34.284  15.700   4.765  0.00  0.00     0.011 C 
HETATM    5  C   UNK N   1      32.834  15.531   5.326  0.00  0.00    -0.023 C 
HETATM    6  C   UNK N   1      32.069  14.451   4.535  0.00  0.00     0.018 C 
HETATM    7  C   UNK N   1      32.392  13.105   5.188  0.00  0.00     0.079 C 
HETATM    8  C   UNK N   1      32.736  13.520   6.561  0.00  0.00     0.132 C 
HETATM    9  O   UNK N   1      32.741  12.748   7.506  0.00  0.00    -0.298 OA
HETATM   10  C   UNK N   1      32.890  14.990   6.703  0.00  0.00     0.075 C 
HETATM   11  C   UNK N   1      34.012  15.608   7.541  0.00  0.00    -0.003 C 
HETATM   12  C   UNK N   1      33.399  15.516   8.938  0.00  0.00     0.142 C 
HETATM   13  C   UNK N   1      31.933  16.101   9.030  0.00  0.00     0.049 C 
HETATM   14  C   UNK N   1      31.282  17.229   8.122  0.00  0.00     0.002 C 
HETATM   15  C   UNK N   1      30.947  16.932   6.591  0.00  0.00     0.134 C 
HETATM   16  C   UNK N   1      32.071  16.884   5.489  0.00  0.00     0.021 C 
HETATM   17  C   UNK N   1      31.558  17.403   4.155  0.00  0.00     0.013 C 
HETATM   18  C   UNK N   1      32.064  18.527   8.223  0.00  0.00     0.022 C 
HETATM   19  C   UNK N   1      34.300  17.096   7.311  0.00  0.00     0.019 C 
ENDROOT
BRANCH  12  20
HETATM   20  O   UNK N   1      34.188  16.000   9.952  0.00  0.00    -0.315 OA
BRANCH  20  21
HETATM   21  C   UNK N   1      34.571  15.161  10.937  0.00  0.00     0.268 C 
HETATM   22  O   UNK N   1      33.738  14.517  11.556  0.00  0.00    -0.264 OA
BRANCH  21  23
HETATM   23  C   UNK N   1      36.003  15.111  11.360  0.00  0.00     0.185 C 
BRANCH  23  24
HETATM   24  S   UNK N   1      36.163  14.512  13.065  0.00  0.00    -0.152 SA
BRANCH  24  25
HETATM   25  C   UNK N   1      36.841  12.902  12.551  0.00  0.00     0.076 C 
HETATM   26  C   UNK N   1      37.216  12.945  11.065  0.00  0.00     0.020 C 
HETATM   27  C   UNK N   1      37.448  11.556  10.452  0.00  0.00     0.026 C 
HETATM   28  C   UNK N   1      37.651  10.481  11.515  0.00  0.00     0.076 C 
HETATM   29  C   UNK N   1      36.439  10.385  12.447  0.00  0.00     0.057 C 
HETATM   30  C   UNK N   1      35.880  11.751  12.879  0.00  0.00     0.133 C 
BRANCH  28  31
HETATM   31  N   UNK N   1      37.887   9.197  10.881  0.00  0.00    -0.426 N 
HETATM   32  H   UNK N   1      37.238   8.842  10.179  0.00  0.00     0.150 HD
HETATM   33  H   UNK N   1      38.707   8.647  11.139  0.00  0.00     0.150 HD
ENDBRANCH  28  31
BRANCH  30  34
HETATM   34  O   UNK N   1      34.645  11.956  12.260  0.00  0.00    -0.394 OA
HETATM   35  H   UNK N   1      33.801  12.304  12.588  0.00  0.00     0.210 HD
ENDBRANCH  30  34
ENDBRANCH  24  25
ENDBRANCH  23  24
ENDBRANCH  21  23
ENDBRANCH  20  21
ENDBRANCH  12  20
BRANCH  14  36
HETATM   36  C   UNK N   1      29.978  17.568   8.797  0.00  0.00    -0.025 C 
HETATM   37  C   UNK N   1      29.831  18.605   9.625  0.00  0.00     0.008 C 
ENDBRANCH  14  36
BRANCH  15  38
HETATM   38  O   UNK N   1      30.058  15.862   6.441  0.00  0.00    -0.394 OA
HETATM   39  H   UNK N   1      29.285  15.293   6.304  0.00  0.00     0.210 HD
ENDBRANCH  15  38
TORSDOF 9
ENDMDL
MODEL 5
REMARK VINA RESULT:      -7.2      3.433      8.734
REMARK  9 active torsions:
REMARK  status: ('A' for Active; 'I' for Inactive)
REMARK    1  A    between atoms: C_12  and  O_22 
REMARK    2  A    between atoms: C_14  and  C_20 
REMARK    3  A    between atoms: C_15  and  O_18 
REMARK    4  A    between atoms: O_22  and  C_23 
REMARK    5  A    between atoms: C_23  and  C_25 
REMARK    6  A    between atoms: C_25  and  S_26 
REMARK    7  A    between atoms: C_27  and  S_26 
REMARK    8  A    between atoms: C_30  and  N_34 
REMARK    9  A    between atoms: C_32  and  O_33 
ROOT
HETATM    1  C   UNK N   1      34.887  11.330   9.654  0.00  0.00     0.011 C 
HETATM    2  C   UNK N   1      34.468  10.931  11.058  0.00  0.00    -0.007 C 
HETATM    3  C   UNK N   1      34.743   9.399  11.265  0.00  0.00     0.006 C 
HETATM    4  C   UNK N   1      35.331   9.005  12.667  0.00  0.00     0.011 C 
HETATM    5  C   UNK N   1      36.531   9.890  13.139  0.00  0.00    -0.023 C 
HETATM    6  C   UNK N   1      37.873   9.229  12.766  0.00  0.00     0.018 C 
HETATM    7  C   UNK N   1      38.210   9.675  11.342  0.00  0.00     0.079 C 
HETATM    8  C   UNK N   1      37.473  10.949  11.251  0.00  0.00     0.132 C 
HETATM    9  O   UNK N   1      37.719  11.801  10.411  0.00  0.00    -0.298 OA
HETATM   10  C   UNK N   1      36.539  11.164  12.386  0.00  0.00     0.075 C 
HETATM   11  C   UNK N   1      35.139  11.746  12.182  0.00  0.00    -0.003 C 
HETATM   12  C   UNK N   1      35.461  13.239  12.137  0.00  0.00     0.142 C 
HETATM   13  C   UNK N   1      36.353  13.735  13.345  0.00  0.00     0.049 C 
HETATM   14  C   UNK N   1      36.447  13.106  14.801  0.00  0.00     0.002 C 
HETATM   15  C   UNK N   1      37.140  11.686  15.018  0.00  0.00     0.134 C 
HETATM   16  C   UNK N   1      36.418  10.340  14.630  0.00  0.00     0.021 C 
HETATM   17  C   UNK N   1      36.793   9.220  15.586  0.00  0.00     0.013 C 
HETATM   18  C   UNK N   1      35.091  13.113  15.485  0.00  0.00     0.022 C 
HETATM   19  C   UNK N   1      34.148  11.569  13.338  0.00  0.00     0.019 C 
ENDROOT
BRANCH  12  20
HETATM   20  O   UNK N   1      34.379  14.063  11.952  0.00  0.00    -0.315 OA
BRANCH  20  21
HETATM   21  C   UNK N   1      34.476  15.079  11.069  0.00  0.00     0.268 C 
HETATM   22  O   UNK N   1      35.052  16.110  11.378  0.00  0.00    -0.264 OA
BRANCH  21  23
HETATM   23  C   UNK N   1      33.769  14.995   9.756  0.00  0.00     0.185 C 
BRANCH  23  24
HETATM   24  S   UNK N   1      33.651  16.627   8.971  0.00  0.00    -0.152 SA
BRANCH  24  25
HETATM   25  C   UNK N   1      33.628  15.935   7.286  0.00  0.00     0.076 C 
HETATM   26  C   UNK N   1      34.924  15.158   7.023  0.00  0.00     0.020 C 
HETATM   27  C   UNK N   1      35.164  14.853   5.538  0.00  0.00     0.026 C 
HETATM   28  C   UNK N   1      33.901  15.022   4.701  0.00  0.00     0.076 C 
HETATM   29  C   UNK N   1      33.354  16.449   4.803  0.00  0.00     0.057 C 
HETATM   30  C   UNK N   1      33.372  17.020   6.231  0.00  0.00     0.133 C 
BRANCH  28  31
HETATM   31  N   UNK N   1      34.179  14.700   3.314  0.00  0.00    -0.426 N 
HETATM   32  H   UNK N   1      34.244  15.441   2.616  0.00  0.00     0.150 HD
HETATM   33  H   UNK N   1      34.312  13.727   3.034  0.00  0.00     0.150 HD
ENDBRANCH  28  31
BRANCH  30  34
HETATM   34  O   UNK N   1      34.345  18.017   6.312  0.00  0.00    -0.394 OA
HETATM   35  H   UNK N   1      35.288  18.028   6.085  0.00  0.00     0.210 HD
ENDBRANCH  30  34
ENDBRANCH  24  25
ENDBRANCH  23  24
ENDBRANCH  21  23
ENDBRANCH  20  21
ENDBRANCH  12  20
BRANCH  14  36
HETATM   36  C   UNK N   1      37.235  14.106  15.607  0.00  0.00    -0.025 C 
HETATM   37  C   UNK N   1      37.199  15.421  15.379  0.00  0.00     0.008 C 
ENDBRANCH  14  36
BRANCH  15  38
HETATM   38  O   UNK N   1      38.472  11.676  14.589  0.00  0.00    -0.394 OA
HETATM   39  H   UNK N   1      39.317  11.827  14.137  0.00  0.00     0.210 HD
ENDBRANCH  15  38
TORSDOF 9
ENDMDL
MODEL 6
REMARK VINA RESULT:      -7.1     15.601     18.873
REMARK  9 active torsions:
REMARK  status: ('A' for Active; 'I' for Inactive)
REMARK    1  A    between atoms: C_12  and  O_22 
REMARK    2  A    between atoms: C_14  and  C_20 
REMARK    3  A    between atoms: C_15  and  O_18 
REMARK    4  A    between atoms: O_22  and  C_23 
REMARK    5  A    between atoms: C_23  and  C_25 
REMARK    6  A    between atoms: C_25  and  S_26 
REMARK    7  A    between atoms: C_27  and  S_26 
REMARK    8  A    between atoms: C_30  and  N_34 
REMARK    9  A    between atoms: C_32  and  O_33 
ROOT
HETATM    1  C   UNK N   1      29.454  26.992  -3.745  0.00  0.00     0.011 C 
HETATM    2  C   UNK N   1      28.039  26.758  -4.246  0.00  0.00    -0.007 C 
HETATM    3  C   UNK N   1      27.555  28.023  -5.039  0.00  0.00     0.006 C 
HETATM    4  C   UNK N   1      26.739  27.726  -6.348  0.00  0.00     0.011 C 
HETATM    5  C   UNK N   1      27.385  26.653  -7.285  0.00  0.00    -0.023 C 
HETATM    6  C   UNK N   1      28.241  27.328  -8.374  0.00  0.00     0.018 C 
HETATM    7  C   UNK N   1      29.637  27.534  -7.783  0.00  0.00     0.079 C 
HETATM    8  C   UNK N   1      29.679  26.476  -6.755  0.00  0.00     0.132 C 
HETATM    9  O   UNK N   1      30.720  26.066  -6.266  0.00  0.00    -0.298 OA
HETATM   10  C   UNK N   1      28.358  25.841  -6.519  0.00  0.00     0.075 C 
HETATM   11  C   UNK N   1      27.868  25.493  -5.111  0.00  0.00    -0.003 C 
HETATM   12  C   UNK N   1      28.574  24.155  -4.894  0.00  0.00     0.142 C 
HETATM   13  C   UNK N   1      28.367  23.126  -6.076  0.00  0.00     0.049 C 
HETATM   14  C   UNK N   1      27.144  23.045  -7.087  0.00  0.00     0.002 C 
HETATM   15  C   UNK N   1      26.936  24.180  -8.187  0.00  0.00     0.134 C 
HETATM   16  C   UNK N   1      26.361  25.601  -7.817  0.00  0.00     0.021 C 
HETATM   17  C   UNK N   1      25.515  26.163  -8.948  0.00  0.00     0.013 C 
HETATM   18  C   UNK N   1      25.839  22.820  -6.343  0.00  0.00     0.022 C 
HETATM   19  C   UNK N   1      26.371  25.203  -4.958  0.00  0.00     0.019 C 
ENDROOT
BRANCH  12  20
HETATM   20  O   UNK N   1      28.336  23.563  -3.678  0.00  0.00    -0.315 OA
BRANCH  20  21
HETATM   21  C   UNK N   1      29.380  23.313  -2.859  0.00  0.00     0.268 C 
HETATM   22  O   UNK N   1      29.204  23.199  -1.656  0.00  0.00    -0.264 OA
BRANCH  21  23
HETATM   23  C   UNK N   1      30.770  23.301  -3.405  0.00  0.00     0.185 C 
BRANCH  23  24
HETATM   24  S   UNK N   1      31.646  21.784  -2.935  0.00  0.00    -0.152 SA
BRANCH  24  25
HETATM   25  C   UNK N   1      31.878  21.254  -4.662  0.00  0.00     0.076 C 
HETATM   26  C   UNK N   1      30.544  20.772  -5.244  0.00  0.00     0.020 C 
HETATM   27  C   UNK N   1      30.697  19.974  -6.546  0.00  0.00     0.026 C 
HETATM   28  C   UNK N   1      32.066  20.169  -7.187  0.00  0.00     0.076 C 
HETATM   29  C   UNK N   1      33.190  19.739  -6.240  0.00  0.00     0.057 C 
HETATM   30  C   UNK N   1      32.986  20.198  -4.786  0.00  0.00     0.133 C 
BRANCH  28  31
HETATM   31  N   UNK N   1      32.147  19.412  -8.423  0.00  0.00    -0.426 N 
HETATM   32  H   UNK N   1      31.598  18.561  -8.542  0.00  0.00     0.150 HD
HETATM   33  H   UNK N   1      32.757  19.732  -9.176  0.00  0.00     0.150 HD
ENDBRANCH  28  31
BRANCH  30  34
HETATM   34  O   UNK N   1      32.692  19.088  -3.993  0.00  0.00    -0.394 OA
HETATM   35  H   UNK N   1      32.041  18.374  -4.085  0.00  0.00     0.210 HD
ENDBRANCH  30  34
ENDBRANCH  24  25
ENDBRANCH  23  24
ENDBRANCH  21  23
ENDBRANCH  20  21
ENDBRANCH  12  20
BRANCH  14  36
HETATM   36  C   UNK N   1      27.337  21.747  -7.828  0.00  0.00    -0.025 C 
HETATM   37  C   UNK N   1      26.325  20.969  -8.218  0.00  0.00     0.008 C 
ENDBRANCH  14  36
BRANCH  15  38
HETATM   38  O   UNK N   1      28.037  24.298  -9.042  0.00  0.00    -0.394 OA
HETATM   39  H   UNK N   1      28.914  24.280  -9.455  0.00  0.00     0.210 HD
ENDBRANCH  15  38
TORSDOF 9
ENDMDL
MODEL 7
REMARK VINA RESULT:      -6.9      3.377      7.654
REMARK  9 active torsions:
REMARK  status: ('A' for Active; 'I' for Inactive)
REMARK    1  A    between atoms: C_12  and  O_22 
REMARK    2  A    between atoms: C_14  and  C_20 
REMARK    3  A    between atoms: C_15  and  O_18 
REMARK    4  A    between atoms: O_22  and  C_23 
REMARK    5  A    between atoms: C_23  and  C_25 
REMARK    6  A    between atoms: C_25  and  S_26 
REMARK    7  A    between atoms: C_27  and  S_26 
REMARK    8  A    between atoms: C_30  and  N_34 
REMARK    9  A    between atoms: C_32  and  O_33 
ROOT
HETATM    1  C   UNK N   1      36.554  11.019   6.910  0.00  0.00     0.011 C 
HETATM    2  C   UNK N   1      35.725  11.223   8.166  0.00  0.00    -0.007 C 
HETATM    3  C   UNK N   1      36.454  10.548   9.382  0.00  0.00     0.006 C 
HETATM    4  C   UNK N   1      36.420  11.364  10.723  0.00  0.00     0.011 C 
HETATM    5  C   UNK N   1      36.796  12.875  10.573  0.00  0.00    -0.023 C 
HETATM    6  C   UNK N   1      38.292  13.094  10.870  0.00  0.00     0.018 C 
HETATM    7  C   UNK N   1      39.048  12.859   9.560  0.00  0.00     0.079 C 
HETATM    8  C   UNK N   1      38.002  13.153   8.562  0.00  0.00     0.132 C 
HETATM    9  O   UNK N   1      38.251  13.407   7.394  0.00  0.00    -0.298 OA
HETATM   10  C   UNK N   1      36.649  13.288   9.159  0.00  0.00     0.075 C 
HETATM   11  C   UNK N   1      35.407  12.696   8.490  0.00  0.00    -0.003 C 
HETATM   12  C   UNK N   1      35.090  13.790   7.472  0.00  0.00     0.142 C 
HETATM   13  C   UNK N   1      35.033  15.243   8.094  0.00  0.00     0.049 C 
HETATM   14  C   UNK N   1      34.677  15.642   9.590  0.00  0.00     0.002 C 
HETATM   15  C   UNK N   1      35.687  15.295  10.774  0.00  0.00     0.134 C 
HETATM   16  C   UNK N   1      35.831  13.832  11.342  0.00  0.00     0.021 C 
HETATM   17  C   UNK N   1      36.126  13.847  12.833  0.00  0.00     0.013 C 
HETATM   18  C   UNK N   1      33.284  15.166   9.962  0.00  0.00     0.022 C 
HETATM   19  C   UNK N   1      34.154  12.566   9.363  0.00  0.00     0.019 C 
ENDROOT
BRANCH  12  20
HETATM   20  O   UNK N   1      33.995  13.550   6.680  0.00  0.00    -0.315 OA
BRANCH  20  21
HETATM   21  C   UNK N   1      33.508  14.551   5.917  0.00  0.00     0.268 C 
HETATM   22  O   UNK N   1      34.182  15.016   5.011  0.00  0.00    -0.264 OA
BRANCH  21  23
HETATM   23  C   UNK N   1      32.197  15.180   6.259  0.00  0.00     0.185 C 
BRANCH  23  24
HETATM   24  S   UNK N   1      31.702  16.387   4.999  0.00  0.00    -0.152 SA
BRANCH  24  25
HETATM   25  C   UNK N   1      30.570  17.262   6.126  0.00  0.00     0.076 C 
HETATM   26  C   UNK N   1      30.927  16.935   7.581  0.00  0.00     0.020 C 
HETATM   27  C   UNK N   1      29.828  17.319   8.581  0.00  0.00     0.026 C 
HETATM   28  C   UNK N   1      28.814  18.288   7.984  0.00  0.00     0.076 C 
HETATM   29  C   UNK N   1      28.133  17.688   6.749  0.00  0.00     0.057 C 
HETATM   30  C   UNK N   1      29.100  16.959   5.802  0.00  0.00     0.133 C 
BRANCH  28  31
HETATM   31  N   UNK N   1      27.813  18.633   8.977  0.00  0.00    -0.426 N 
HETATM   32  H   UNK N   1      28.094  19.022   9.877  0.00  0.00     0.150 HD
HETATM   33  H   UNK N   1      26.824  18.486   8.774  0.00  0.00     0.150 HD
ENDBRANCH  28  31
BRANCH  30  34
HETATM   34  O   UNK N   1      28.860  15.585   5.872  0.00  0.00    -0.394 OA
HETATM   35  H   UNK N   1      28.717  14.986   6.622  0.00  0.00     0.210 HD
ENDBRANCH  30  34
ENDBRANCH  24  25
ENDBRANCH  23  24
ENDBRANCH  21  23
ENDBRANCH  20  21
ENDBRANCH  12  20
BRANCH  14  36
HETATM   36  C   UNK N   1      34.527  17.141   9.568  0.00  0.00    -0.025 C 
HETATM   37  C   UNK N   1      34.625  17.870   8.453  0.00  0.00     0.008 C 
ENDBRANCH  14  36
BRANCH  15  38
HETATM   38  O   UNK N   1      36.944  15.881  10.588  0.00  0.00    -0.394 OA
HETATM   39  H   UNK N   1      37.856  16.092  10.334  0.00  0.00     0.210 HD
ENDBRANCH  15  38
TORSDOF 9
ENDMDL
MODEL 8
REMARK VINA RESULT:      -6.9     14.673     19.122
REMARK  9 active torsions:
REMARK  status: ('A' for Active; 'I' for Inactive)
REMARK    1  A    between atoms: C_12  and  O_22 
REMARK    2  A    between atoms: C_14  and  C_20 
REMARK    3  A    between atoms: C_15  and  O_18 
REMARK    4  A    between atoms: O_22  and  C_23 
REMARK    5  A    between atoms: C_23  and  C_25 
REMARK    6  A    between atoms: C_25  and  S_26 
REMARK    7  A    between atoms: C_27  and  S_26 
REMARK    8  A    between atoms: C_30  and  N_34 
REMARK    9  A    between atoms: C_32  and  O_33 
ROOT
HETATM    1  C   UNK N   1      31.130  23.593  -7.313  0.00  0.00     0.011 C 
HETATM    2  C   UNK N   1      30.424  24.762  -7.978  0.00  0.00    -0.007 C 
HETATM    3  C   UNK N   1      29.914  24.320  -9.396  0.00  0.00     0.006 C 
HETATM    4  C   UNK N   1      28.487  24.841  -9.790  0.00  0.00     0.011 C 
HETATM    5  C   UNK N   1      27.397  24.649  -8.684  0.00  0.00    -0.023 C 
HETATM    6  C   UNK N   1      26.615  23.342  -8.914  0.00  0.00     0.018 C 
HETATM    7  C   UNK N   1      27.399  22.223  -8.223  0.00  0.00     0.079 C 
HETATM    8  C   UNK N   1      28.133  22.976  -7.188  0.00  0.00     0.132 C 
HETATM    9  O   UNK N   1      28.625  22.445  -6.205  0.00  0.00    -0.298 OA
HETATM   10  C   UNK N   1      28.050  24.447  -7.370  0.00  0.00     0.075 C 
HETATM   11  C   UNK N   1      29.262  25.357  -7.159  0.00  0.00    -0.003 C 
HETATM   12  C   UNK N   1      29.226  25.522  -5.640  0.00  0.00     0.142 C 
HETATM   13  C   UNK N   1      27.812  25.950  -5.078  0.00  0.00     0.049 C 
HETATM   14  C   UNK N   1      26.676  26.764  -5.834  0.00  0.00     0.002 C 
HETATM   15  C   UNK N   1      25.871  26.091  -7.035  0.00  0.00     0.134 C 
HETATM   16  C   UNK N   1      26.507  25.913  -8.466  0.00  0.00     0.021 C 
HETATM   17  C   UNK N   1      25.458  26.055  -9.556  0.00  0.00     0.013 C 
HETATM   18  C   UNK N   1      27.183  28.127  -6.271  0.00  0.00     0.022 C 
HETATM   19  C   UNK N   1      29.162  26.775  -7.733  0.00  0.00     0.019 C 
ENDROOT
BRANCH  12  20
HETATM   20  O   UNK N   1      30.223  26.306  -5.116  0.00  0.00    -0.315 OA
BRANCH  20  21
HETATM   21  C   UNK N   1      30.916  25.855  -4.049  0.00  0.00     0.268 C 
HETATM   22  O   UNK N   1      30.944  26.503  -3.015  0.00  0.00    -0.264 OA
BRANCH  21  23
HETATM   23  C   UNK N   1      31.756  24.626  -4.172  0.00  0.00     0.185 C 
BRANCH  23  24
HETATM   24  S   UNK N   1      31.033  23.244  -3.246  0.00  0.00    -0.152 SA
BRANCH  24  25
HETATM   25  C   UNK N   1      32.101  22.006  -4.047  0.00  0.00     0.076 C 
HETATM   26  C   UNK N   1      31.259  20.814  -4.515  0.00  0.00     0.020 C 
HETATM   27  C   UNK N   1      32.094  19.574  -4.865  0.00  0.00     0.026 C 
HETATM   28  C   UNK N   1      33.569  19.906  -5.059  0.00  0.00     0.076 C 
HETATM   29  C   UNK N   1      34.168  20.532  -3.796  0.00  0.00     0.057 C 
HETATM   30  C   UNK N   1      33.260  21.581  -3.133  0.00  0.00     0.133 C 
BRANCH  28  31
HETATM   31  N   UNK N   1      34.305  18.704  -5.409  0.00  0.00    -0.426 N 
HETATM   32  H   UNK N   1      35.198  18.771  -5.896  0.00  0.00     0.150 HD
HETATM   33  H   UNK N   1      33.926  17.788  -5.166  0.00  0.00     0.150 HD
ENDBRANCH  28  31
BRANCH  30  34
HETATM   34  O   UNK N   1      32.769  21.066  -1.932  0.00  0.00    -0.394 OA
HETATM   35  H   UNK N   1      31.898  21.119  -1.507  0.00  0.00     0.210 HD
ENDBRANCH  30  34
ENDBRANCH  24  25
ENDBRANCH  23  24
ENDBRANCH  21  23
ENDBRANCH  20  21
ENDBRANCH  12  20
BRANCH  14  36
HETATM   36  C   UNK N   1      25.668  27.106  -4.768  0.00  0.00    -0.025 C 
HETATM   37  C   UNK N   1      25.701  28.241  -4.065  0.00  0.00     0.008 C 
ENDBRANCH  14  36
BRANCH  15  38
HETATM   38  O   UNK N   1      25.206  24.925  -6.640  0.00  0.00    -0.394 OA
HETATM   39  H   UNK N   1      24.566  24.213  -6.485  0.00  0.00     0.210 HD
ENDBRANCH  15  38
TORSDOF 9
ENDMDL
MODEL 9
REMARK VINA RESULT:      -6.8     16.979     19.898
REMARK  9 active torsions:
REMARK  status: ('A' for Active; 'I' for Inactive)
REMARK    1  A    between atoms: C_12  and  O_22 
REMARK    2  A    between atoms: C_14  and  C_20 
REMARK    3  A    between atoms: C_15  and  O_18 
REMARK    4  A    between atoms: O_22  and  C_23 
REMARK    5  A    between atoms: C_23  and  C_25 
REMARK    6  A    between atoms: C_25  and  S_26 
REMARK    7  A    between atoms: C_27  and  S_26 
REMARK    8  A    between atoms: C_30  and  N_34 
REMARK    9  A    between atoms: C_32  and  O_33 
ROOT
HETATM    1  C   UNK N   1      30.986  26.416  -4.226  0.00  0.00     0.011 C 
HETATM    2  C   UNK N   1      29.536  26.302  -3.790  0.00  0.00    -0.007 C 
HETATM    3  C   UNK N   1      28.928  27.741  -3.631  0.00  0.00     0.006 C 
HETATM    4  C   UNK N   1      27.460  27.913  -4.159  0.00  0.00     0.011 C 
HETATM    5  C   UNK N   1      27.210  27.320  -5.585  0.00  0.00    -0.023 C 
HETATM    6  C   UNK N   1      27.367  28.411  -6.662  0.00  0.00     0.018 C 
HETATM    7  C   UNK N   1      28.851  28.465  -7.032  0.00  0.00     0.079 C 
HETATM    8  C   UNK N   1      29.289  27.100  -6.682  0.00  0.00     0.132 C 
HETATM    9  O   UNK N   1      30.317  26.602  -7.113  0.00  0.00    -0.298 OA
HETATM   10  C   UNK N   1      28.271  26.341  -5.912  0.00  0.00     0.075 C 
HETATM   11  C   UNK N   1      28.651  25.454  -4.725  0.00  0.00    -0.003 C 
HETATM   12  C   UNK N   1      29.079  24.181  -5.454  0.00  0.00     0.142 C 
HETATM   13  C   UNK N   1      28.025  23.669  -6.515  0.00  0.00     0.049 C 
HETATM   14  C   UNK N   1      26.453  23.901  -6.507  0.00  0.00     0.002 C 
HETATM   15  C   UNK N   1      25.856  25.354  -6.781  0.00  0.00     0.134 C 
HETATM   16  C   UNK N   1      25.893  26.487  -5.687  0.00  0.00     0.021 C 
HETATM   17  C   UNK N   1      24.668  27.383  -5.781  0.00  0.00     0.013 C 
HETATM   18  C   UNK N   1      25.825  23.328  -5.249  0.00  0.00     0.022 C 
HETATM   19  C   UNK N   1      27.512  25.034  -3.790  0.00  0.00     0.019 C 
ENDROOT
BRANCH  12  20
HETATM   20  O   UNK N   1      29.498  23.157  -4.641  0.00  0.00    -0.315 OA
BRANCH  20  21
HETATM   21  C   UNK N   1      30.822  22.940  -4.494  0.00  0.00     0.268 C 
HETATM   22  O   UNK N   1      31.296  22.760  -3.383  0.00  0.00    -0.264 OA
BRANCH  21  23
HETATM   23  C   UNK N   1      31.731  23.047  -5.675  0.00  0.00     0.185 C 
BRANCH  23  24
HETATM   24  S   UNK N   1      32.115  21.410  -6.356  0.00  0.00    -0.152 SA
BRANCH  24  25
HETATM   25  C   UNK N   1      30.721  21.451  -7.528  0.00  0.00     0.076 C 
HETATM   26  C   UNK N   1      29.614  20.502  -7.055  0.00  0.00     0.020 C 
HETATM   27  C   UNK N   1      28.573  20.188  -8.139  0.00  0.00     0.026 C 
HETATM   28  C   UNK N   1      28.628  21.177  -9.299  0.00  0.00     0.076 C 
HETATM   29  C   UNK N   1      30.009  21.178  -9.962  0.00  0.00     0.057 C 
HETATM   30  C   UNK N   1      31.177  21.150  -8.962  0.00  0.00     0.133 C 
BRANCH  28  31
HETATM   31  N   UNK N   1      27.612  20.846 -10.280  0.00  0.00    -0.426 N 
HETATM   32  H   UNK N   1      26.796  20.296 -10.012  0.00  0.00     0.150 HD
HETATM   33  H   UNK N   1      27.713  21.167 -11.244  0.00  0.00     0.150 HD
ENDBRANCH  28  31
BRANCH  30  34
HETATM   34  O   UNK N   1      31.801  19.903  -9.023  0.00  0.00    -0.394 OA
HETATM   35  H   UNK N   1      31.936  19.208  -8.359  0.00  0.00     0.210 HD
ENDBRANCH  30  34
ENDBRANCH  24  25
ENDBRANCH  23  24
ENDBRANCH  21  23
ENDBRANCH  20  21
ENDBRANCH  12  20
BRANCH  14  36
HETATM   36  C   UNK N   1      25.921  22.998  -7.590  0.00  0.00    -0.025 C 
HETATM   37  C   UNK N   1      25.181  21.915  -7.342  0.00  0.00     0.008 C 
ENDBRANCH  14  36
BRANCH  15  38
HETATM   38  O   UNK N   1      26.238  25.858  -8.029  0.00  0.00    -0.394 OA
HETATM   39  H   UNK N   1      26.274  26.262  -8.910  0.00  0.00     0.210 HD
ENDBRANCH  15  38
TORSDOF 9
ENDMDL
