MODEL 1
REMARK VINA RESULT:      -5.1      0.000      0.000
REMARK  3 active torsions:
REMARK  status: ('A' for Active; 'I' for Inactive)
REMARK    1  A    between atoms: C_2  and  C_8 
REMARK    2  A    between atoms: O_4  and  C_5 
REMARK    3  A    between atoms: C_10  and  O_11 
ROOT
HETATM    1  C   UNK N   1      35.444  12.512  19.009  0.00  0.00     0.099 A 
HETATM    2  C   UNK N   1      35.315  11.214  18.506  0.00  0.00     0.040 A 
HETATM    3  C   UNK N   1      34.973  11.010  17.163  0.00  0.00     0.018 A 
HETATM    4  C   UNK N   1      34.759  12.109  16.317  0.00  0.00     0.012 A 
HETATM    5  C   UNK N   1      34.891  13.401  16.828  0.00  0.00     0.054 A 
HETATM    6  C   UNK N   1      35.232  13.617  18.171  0.00  0.00     0.102 A 
ENDROOT
BRANCH   4   7
HETATM    7  C   UNK N   1      34.398  11.919  14.896  0.00  0.00     0.155 C 
HETATM    8  O   UNK N   1      34.598  12.807  14.084  0.00  0.00    -0.293 OA
HETATM    9  C   UNK N   1      33.782  10.636  14.435  0.00  0.00     0.096 C 
ENDBRANCH   4   7
BRANCH   6  10
HETATM   10  O   UNK N   1      35.358  14.873  18.662  0.00  0.00    -0.353 OA
HETATM   11  C   UNK N   1      36.149  15.833  18.067  0.00  0.00     0.210 C 
ENDBRANCH   6  10
BRANCH   1  12
HETATM   12  O   UNK N   1      35.772  12.696  20.301  0.00  0.00    -0.358 OA
HETATM   13  H   UNK N   1      35.180  13.139  20.876  0.00  0.00     0.217 HD
ENDBRANCH   1  12
TORSDOF 3
ENDMDL
MODEL 2
REMARK VINA RESULT:      -5.0     25.290     27.319
REMARK  3 active torsions:
REMARK  status: ('A' for Active; 'I' for Inactive)
REMARK    1  A    between atoms: C_2  and  C_8 
REMARK    2  A    between atoms: O_4  and  C_5 
REMARK    3  A    between atoms: C_10  and  O_11 
ROOT
HETATM    1  C   UNK N   1      25.489  25.442  -5.127  0.00  0.00     0.099 A 
HETATM    2  C   UNK N   1      25.153  26.657  -5.733  0.00  0.00     0.040 A 
HETATM    3  C   UNK N   1      25.538  27.868  -5.144  0.00  0.00     0.018 A 
HETATM    4  C   UNK N   1      26.264  27.867  -3.943  0.00  0.00     0.012 A 
HETATM    5  C   UNK N   1      26.595  26.649  -3.345  0.00  0.00     0.054 A 
HETATM    6  C   UNK N   1      26.214  25.431  -3.926  0.00  0.00     0.102 A 
ENDROOT
BRANCH   4   7
HETATM    7  C   UNK N   1      26.682  29.132  -3.303  0.00  0.00     0.155 C 
HETATM    8  O   UNK N   1      27.199  29.124  -2.198  0.00  0.00    -0.293 OA
HETATM    9  C   UNK N   1      26.477  30.439  -4.001  0.00  0.00     0.096 C 
ENDBRANCH   4   7
BRANCH   6  10
HETATM   10  O   UNK N   1      26.538  24.253  -3.341  0.00  0.00    -0.353 OA
HETATM   11  C   UNK N   1      27.841  23.845  -3.152  0.00  0.00     0.210 C 
ENDBRANCH   6  10
BRANCH   1  12
HETATM   12  O   UNK N   1      25.113  24.285  -5.701  0.00  0.00    -0.358 OA
HETATM   13  H   UNK N   1      25.103  24.207  -6.635  0.00  0.00     0.217 HD
ENDBRANCH   1  12
TORSDOF 3
ENDMDL
MODEL 3
REMARK VINA RESULT:      -5.0      8.074     10.073
REMARK  3 active torsions:
REMARK  status: ('A' for Active; 'I' for Inactive)
REMARK    1  A    between atoms: C_2  and  C_8 
REMARK    2  A    between atoms: O_4  and  C_5 
REMARK    3  A    between atoms: C_10  and  O_11 
ROOT
HETATM    1  C   UNK N   1      34.595  18.132   8.288  0.00  0.00     0.099 A 
HETATM    2  C   UNK N   1      33.932  17.992   7.065  0.00  0.00     0.040 A 
HETATM    3  C   UNK N   1      33.194  16.833   6.792  0.00  0.00     0.018 A 
HETATM    4  C   UNK N   1      33.118  15.808   7.747  0.00  0.00     0.012 A 
HETATM    5  C   UNK N   1      33.782  15.956   8.965  0.00  0.00     0.054 A 
HETATM    6  C   UNK N   1      34.524  17.112   9.249  0.00  0.00     0.102 A 
ENDROOT
BRANCH   4   7
HETATM    7  C   UNK N   1      32.345  14.575   7.482  0.00  0.00     0.155 C 
HETATM    8  O   UNK N   1      32.301  13.683   8.313  0.00  0.00    -0.293 OA
HETATM    9  C   UNK N   1      31.607  14.405   6.192  0.00  0.00     0.096 C 
ENDBRANCH   4   7
BRANCH   6  10
HETATM   10  O   UNK N   1      35.166  17.251  10.433  0.00  0.00    -0.353 OA
HETATM   11  C   UNK N   1      35.602  16.176  11.178  0.00  0.00     0.210 C 
ENDBRANCH   6  10
BRANCH   1  12
HETATM   12  O   UNK N   1      35.301  19.250   8.539  0.00  0.00    -0.358 OA
HETATM   13  H   UNK N   1      34.951  20.087   8.305  0.00  0.00     0.217 HD
ENDBRANCH   1  12
TORSDOF 3
ENDMDL
MODEL 4
REMARK VINA RESULT:      -4.8      1.059      2.788
REMARK  3 active torsions:
REMARK  status: ('A' for Active; 'I' for Inactive)
REMARK    1  A    between atoms: C_2  and  C_8 
REMARK    2  A    between atoms: O_4  and  C_5 
REMARK    3  A    between atoms: C_10  and  O_11 
ROOT
HETATM    1  C   UNK N   1      35.408  12.530  19.033  0.00  0.00     0.099 A 
HETATM    2  C   UNK N   1      35.153  13.641  18.222  0.00  0.00     0.040 A 
HETATM    3  C   UNK N   1      34.825  13.468  16.872  0.00  0.00     0.018 A 
HETATM    4  C   UNK N   1      34.751  12.178  16.326  0.00  0.00     0.012 A 
HETATM    5  C   UNK N   1      35.006  11.074  17.142  0.00  0.00     0.054 A 
HETATM    6  C   UNK N   1      35.336  11.236  18.496  0.00  0.00     0.102 A 
ENDROOT
BRANCH   4   7
HETATM    7  C   UNK N   1      34.406  11.969  14.904  0.00  0.00     0.155 C 
HETATM    8  O   UNK N   1      34.641  12.835  14.077  0.00  0.00    -0.293 OA
HETATM    9  C   UNK N   1      33.764  10.693  14.458  0.00  0.00     0.096 C 
ENDBRANCH   4   7
BRANCH   6  10
HETATM   10  O   UNK N   1      35.583  10.162  19.283  0.00  0.00    -0.353 OA
HETATM   11  C   UNK N   1      34.582   9.380  19.818  0.00  0.00     0.210 C 
ENDBRANCH   6  10
BRANCH   1  12
HETATM   12  O   UNK N   1      35.722  12.709  20.329  0.00  0.00    -0.358 OA
HETATM   13  H   UNK N   1      35.355  12.146  20.982  0.00  0.00     0.217 HD
ENDBRANCH   1  12
TORSDOF 3
ENDMDL
MODEL 5
REMARK VINA RESULT:      -4.8     13.593     15.578
REMARK  3 active torsions:
REMARK  status: ('A' for Active; 'I' for Inactive)
REMARK    1  A    between atoms: C_2  and  C_8 
REMARK    2  A    between atoms: O_4  and  C_5 
REMARK    3  A    between atoms: C_10  and  O_11 
ROOT
HETATM    1  C   UNK N   1      22.271  12.178  10.846  0.00  0.00     0.099 A 
HETATM    2  C   UNK N   1      20.896  12.265  11.083  0.00  0.00     0.040 A 
HETATM    3  C   UNK N   1      20.141  13.283  10.487  0.00  0.00     0.018 A 
HETATM    4  C   UNK N   1      20.763  14.221   9.649  0.00  0.00     0.012 A 
HETATM    5  C   UNK N   1      22.137  14.126   9.418  0.00  0.00     0.054 A 
HETATM    6  C   UNK N   1      22.902  13.111  10.009  0.00  0.00     0.102 A 
ENDROOT
BRANCH   4   7
HETATM    7  C   UNK N   1      19.988  15.305   9.008  0.00  0.00     0.155 C 
HETATM    8  O   UNK N   1      18.806  15.456   9.268  0.00  0.00    -0.293 OA
HETATM    9  C   UNK N   1      20.644  16.232   8.034  0.00  0.00     0.096 C 
ENDBRANCH   4   7
BRANCH   6  10
HETATM   10  O   UNK N   1      24.234  13.024   9.782  0.00  0.00    -0.353 OA
HETATM   11  C   UNK N   1      24.789  13.161   8.527  0.00  0.00     0.210 C 
ENDBRANCH   6  10
BRANCH   1  12
HETATM   12  O   UNK N   1      22.986  11.195  11.424  0.00  0.00    -0.358 OA
HETATM   13  H   UNK N   1      22.948  10.324  11.081  0.00  0.00     0.217 HD
ENDBRANCH   1  12
TORSDOF 3
ENDMDL
MODEL 6
REMARK VINA RESULT:      -4.8     25.706     27.611
REMARK  3 active torsions:
REMARK  status: ('A' for Active; 'I' for Inactive)
REMARK    1  A    between atoms: C_2  and  C_8 
REMARK    2  A    between atoms: O_4  and  C_5 
REMARK    3  A    between atoms: C_10  and  O_11 
ROOT
HETATM    1  C   UNK N   1      25.936  26.916  -3.773  0.00  0.00     0.099 A 
HETATM    2  C   UNK N   1      25.493  27.673  -4.862  0.00  0.00     0.040 A 
HETATM    3  C   UNK N   1      25.369  27.084  -6.127  0.00  0.00     0.018 A 
HETATM    4  C   UNK N   1      25.690  25.730  -6.306  0.00  0.00     0.012 A 
HETATM    5  C   UNK N   1      26.132  24.981  -5.213  0.00  0.00     0.054 A 
HETATM    6  C   UNK N   1      26.259  25.560  -3.943  0.00  0.00     0.102 A 
ENDROOT
BRANCH   4   7
HETATM    7  C   UNK N   1      25.568  25.085  -7.631  0.00  0.00     0.155 C 
HETATM    8  O   UNK N   1      25.188  23.930  -7.723  0.00  0.00    -0.293 OA
HETATM    9  C   UNK N   1      25.910  25.841  -8.876  0.00  0.00     0.096 C 
ENDBRANCH   4   7
BRANCH   6  10
HETATM   10  O   UNK N   1      26.688  24.829  -2.886  0.00  0.00    -0.353 OA
HETATM   11  C   UNK N   1      27.736  23.938  -2.970  0.00  0.00     0.210 C 
ENDBRANCH   6  10
BRANCH   1  12
HETATM   12  O   UNK N   1      26.050  27.492  -2.563  0.00  0.00    -0.358 OA
HETATM   13  H   UNK N   1      25.597  28.292  -2.380  0.00  0.00     0.217 HD
ENDBRANCH   1  12
TORSDOF 3
ENDMDL
MODEL 7
REMARK VINA RESULT:      -4.8     18.240     19.304
REMARK  3 active torsions:
REMARK  status: ('A' for Active; 'I' for Inactive)
REMARK    1  A    between atoms: C_2  and  C_8 
REMARK    2  A    between atoms: O_4  and  C_5 
REMARK    3  A    between atoms: C_10  and  O_11 
ROOT
HETATM    1  C   UNK N   1      44.635  22.132   3.659  0.00  0.00     0.099 A 
HETATM    2  C   UNK N   1      43.965  20.905   3.639  0.00  0.00     0.040 A 
HETATM    3  C   UNK N   1      42.715  20.795   3.016  0.00  0.00     0.018 A 
HETATM    4  C   UNK N   1      42.130  21.917   2.410  0.00  0.00     0.012 A 
HETATM    5  C   UNK N   1      42.806  23.138   2.435  0.00  0.00     0.054 A 
HETATM    6  C   UNK N   1      44.058  23.260   3.055  0.00  0.00     0.102 A 
ENDROOT
BRANCH   4   7
HETATM    7  C   UNK N   1      40.812  21.826   1.746  0.00  0.00     0.155 C 
HETATM    8  O   UNK N   1      40.525  22.585   0.835  0.00  0.00    -0.293 OA
HETATM    9  C   UNK N   1      39.812  20.803   2.184  0.00  0.00     0.096 C 
ENDBRANCH   4   7
BRANCH   6  10
HETATM   10  O   UNK N   1      44.709  24.447   3.077  0.00  0.00    -0.353 OA
HETATM   11  C   UNK N   1      45.529  24.868   2.052  0.00  0.00     0.210 C 
ENDBRANCH   6  10
BRANCH   1  12
HETATM   12  O   UNK N   1      45.835  22.226   4.260  0.00  0.00    -0.358 OA
HETATM   13  H   UNK N   1      46.298  23.041   4.256  0.00  0.00     0.217 HD
ENDBRANCH   1  12
TORSDOF 3
ENDMDL
MODEL 8
REMARK VINA RESULT:      -4.7      9.692     11.881
REMARK  3 active torsions:
REMARK  status: ('A' for Active; 'I' for Inactive)
REMARK    1  A    between atoms: C_2  and  C_8 
REMARK    2  A    between atoms: O_4  and  C_5 
REMARK    3  A    between atoms: C_10  and  O_11 
ROOT
HETATM    1  C   UNK N   1      30.827  17.179   6.326  0.00  0.00     0.099 A 
HETATM    2  C   UNK N   1      32.055  17.205   5.657  0.00  0.00     0.040 A 
HETATM    3  C   UNK N   1      33.235  17.483   6.359  0.00  0.00     0.018 A 
HETATM    4  C   UNK N   1      33.188  17.737   7.738  0.00  0.00     0.012 A 
HETATM    5  C   UNK N   1      31.958  17.710   8.398  0.00  0.00     0.054 A 
HETATM    6  C   UNK N   1      30.771  17.432   7.705  0.00  0.00     0.102 A 
ENDROOT
BRANCH   4   7
HETATM    7  C   UNK N   1      34.420  18.034   8.501  0.00  0.00     0.155 C 
HETATM    8  O   UNK N   1      35.028  19.074   8.313  0.00  0.00    -0.293 OA
HETATM    9  C   UNK N   1      34.937  17.061   9.513  0.00  0.00     0.096 C 
ENDBRANCH   4   7
BRANCH   6  10
HETATM   10  O   UNK N   1      29.581  17.407   8.350  0.00  0.00    -0.353 OA
HETATM   11  C   UNK N   1      29.184  18.395   9.226  0.00  0.00     0.210 C 
ENDBRANCH   6  10
BRANCH   1  12
HETATM   12  O   UNK N   1      29.700  16.911   5.641  0.00  0.00    -0.358 OA
HETATM   13  H   UNK N   1      29.578  17.265   4.783  0.00  0.00     0.217 HD
ENDBRANCH   1  12
TORSDOF 3
ENDMDL
MODEL 9
REMARK VINA RESULT:      -4.7     19.431     21.834
REMARK  3 active torsions:
REMARK  status: ('A' for Active; 'I' for Inactive)
REMARK    1  A    between atoms: C_2  and  C_8 
REMARK    2  A    between atoms: O_4  and  C_5 
REMARK    3  A    between atoms: C_10  and  O_11 
ROOT
HETATM    1  C   UNK N   1      20.700  19.841   1.157  0.00  0.00     0.099 A 
HETATM    2  C   UNK N   1      20.911  20.591   2.318  0.00  0.00     0.040 A 
HETATM    3  C   UNK N   1      20.999  19.955   3.562  0.00  0.00     0.018 A 
HETATM    4  C   UNK N   1      20.875  18.560   3.649  0.00  0.00     0.012 A 
HETATM    5  C   UNK N   1      20.664  17.818   2.485  0.00  0.00     0.054 A 
HETATM    6  C   UNK N   1      20.574  18.445   1.234  0.00  0.00     0.102 A 
ENDROOT
BRANCH   4   7
HETATM    7  C   UNK N   1      20.964  17.865   4.951  0.00  0.00     0.155 C 
HETATM    8  O   UNK N   1      21.610  18.348   5.866  0.00  0.00    -0.293 OA
HETATM    9  C   UNK N   1      20.264  16.560   5.163  0.00  0.00     0.096 C 
ENDBRANCH   4   7
BRANCH   6  10
HETATM   10  O   UNK N   1      20.370  17.721   0.108  0.00  0.00    -0.353 OA
HETATM   11  C   UNK N   1      19.554  16.611   0.071  0.00  0.00     0.210 C 
ENDBRANCH   6  10
BRANCH   1  12
HETATM   12  O   UNK N   1      20.617  20.463  -0.033  0.00  0.00    -0.358 OA
HETATM   13  H   UNK N   1      20.613  19.962  -0.825  0.00  0.00     0.217 HD
ENDBRANCH   1  12
TORSDOF 3
ENDMDL
