MODEL 1
REMARK VINA RESULT:      -7.7      0.000      0.000
REMARK  4 active torsions:
REMARK  status: ('A' for Active; 'I' for Inactive)
REMARK    1  A    between atoms: C_4  and  C_7 
REMARK    2  A    between atoms: C_10  and  N_18 
REMARK    3  A    between atoms: C_19  and  N_18 
REMARK    4  A    between atoms: C_22  and  O_25 
ROOT
HETATM    1  C   UNK N   1      26.397  24.351  -5.978  0.00  0.00     0.118 A 
HETATM    2  N   UNK N   1      27.669  23.832  -5.989  0.00  0.00    -0.327 N 
ATOM      3  HN  UNK N   1      28.402  24.304  -5.458  1.00  0.00     0.169 HD
HETATM    4  C   UNK N   1      27.980  22.704  -6.690  0.00  0.00     0.117 A 
HETATM    5  C   UNK N   1      26.946  22.078  -7.403  0.00  0.00     0.053 A 
HETATM    6  C   UNK N   1      25.697  22.609  -7.371  0.00  0.00     0.120 A 
HETATM    7  N   UNK N   1      25.400  23.730  -6.680  0.00  0.00    -0.327 N 
ATOM      8  HN  UNK N   1      24.452  24.104  -6.680  1.00  0.00     0.169 HD
HETATM    9  N   UNK N   1      24.833  21.881  -8.093  0.00  0.00    -0.351 N 
HETATM   10  C   UNK N   1      25.556  20.855  -8.602  0.00  0.00     0.091 A 
HETATM   11  C   UNK N   1      26.887  20.951  -8.191  0.00  0.00     0.036 A 
HETATM   12  H   UNK N   1      23.873  22.057  -8.226  0.00  0.00     0.166 HD
ENDROOT
BRANCH   4  13
HETATM   13  N   UNK N   1      29.323  22.229  -6.677  0.00  0.00    -0.371 N 
HETATM   14  H   UNK N   1      29.755  22.035  -7.540  0.00  0.00     0.161 HD
BRANCH  13  15
HETATM   15  C   UNK N   1      30.087  22.015  -5.473  0.00  0.00     0.083 C 
HETATM   16  C   UNK N   1      30.728  20.627  -5.474  0.00  0.00     0.028 C 
HETATM   17  C   UNK N   1      31.608  20.398  -4.230  0.00  0.00     0.034 C 
HETATM   18  C   UNK N   1      31.501  21.552  -3.229  0.00  0.00     0.118 C 
HETATM   19  C   UNK N   1      31.868  22.881  -3.904  0.00  0.00     0.034 C 
HETATM   20  C   UNK N   1      31.171  23.073  -5.264  0.00  0.00     0.028 C 
BRANCH  18  21
HETATM   21  O   UNK N   1      32.322  21.321  -2.128  0.00  0.00    -0.396 OA
HETATM   22  H   UNK N   1      33.192  21.745  -2.060  0.00  0.00     0.210 HD
ENDBRANCH  18  21
ENDBRANCH  13  15
ENDBRANCH   4  13
BRANCH   1  23
HETATM   23  C   UNK N   1      26.097  25.554  -5.182  0.00  0.00     0.008 A 
HETATM   24  C   UNK N   1      25.350  26.603  -5.738  0.00  0.00     0.015 A 
HETATM   25  C   UNK N   1      25.100  27.761  -4.996  0.00  0.00     0.001 A 
HETATM   26  C   UNK N   1      25.595  27.878  -3.695  0.00  0.00     0.000 A 
HETATM   27  C   UNK N   1      26.335  26.835  -3.131  0.00  0.00     0.001 A 
HETATM   28  C   UNK N   1      26.586  25.676  -3.872  0.00  0.00     0.015 A 
ENDBRANCH   1  23
TORSDOF 4
ENDMDL
MODEL 2
REMARK VINA RESULT:      -7.6     16.798     17.631
REMARK  4 active torsions:
REMARK  status: ('A' for Active; 'I' for Inactive)
REMARK    1  A    between atoms: C_4  and  C_7 
REMARK    2  A    between atoms: C_10  and  N_18 
REMARK    3  A    between atoms: C_19  and  N_18 
REMARK    4  A    between atoms: C_22  and  O_25 
ROOT
HETATM    1  C   UNK N   1      20.096  17.285   8.310  0.00  0.00     0.118 A 
HETATM    2  N   UNK N   1      20.425  15.957   8.432  0.00  0.00    -0.327 N 
ATOM      3  HN  UNK N   1      20.008  15.410   9.185  1.00  0.00     0.169 HD
HETATM    4  C   UNK N   1      21.295  15.349   7.574  0.00  0.00     0.117 A 
HETATM    5  C   UNK N   1      21.844  16.132   6.546  0.00  0.00     0.053 A 
HETATM    6  C   UNK N   1      21.499  17.439   6.445  0.00  0.00     0.120 A 
HETATM    7  N   UNK N   1      20.642  18.034   7.303  0.00  0.00    -0.327 N 
ATOM      8  HN  UNK N   1      20.407  19.021   7.201  1.00  0.00     0.169 HD
HETATM    9  N   UNK N   1      22.103  18.031   5.404  0.00  0.00    -0.351 N 
HETATM   10  C   UNK N   1      22.859  17.068   4.825  0.00  0.00     0.091 A 
HETATM   11  C   UNK N   1      22.722  15.864   5.519  0.00  0.00     0.036 A 
HETATM   12  H   UNK N   1      22.016  18.971   5.122  0.00  0.00     0.166 HD
ENDROOT
BRANCH   4  13
HETATM   13  N   UNK N   1      21.610  13.974   7.767  0.00  0.00    -0.371 N 
HETATM   14  H   UNK N   1      21.195  13.315   7.166  0.00  0.00     0.161 HD
BRANCH  13  15
HETATM   15  C   UNK N   1      22.502  13.491   8.792  0.00  0.00     0.083 C 
HETATM   16  C   UNK N   1      21.717  12.981  10.001  0.00  0.00     0.028 C 
HETATM   17  C   UNK N   1      22.643  12.395  11.084  0.00  0.00     0.034 C 
HETATM   18  C   UNK N   1      24.123  12.606  10.751  0.00  0.00     0.118 C 
HETATM   19  C   UNK N   1      24.455  11.999   9.380  0.00  0.00     0.034 C 
HETATM   20  C   UNK N   1      23.435  12.387   8.293  0.00  0.00     0.028 C 
BRANCH  18  21
HETATM   21  O   UNK N   1      24.931  12.047  11.739  0.00  0.00    -0.396 OA
HETATM   22  H   UNK N   1      24.784  12.251  12.676  0.00  0.00     0.210 HD
ENDBRANCH  18  21
ENDBRANCH  13  15
ENDBRANCH   4  13
BRANCH   1  23
HETATM   23  C   UNK N   1      19.129  17.895   9.238  0.00  0.00     0.008 A 
HETATM   24  C   UNK N   1      19.495  19.002  10.018  0.00  0.00     0.015 A 
HETATM   25  C   UNK N   1      18.590  19.554  10.928  0.00  0.00     0.001 A 
HETATM   26  C   UNK N   1      17.314  19.004  11.065  0.00  0.00     0.000 A 
HETATM   27  C   UNK N   1      16.938  17.905  10.289  0.00  0.00     0.001 A 
HETATM   28  C   UNK N   1      17.843  17.351   9.378  0.00  0.00     0.015 A 
ENDBRANCH   1  23
TORSDOF 4
ENDMDL
MODEL 3
REMARK VINA RESULT:      -7.3     11.173     14.427
REMARK  4 active torsions:
REMARK  status: ('A' for Active; 'I' for Inactive)
REMARK    1  A    between atoms: C_4  and  C_7 
REMARK    2  A    between atoms: C_10  and  N_18 
REMARK    3  A    between atoms: C_19  and  N_18 
REMARK    4  A    between atoms: C_22  and  O_25 
ROOT
HETATM    1  C   UNK N   1      30.604  16.941   5.855  0.00  0.00     0.118 A 
HETATM    2  N   UNK N   1      29.264  17.061   5.578  0.00  0.00    -0.327 N 
ATOM      3  HN  UNK N   1      28.925  16.809   4.649  1.00  0.00     0.169 HD
HETATM    4  C   UNK N   1      28.373  17.510   6.509  0.00  0.00     0.117 A 
HETATM    5  C   UNK N   1      28.874  17.840   7.778  0.00  0.00     0.053 A 
HETATM    6  C   UNK N   1      30.201  17.707   8.027  0.00  0.00     0.120 A 
HETATM    7  N   UNK N   1      31.076  17.269   7.097  0.00  0.00    -0.327 N 
ATOM      8  HN  UNK N   1      32.068  17.185   7.316  1.00  0.00     0.169 HD
HETATM    9  N   UNK N   1      30.504  18.054   9.287  0.00  0.00    -0.351 N 
HETATM   10  C   UNK N   1      29.332  18.420   9.857  0.00  0.00     0.091 A 
HETATM   11  C   UNK N   1      28.289  18.302   8.936  0.00  0.00     0.036 A 
HETATM   12  H   UNK N   1      31.395  18.044   9.708  0.00  0.00     0.166 HD
ENDROOT
BRANCH   4  13
HETATM   13  N   UNK N   1      27.001  17.631   6.152  0.00  0.00    -0.371 N 
HETATM   14  H   UNK N   1      26.338  17.130   6.679  0.00  0.00     0.161 HD
BRANCH  13  15
HETATM   15  C   UNK N   1      26.524  18.444   5.061  0.00  0.00     0.083 C 
HETATM   16  C   UNK N   1      24.996  18.431   4.998  0.00  0.00     0.028 C 
HETATM   17  C   UNK N   1      24.457  19.348   3.883  0.00  0.00     0.034 C 
HETATM   18  C   UNK N   1      25.582  19.925   3.018  0.00  0.00     0.118 C 
HETATM   19  C   UNK N   1      26.592  20.684   3.891  0.00  0.00     0.034 C 
HETATM   20  C   UNK N   1      27.014  19.891   5.143  0.00  0.00     0.028 C 
BRANCH  18  21
HETATM   21  O   UNK N   1      25.062  20.764   2.035  0.00  0.00    -0.396 OA
HETATM   22  H   UNK N   1      24.180  21.154   2.131  0.00  0.00     0.210 HD
ENDBRANCH  18  21
ENDBRANCH  13  15
ENDBRANCH   4  13
BRANCH   1  23
HETATM   23  C   UNK N   1      31.527  16.423   4.831  0.00  0.00     0.008 A 
HETATM   24  C   UNK N   1      31.926  15.079   4.850  0.00  0.00     0.015 A 
HETATM   25  C   UNK N   1      32.833  14.598   3.902  0.00  0.00     0.001 A 
HETATM   26  C   UNK N   1      33.349  15.458   2.929  0.00  0.00     0.000 A 
HETATM   27  C   UNK N   1      32.953  16.798   2.899  0.00  0.00     0.001 A 
HETATM   28  C   UNK N   1      32.045  17.280   3.847  0.00  0.00     0.015 A 
ENDBRANCH   1  23
TORSDOF 4
ENDMDL
MODEL 4
REMARK VINA RESULT:      -7.2     19.853     23.364
REMARK  4 active torsions:
REMARK  status: ('A' for Active; 'I' for Inactive)
REMARK    1  A    between atoms: C_4  and  C_7 
REMARK    2  A    between atoms: C_10  and  N_18 
REMARK    3  A    between atoms: C_19  and  N_18 
REMARK    4  A    between atoms: C_22  and  O_25 
ROOT
HETATM    1  C   UNK N   1      36.217  12.606  14.902  0.00  0.00     0.118 A 
HETATM    2  N   UNK N   1      36.115  13.802  14.234  0.00  0.00    -0.327 N 
ATOM      3  HN  UNK N   1      35.748  14.616  14.727  1.00  0.00     0.169 HD
HETATM    4  C   UNK N   1      36.490  13.932  12.928  0.00  0.00     0.117 A 
HETATM    5  C   UNK N   1      36.997  12.793  12.284  0.00  0.00     0.053 A 
HETATM    6  C   UNK N   1      37.092  11.625  12.967  0.00  0.00     0.120 A 
HETATM    7  N   UNK N   1      36.712  11.505  14.257  0.00  0.00    -0.327 N 
ATOM      8  HN  UNK N   1      36.793  10.611  14.742  1.00  0.00     0.169 HD
HETATM    9  N   UNK N   1      37.606  10.648  12.207  0.00  0.00    -0.351 N 
HETATM   10  C   UNK N   1      37.844  11.212  10.999  0.00  0.00     0.091 A 
HETATM   11  C   UNK N   1      37.470  12.557  11.012  0.00  0.00     0.036 A 
HETATM   12  H   UNK N   1      37.774   9.714  12.472  0.00  0.00     0.166 HD
ENDROOT
BRANCH   4  13
HETATM   13  N   UNK N   1      36.340  15.194  12.287  0.00  0.00    -0.371 N 
HETATM   14  H   UNK N   1      36.762  15.979  12.704  0.00  0.00     0.161 HD
BRANCH  13  15
HETATM   15  C   UNK N   1      35.604  15.391  11.063  0.00  0.00     0.083 C 
HETATM   16  C   UNK N   1      34.246  14.692  11.124  0.00  0.00     0.028 C 
HETATM   17  C   UNK N   1      33.410  14.944   9.854  0.00  0.00     0.034 C 
HETATM   18  C   UNK N   1      34.203  15.702   8.785  0.00  0.00     0.118 C 
HETATM   19  C   UNK N   1      34.729  17.030   9.349  0.00  0.00     0.034 C 
HETATM   20  C   UNK N   1      35.398  16.869  10.727  0.00  0.00     0.028 C 
BRANCH  18  21
HETATM   21  O   UNK N   1      33.413  15.930   7.661  0.00  0.00    -0.396 OA
HETATM   22  H   UNK N   1      32.504  15.593   7.615  0.00  0.00     0.210 HD
ENDBRANCH  18  21
ENDBRANCH  13  15
ENDBRANCH   4  13
BRANCH   1  23
HETATM   23  C   UNK N   1      35.831  12.517  16.320  0.00  0.00     0.008 A 
HETATM   24  C   UNK N   1      35.499  13.674  17.039  0.00  0.00     0.015 A 
HETATM   25  C   UNK N   1      35.171  13.594  18.395  0.00  0.00     0.001 A 
HETATM   26  C   UNK N   1      35.174  12.355  19.042  0.00  0.00     0.000 A 
HETATM   27  C   UNK N   1      35.498  11.196  18.333  0.00  0.00     0.001 A 
HETATM   28  C   UNK N   1      35.826  11.276  16.976  0.00  0.00     0.015 A 
ENDBRANCH   1  23
TORSDOF 4
ENDMDL
MODEL 5
REMARK VINA RESULT:      -7.2     18.218     21.875
REMARK  4 active torsions:
REMARK  status: ('A' for Active; 'I' for Inactive)
REMARK    1  A    between atoms: C_4  and  C_7 
REMARK    2  A    between atoms: C_10  and  N_18 
REMARK    3  A    between atoms: C_19  and  N_18 
REMARK    4  A    between atoms: C_22  and  O_25 
ROOT
HETATM    1  C   UNK N   1      35.885  12.891  13.313  0.00  0.00     0.118 A 
HETATM    2  N   UNK N   1      34.860  13.383  12.541  0.00  0.00    -0.327 N 
ATOM      3  HN  UNK N   1      33.920  13.429  12.936  1.00  0.00     0.169 HD
HETATM    4  C   UNK N   1      35.064  13.812  11.262  0.00  0.00     0.117 A 
HETATM    5  C   UNK N   1      36.371  13.741  10.756  0.00  0.00     0.053 A 
HETATM    6  C   UNK N   1      37.366  13.255  11.540  0.00  0.00     0.120 A 
HETATM    7  N   UNK N   1      37.153  12.826  12.803  0.00  0.00    -0.327 N 
ATOM      8  HN  UNK N   1      37.922  12.462  13.365  1.00  0.00     0.169 HD
HETATM    9  N   UNK N   1      38.547  13.269  10.906  0.00  0.00    -0.351 N 
HETATM   10  C   UNK N   1      38.295  13.779   9.677  0.00  0.00     0.091 A 
HETATM   11  C   UNK N   1      36.939  14.082   9.548  0.00  0.00     0.036 A 
HETATM   12  H   UNK N   1      39.416  12.969  11.260  0.00  0.00     0.166 HD
ENDROOT
BRANCH   4  13
HETATM   13  N   UNK N   1      33.956  14.293  10.508  0.00  0.00    -0.371 N 
HETATM   14  H   UNK N   1      33.058  13.970  10.748  0.00  0.00     0.161 HD
BRANCH  13  15
HETATM   15  C   UNK N   1      34.073  15.223   9.413  0.00  0.00     0.083 C 
HETATM   16  C   UNK N   1      32.824  15.187   8.530  0.00  0.00     0.028 C 
HETATM   17  C   UNK N   1      32.894  16.222   7.391  0.00  0.00     0.034 C 
HETATM   18  C   UNK N   1      34.254  16.923   7.332  0.00  0.00     0.118 C 
HETATM   19  C   UNK N   1      34.571  17.590   8.679  0.00  0.00     0.034 C 
HETATM   20  C   UNK N   1      34.320  16.659   9.880  0.00  0.00     0.028 C 
BRANCH  18  21
HETATM   21  O   UNK N   1      34.274  17.865   6.306  0.00  0.00    -0.396 OA
HETATM   22  H   UNK N   1      34.811  18.669   6.381  0.00  0.00     0.210 HD
ENDBRANCH  18  21
ENDBRANCH  13  15
ENDBRANCH   4  13
BRANCH   1  23
HETATM   23  C   UNK N   1      35.627  12.467  14.700  0.00  0.00     0.008 A 
HETATM   24  C   UNK N   1      35.374  13.421  15.696  0.00  0.00     0.015 A 
HETATM   25  C   UNK N   1      35.170  13.021  17.020  0.00  0.00     0.001 A 
HETATM   26  C   UNK N   1      35.219  11.666  17.356  0.00  0.00     0.000 A 
HETATM   27  C   UNK N   1      35.466  10.709  16.369  0.00  0.00     0.001 A 
HETATM   28  C   UNK N   1      35.670  11.108  15.044  0.00  0.00     0.015 A 
ENDBRANCH   1  23
TORSDOF 4
ENDMDL
MODEL 6
REMARK VINA RESULT:      -7.1     18.044     21.218
REMARK  4 active torsions:
REMARK  status: ('A' for Active; 'I' for Inactive)
REMARK    1  A    between atoms: C_4  and  C_7 
REMARK    2  A    between atoms: C_10  and  N_18 
REMARK    3  A    between atoms: C_19  and  N_18 
REMARK    4  A    between atoms: C_22  and  O_25 
ROOT
HETATM    1  C   UNK N   1      34.644  14.919   9.882  0.00  0.00     0.118 A 
HETATM    2  N   UNK N   1      34.199  13.859  10.634  0.00  0.00    -0.327 N 
ATOM      3  HN  UNK N   1      33.198  13.758  10.805  1.00  0.00     0.169 HD
HETATM    4  C   UNK N   1      35.058  12.937  11.159  0.00  0.00     0.117 A 
HETATM    5  C   UNK N   1      36.426  13.104  10.897  0.00  0.00     0.053 A 
HETATM    6  C   UNK N   1      36.839  14.157  10.148  0.00  0.00     0.120 A 
HETATM    7  N   UNK N   1      35.983  15.068   9.638  0.00  0.00    -0.327 N 
ATOM      8  HN  UNK N   1      36.327  15.851   9.082  1.00  0.00     0.169 HD
HETATM    9  N   UNK N   1      38.171  14.157   9.987  0.00  0.00    -0.351 N 
HETATM   10  C   UNK N   1      38.619  13.069  10.657  0.00  0.00     0.091 A 
HETATM   11  C   UNK N   1      37.550  12.388  11.243  0.00  0.00     0.036 A 
HETATM   12  H   UNK N   1      38.709  14.813   9.487  0.00  0.00     0.166 HD
ENDROOT
BRANCH   4  13
HETATM   13  N   UNK N   1      34.533  11.873  11.946  0.00  0.00    -0.371 N 
HETATM   14  H   UNK N   1      33.915  11.239  11.517  0.00  0.00     0.161 HD
BRANCH  13  15
HETATM   15  C   UNK N   1      34.855  11.669  13.337  0.00  0.00     0.083 C 
HETATM   16  C   UNK N   1      34.928  13.003  14.081  0.00  0.00     0.028 C 
HETATM   17  C   UNK N   1      35.202  12.809  15.585  0.00  0.00     0.034 C 
HETATM   18  C   UNK N   1      35.484  11.345  15.935  0.00  0.00     0.118 C 
HETATM   19  C   UNK N   1      34.316  10.454  15.487  0.00  0.00     0.034 C 
HETATM   20  C   UNK N   1      33.859  10.749  14.046  0.00  0.00     0.028 C 
BRANCH  18  21
HETATM   21  O   UNK N   1      35.706  11.204  17.303  0.00  0.00    -0.396 OA
HETATM   22  H   UNK N   1      35.235  11.760  17.943  0.00  0.00     0.210 HD
ENDBRANCH  18  21
ENDBRANCH  13  15
ENDBRANCH   4  13
BRANCH   1  23
HETATM   23  C   UNK N   1      33.681  15.874   9.308  0.00  0.00     0.008 A 
HETATM   24  C   UNK N   1      32.335  15.514   9.150  0.00  0.00     0.015 A 
HETATM   25  C   UNK N   1      31.430  16.406   8.568  0.00  0.00     0.001 A 
HETATM   26  C   UNK N   1      31.865  17.662   8.138  0.00  0.00     0.000 A 
HETATM   27  C   UNK N   1      33.204  18.031   8.296  0.00  0.00     0.001 A 
HETATM   28  C   UNK N   1      34.110  17.139   8.878  0.00  0.00     0.015 A 
ENDBRANCH   1  23
TORSDOF 4
ENDMDL
MODEL 7
REMARK VINA RESULT:      -7.0     15.287     16.178
REMARK  4 active torsions:
REMARK  status: ('A' for Active; 'I' for Inactive)
REMARK    1  A    between atoms: C_4  and  C_7 
REMARK    2  A    between atoms: C_10  and  N_18 
REMARK    3  A    between atoms: C_19  and  N_18 
REMARK    4  A    between atoms: C_22  and  O_25 
ROOT
HETATM    1  C   UNK N   1      22.227  17.508   5.844  0.00  0.00     0.118 A 
HETATM    2  N   UNK N   1      22.726  16.248   6.072  0.00  0.00    -0.327 N 
ATOM      3  HN  UNK N   1      23.541  15.935   5.545  1.00  0.00     0.169 HD
HETATM    4  C   UNK N   1      22.160  15.404   6.983  0.00  0.00     0.117 A 
HETATM    5  C   UNK N   1      21.045  15.871   7.694  0.00  0.00     0.053 A 
HETATM    6  C   UNK N   1      20.575  17.121   7.453  0.00  0.00     0.120 A 
HETATM    7  N   UNK N   1      21.136  17.947   6.545  0.00  0.00    -0.327 N 
ATOM      8  HN  UNK N   1      20.756  18.879   6.385  1.00  0.00     0.169 HD
HETATM    9  N   UNK N   1      19.517  17.408   8.225  0.00  0.00    -0.351 N 
HETATM   10  C   UNK N   1      19.305  16.304   8.981  0.00  0.00     0.091 A 
HETATM   11  C   UNK N   1      20.245  15.319   8.670  0.00  0.00     0.036 A 
HETATM   12  H   UNK N   1      19.000  18.247   8.239  0.00  0.00     0.166 HD
ENDROOT
BRANCH   4  13
HETATM   13  N   UNK N   1      22.713  14.103   7.157  0.00  0.00    -0.371 N 
HETATM   14  H   UNK N   1      22.789  13.522   6.366  0.00  0.00     0.161 HD
BRANCH  13  15
HETATM   15  C   UNK N   1      23.169  13.587   8.424  0.00  0.00     0.083 C 
HETATM   16  C   UNK N   1      22.516  12.239   8.731  0.00  0.00     0.028 C 
HETATM   17  C   UNK N   1      23.038  11.633  10.047  0.00  0.00     0.034 C 
HETATM   18  C   UNK N   1      23.964  12.595  10.797  0.00  0.00     0.118 C 
HETATM   19  C   UNK N   1      25.139  13.015   9.901  0.00  0.00     0.034 C 
HETATM   20  C   UNK N   1      24.690  13.439   8.490  0.00  0.00     0.028 C 
BRANCH  18  21
HETATM   21  O   UNK N   1      24.433  12.008  11.970  0.00  0.00    -0.396 OA
HETATM   22  H   UNK N   1      25.373  12.050  12.206  0.00  0.00     0.210 HD
ENDBRANCH  18  21
ENDBRANCH  13  15
ENDBRANCH   4  13
BRANCH   1  23
HETATM   23  C   UNK N   1      22.886  18.399   4.874  0.00  0.00     0.008 A 
HETATM   24  C   UNK N   1      24.280  18.548   4.882  0.00  0.00     0.015 A 
HETATM   25  C   UNK N   1      24.901  19.425   3.988  0.00  0.00     0.001 A 
HETATM   26  C   UNK N   1      24.132  20.159   3.082  0.00  0.00     0.000 A 
HETATM   27  C   UNK N   1      22.743  20.014   3.064  0.00  0.00     0.001 A 
HETATM   28  C   UNK N   1      22.120  19.137   3.958  0.00  0.00     0.015 A 
ENDBRANCH   1  23
TORSDOF 4
ENDMDL
MODEL 8
REMARK VINA RESULT:      -6.9     20.686     23.746
REMARK  4 active torsions:
REMARK  status: ('A' for Active; 'I' for Inactive)
REMARK    1  A    between atoms: C_4  and  C_7 
REMARK    2  A    between atoms: C_10  and  N_18 
REMARK    3  A    between atoms: C_19  and  N_18 
REMARK    4  A    between atoms: C_22  and  O_25 
ROOT
HETATM    1  C   UNK N   1      35.753  12.717  14.814  0.00  0.00     0.118 A 
HETATM    2  N   UNK N   1      35.665  11.681  13.916  0.00  0.00    -0.327 N 
ATOM      3  HN  UNK N   1      35.514  10.734  14.264  1.00  0.00     0.169 HD
HETATM    4  C   UNK N   1      35.776  11.883  12.570  0.00  0.00     0.117 A 
HETATM    5  C   UNK N   1      35.977  13.199  12.128  0.00  0.00     0.053 A 
HETATM    6  C   UNK N   1      36.055  14.205  13.034  0.00  0.00     0.120 A 
HETATM    7  N   UNK N   1      35.951  13.995  14.364  0.00  0.00    -0.327 N 
ATOM      8  HN  UNK N   1      36.018  14.773  15.020  1.00  0.00     0.169 HD
HETATM    9  N   UNK N   1      36.236  15.393  12.441  0.00  0.00    -0.351 N 
HETATM   10  C   UNK N   1      36.275  15.135  11.112  0.00  0.00     0.091 A 
HETATM   11  C   UNK N   1      36.120  13.767  10.881  0.00  0.00     0.036 A 
HETATM   12  H   UNK N   1      36.322  16.271  12.880  0.00  0.00     0.166 HD
ENDROOT
BRANCH   4  13
HETATM   13  N   UNK N   1      35.697  10.764  11.694  0.00  0.00    -0.371 N 
HETATM   14  H   UNK N   1      36.491  10.189  11.603  0.00  0.00     0.161 HD
BRANCH  13  15
HETATM   15  C   UNK N   1      34.522  10.422  10.932  0.00  0.00     0.083 C 
HETATM   16  C   UNK N   1      34.758  10.646   9.437  0.00  0.00     0.028 C 
HETATM   17  C   UNK N   1      33.540  10.223   8.593  0.00  0.00     0.034 C 
HETATM   18  C   UNK N   1      32.343   9.829   9.464  0.00  0.00     0.118 C 
HETATM   19  C   UNK N   1      32.735   8.705  10.434  0.00  0.00     0.034 C 
HETATM   20  C   UNK N   1      34.064   8.981  11.162  0.00  0.00     0.028 C 
BRANCH  18  21
HETATM   21  O   UNK N   1      31.270   9.435   8.670  0.00  0.00    -0.396 OA
HETATM   22  H   UNK N   1      30.919  10.021   7.980  0.00  0.00     0.210 HD
ENDBRANCH  18  21
ENDBRANCH  13  15
ENDBRANCH   4  13
BRANCH   1  23
HETATM   23  C   UNK N   1      35.597  12.461  16.255  0.00  0.00     0.008 A 
HETATM   24  C   UNK N   1      35.292  13.511  17.133  0.00  0.00     0.015 A 
HETATM   25  C   UNK N   1      35.184  13.274  18.507  0.00  0.00     0.001 A 
HETATM   26  C   UNK N   1      35.381  11.986  19.011  0.00  0.00     0.000 A 
HETATM   27  C   UNK N   1      35.680  10.933  18.143  0.00  0.00     0.001 A 
HETATM   28  C   UNK N   1      35.789  11.169  16.769  0.00  0.00     0.015 A 
ENDBRANCH   1  23
TORSDOF 4
ENDMDL
MODEL 9
REMARK VINA RESULT:      -6.8     12.532     13.542
REMARK  4 active torsions:
REMARK  status: ('A' for Active; 'I' for Inactive)
REMARK    1  A    between atoms: C_4  and  C_7 
REMARK    2  A    between atoms: C_10  and  N_18 
REMARK    3  A    between atoms: C_19  and  N_18 
REMARK    4  A    between atoms: C_22  and  O_25 
ROOT
HETATM    1  C   UNK N   1      21.950  17.751   5.613  0.00  0.00     0.118 A 
HETATM    2  N   UNK N   1      23.241  18.125   5.327  0.00  0.00    -0.327 N 
ATOM      3  HN  UNK N   1      24.004  17.734   5.880  1.00  0.00     0.169 HD
HETATM    4  C   UNK N   1      23.531  19.006   4.326  0.00  0.00     0.117 A 
HETATM    5  C   UNK N   1      22.456  19.518   3.583  0.00  0.00     0.053 A 
HETATM    6  C   UNK N   1      21.191  19.129   3.882  0.00  0.00     0.120 A 
HETATM    7  N   UNK N   1      20.914  18.262   4.879  0.00  0.00    -0.327 N 
ATOM      8  HN  UNK N   1      19.951  17.993   5.081  1.00  0.00     0.169 HD
HETATM    9  N   UNK N   1      20.293  19.703   3.069  0.00  0.00    -0.351 N 
HETATM   10  C   UNK N   1      21.009  20.484   2.226  0.00  0.00     0.091 A 
HETATM   11  C   UNK N   1      22.370  20.395   2.524  0.00  0.00     0.036 A 
HETATM   12  H   UNK N   1      19.315  19.582   3.084  0.00  0.00     0.166 HD
ENDROOT
BRANCH   4  13
HETATM   13  N   UNK N   1      24.888  19.368   4.095  0.00  0.00    -0.371 N 
HETATM   14  H   UNK N   1      25.127  19.733   3.213  0.00  0.00     0.161 HD
BRANCH  13  15
HETATM   15  C   UNK N   1      25.934  19.232   5.078  0.00  0.00     0.083 C 
HETATM   16  C   UNK N   1      27.116  18.443   4.511  0.00  0.00     0.028 C 
HETATM   17  C   UNK N   1      28.277  18.342   5.518  0.00  0.00     0.034 C 
HETATM   18  C   UNK N   1      27.905  18.921   6.887  0.00  0.00     0.118 C 
HETATM   19  C   UNK N   1      27.449  20.380   6.744  0.00  0.00     0.034 C 
HETATM   20  C   UNK N   1      26.432  20.579   5.604  0.00  0.00     0.028 C 
BRANCH  18  21
HETATM   21  O   UNK N   1      28.982  18.831   7.765  0.00  0.00    -0.396 OA
HETATM   22  H   UNK N   1      29.794  18.365   7.510  0.00  0.00     0.210 HD
ENDBRANCH  18  21
ENDBRANCH  13  15
ENDBRANCH   4  13
BRANCH   1  23
HETATM   23  C   UNK N   1      21.683  16.774   6.682  0.00  0.00     0.008 A 
HETATM   24  C   UNK N   1      22.406  15.574   6.741  0.00  0.00     0.015 A 
HETATM   25  C   UNK N   1      22.125  14.629   7.732  0.00  0.00     0.001 A 
HETATM   26  C   UNK N   1      21.117  14.876   8.667  0.00  0.00     0.000 A 
HETATM   27  C   UNK N   1      20.395  16.071   8.619  0.00  0.00     0.001 A 
HETATM   28  C   UNK N   1      20.676  17.018   7.628  0.00  0.00     0.015 A 
ENDBRANCH   1  23
TORSDOF 4
ENDMDL
