REMARK  4 active torsions:
REMARK  status: ('A' for Active; 'I' for Inactive)
REMARK    1  A    between atoms: N_2  and  C_4 
REMARK    2  A    between atoms: C_4  and  C_5 
REMARK    3  A    between atoms: C_5  and  N_6 
REMARK    4  A    between atoms: C_8  and  C_16 
REMARK       I    between atoms: C_16  and  N_18 
ROOT
HETATM    1  C   UNK N   1       4.463  -1.139  -0.170  0.00  0.00     0.256 C 
HETATM    2  O   UNK N   1       4.335  -2.321  -0.449  0.00  0.00    -0.267 OA
HETATM    3  N   UNK N   1       3.353  -0.359  -0.001  0.00  0.00    -0.348 N 
HETATM    4  C   UNK N   1       2.062  -0.880  -0.402  0.00  0.00     0.129 C 
HETATM    5  C   UNK N   1       1.407   0.217  -1.236  0.00  0.00     0.063 C 
HETATM    6  C   UNK N   1       1.027   1.368  -0.290  0.00  0.00     0.092 A 
HETATM    7  C   UNK N   1       2.035   1.548   0.866  0.00  0.00     0.063 C 
HETATM    8  C   UNK N   1       3.431   1.007   0.511  0.00  0.00     0.129 C 
HETATM    9  C   UNK N   1      -0.317   1.068   0.226  0.00  0.00    -0.015 A 
HETATM   10  C   UNK N   1      -0.742  -0.054   0.946  0.00  0.00     0.011 A 
HETATM   11  C   UNK N   1      -2.102  -0.165   1.266  0.00  0.00     0.001 A 
HETATM   12  C   UNK N   1      -3.000   0.842   0.863  0.00  0.00     0.001 A 
HETATM   13  C   UNK N   1      -2.531   1.956   0.145  0.00  0.00     0.010 A 
HETATM   14  C   UNK N   1      -1.170   2.025  -0.155  0.00  0.00    -0.025 A 
HETATM   15  C   UNK N   1      -0.454   3.052  -0.917  0.00  0.00     0.208 A 
HETATM   16  O   UNK N   1       0.901   2.597  -1.013  0.00  0.00    -0.371 OA
ENDROOT
BRANCH   1  17
HETATM   17  C   UNK N   1       5.835  -0.576  -0.105  0.00  0.00     0.060 A 
HETATM   18  C   UNK N   1       6.182   0.757  -0.315  0.00  0.00     0.109 A 
HETATM   19  N   UNK N   1       7.528   0.861  -0.346  0.00  0.00    -0.353 N 
HETATM   20  C   UNK N   1       8.033  -0.368  -0.156  0.00  0.00     0.047 A 
HETATM   21  C   UNK N   1       7.023  -1.279  -0.007  0.00  0.00     0.008 A 
HETATM   22  C   UNK N   1       9.374  -0.744  -0.145  0.00  0.00     0.054 A 
HETATM   23  C   UNK N   1       7.282  -2.636   0.169  0.00  0.00     0.016 A 
HETATM   24  C   UNK N   1       8.628  -3.048   0.201  0.00  0.00     0.025 A 
HETATM   25  C   UNK N   1       9.670  -2.105   0.043  0.00  0.00     0.036 A 
HETATM   26 Cl   UNK N   1      11.337  -2.631   0.070  0.00  0.00    -0.084 Cl
BRANCH  19  27
HETATM   27  C   UNK N   1       8.268   2.065  -0.685  0.00  0.00     0.158 C 
BRANCH  27  28
HETATM   28  C   UNK N   1       8.567   2.892   0.544  0.00  0.00     0.291 C 
BRANCH  28  29
HETATM   29  N   UNK N   1       8.780   4.267   0.131  0.00  0.00     0.081 N 
HETATM   30  C   UNK N   1       9.997   4.736   0.767  0.00  0.00     0.309 C 
HETATM   31  C   UNK N   1       7.681   5.045   0.673  0.00  0.00     0.309 C 
ENDBRANCH  28  29
ENDBRANCH  27  28
ENDBRANCH  19  27
ENDBRANCH   1  17
TORSDOF 4
