REMARK  4 active torsions:
REMARK  status: ('A' for Active; 'I' for Inactive)
REMARK    1  A    between atoms: C_4  and  C_26 
REMARK    2  A    between atoms: C_7  and  C_8 
REMARK    3  A    between atoms: N_11  and  C_14 
REMARK    4  A    between atoms: C_30  and  C_32 
ROOT
HETATM    1  C   UNK N   1       2.089  -2.838   1.185  0.00  0.00     0.057 C 
HETATM    2  C   UNK N   1       0.730  -2.150   1.404  0.00  0.00     0.032 C 
HETATM    3  C   UNK N   1       0.214  -1.554   0.097  0.00  0.00     0.125 C 
HETATM    4  N   UNK N   1       1.215  -0.631  -0.374  0.00  0.00    -0.366 N 
HETATM    5  C   UNK N   1       2.521  -1.164  -0.697  0.00  0.00     0.125 C 
HETATM    6  C   UNK N   1       3.101  -1.900   0.510  0.00  0.00     0.032 C 
ENDROOT
BRANCH   1   7
HETATM    7  C   UNK N   1       1.921  -4.191   0.545  0.00  0.00     0.087 A 
HETATM    8  N   UNK N   1       0.714  -4.708   0.269  0.00  0.00    -0.344 N 
HETATM    9  C   UNK N   1       0.950  -5.973  -0.120  0.00  0.00     0.059 A 
ATOM     10  HN  UNK N   1      -0.190  -4.241   0.340  1.00  0.00     0.167 HD
HETATM   11  C   UNK N   1       2.313  -6.221  -0.093  0.00  0.00     0.122 A 
HETATM   12  N   UNK N   1       2.907  -5.084   0.318  0.00  0.00    -0.348 N 
HETATM   13  C   UNK N   1       4.329  -4.909   0.559  0.00  0.00     0.157 C 
BRANCH   9  14
HETATM   14  C   UNK N   1      -0.144  -6.931  -0.302  0.00  0.00    -0.007 A 
HETATM   15  C   UNK N   1       0.082  -8.309  -0.397  0.00  0.00     0.017 A 
HETATM   16  C   UNK N   1      -1.005  -9.193  -0.383  0.00  0.00     0.044 A 
HETATM   17  C   UNK N   1      -2.314  -8.704  -0.265  0.00  0.00     0.131 A 
HETATM   18  C   UNK N   1      -2.542  -7.318  -0.195  0.00  0.00     0.087 A 
HETATM   19  F   UNK N   1      -3.353  -9.575  -0.220  0.00  0.00    -0.205 F 
HETATM   20  C   UNK N   1      -1.452  -6.451  -0.209  0.00  0.00     0.033 A 
BRANCH  18  21
HETATM   21  C   UNK N   1      -3.932  -6.754  -0.074  0.00  0.00     0.420 C 
HETATM   22  F   UNK N   1      -4.705  -7.179  -1.138  0.00  0.00    -0.166 F 
HETATM   23  F   UNK N   1      -3.905  -5.367  -0.075  0.00  0.00    -0.166 F 
HETATM   24  F   UNK N   1      -4.504  -7.182   1.110  0.00  0.00    -0.166 F 
ENDBRANCH  18  21
ENDBRANCH   9  14
ENDBRANCH   1   7
BRANCH   4  25
HETATM   25  C   UNK N   1       0.991   0.777  -0.330  0.00  0.00     0.119 A 
HETATM   26  C   UNK N   1      -0.288   1.331  -0.213  0.00  0.00     0.070 A 
HETATM   27  C   UNK N   1      -1.565   0.810  -0.159  0.00  0.00     0.126 A 
HETATM   28  C   UNK N   1      -0.439   2.673  -0.144  0.00  0.00     0.136 A 
HETATM   29  N   UNK N   1      -2.425   1.857  -0.061  0.00  0.00    -0.309 N 
HETATM   30  N   UNK N   1      -1.734   2.994  -0.051  0.00  0.00    -0.285 N 
ATOM     31  HN  UNK N   1      -3.441   1.783  -0.005  1.00  0.00     0.186 HD
HETATM   32  H   UNK N   1      -2.107   3.903   0.014  0.00  0.00     0.188 HD
HETATM   33  N   UNK N   1       0.609   3.528  -0.174  0.00  0.00    -0.337 N 
HETATM   34  C   UNK N   1       1.865   3.004  -0.293  0.00  0.00     0.183 A 
ATOM     35  HN  UNK N   1       0.465   4.536  -0.109  1.00  0.00     0.168 HD
HETATM   36  N   UNK N   1       2.049   1.646  -0.378  0.00  0.00    -0.338 N 
ATOM     37  HN  UNK N   1       2.994   1.276  -0.479  1.00  0.00     0.168 HD
ENDBRANCH   4  25
TORSDOF 4
