MODEL 1
REMARK VINA RESULT:      -5.4      0.000      0.000
REMARK  1 active torsions:
REMARK  status: ('A' for Active; 'I' for Inactive)
REMARK    1  A    between atoms: C_2  and  N_10 
ROOT
HETATM    1  C   UNK N   1      33.796  14.952  10.151  0.00  0.00     0.057 A 
HETATM    2  C   UNK N   1      34.788  15.278  11.084  0.00  0.00     0.047 A 
HETATM    3  C   UNK N   1      35.427  16.521  10.976  0.00  0.00     0.118 A 
HETATM    4  N   UNK N   1      35.091  17.383   9.977  0.00  0.00    -0.353 N 
ATOM      5  HN  UNK N   1      35.566  18.285   9.920  1.00  0.00     0.166 HD
HETATM    6  C   UNK N   1      34.140  17.075   9.057  0.00  0.00     0.125 A 
HETATM    7  C   UNK N   1      33.465  15.847   9.134  0.00  0.00     0.074 A 
HETATM    8 Cl   UNK N   1      32.233  15.398   7.966  0.00  0.00    -0.081 Cl
HETATM    9 Cl   UNK N   1      33.785  18.225   7.777  0.00  0.00    -0.063 Cl
ENDROOT
BRANCH   2  10
HETATM   10  N   UNK N   1      35.189  14.338  12.079  0.00  0.00    -0.377 N 
HETATM   11  C   UNK N   1      34.890  12.938  11.973  0.00  0.00     0.131 A 
HETATM   12  C   UNK N   1      35.741  12.257  13.038  0.00  0.00     0.045 A 
HETATM   13  C   UNK N   1      34.939  12.069  14.306  0.00  0.00     0.122 A 
HETATM   14  C   UNK N   1      36.440  13.364  13.816  0.00  0.00     0.101 A 
HETATM   15  N   UNK N   1      35.614  13.159  14.999  0.00  0.00    -0.414 N 
HETATM   16  H   UNK N   1      35.540  13.593  15.918  0.00  0.00     0.153 HD
HETATM   17  C   UNK N   1      36.081  14.686  13.146  0.00  0.00     0.148 A 
ENDBRANCH   2  10
TORSDOF 1
ENDMDL
MODEL 2
REMARK VINA RESULT:      -5.2     12.204     15.060
REMARK  1 active torsions:
REMARK  status: ('A' for Active; 'I' for Inactive)
REMARK    1  A    between atoms: C_2  and  N_10 
ROOT
HETATM    1  C   UNK N   1      25.107  19.576   3.997  0.00  0.00     0.057 A 
HETATM    2  C   UNK N   1      23.902  18.897   4.215  0.00  0.00     0.047 A 
HETATM    3  C   UNK N   1      23.929  17.700   4.943  0.00  0.00     0.118 A 
HETATM    4  N   UNK N   1      25.108  17.209   5.417  0.00  0.00    -0.353 N 
ATOM      5  HN  UNK N   1      25.104  16.338   5.948  1.00  0.00     0.166 HD
HETATM    6  C   UNK N   1      26.286  17.850   5.202  0.00  0.00     0.125 A 
HETATM    7  C   UNK N   1      26.305  19.059   4.489  0.00  0.00     0.074 A 
HETATM    8 Cl   UNK N   1      27.802  19.923   4.179  0.00  0.00    -0.081 Cl
HETATM    9 Cl   UNK N   1      27.770  17.138   5.816  0.00  0.00    -0.063 Cl
ENDROOT
BRANCH   2  10
HETATM   10  N   UNK N   1      22.683  19.377   3.648  0.00  0.00    -0.377 N 
HETATM   11  C   UNK N   1      21.400  19.038   4.196  0.00  0.00     0.131 A 
HETATM   12  C   UNK N   1      20.408  19.977   3.522  0.00  0.00     0.045 A 
HETATM   13  C   UNK N   1      19.785  19.304   2.319  0.00  0.00     0.122 A 
HETATM   14  C   UNK N   1      21.192  20.776   2.488  0.00  0.00     0.101 A 
HETATM   15  N   UNK N   1      20.582  20.071   1.369  0.00  0.00    -0.414 N 
HETATM   16  H   UNK N   1      20.674  20.100   0.354  0.00  0.00     0.153 HD
HETATM   17  C   UNK N   1      22.658  20.380   2.625  0.00  0.00     0.148 A 
ENDBRANCH   2  10
TORSDOF 1
ENDMDL
MODEL 3
REMARK VINA RESULT:      -5.2     11.662     13.692
REMARK  1 active torsions:
REMARK  status: ('A' for Active; 'I' for Inactive)
REMARK    1  A    between atoms: C_2  and  N_10 
ROOT
HETATM    1  C   UNK N   1      21.736  13.063   9.556  0.00  0.00     0.057 A 
HETATM    2  C   UNK N   1      22.928  13.388   8.898  0.00  0.00     0.047 A 
HETATM    3  C   UNK N   1      24.143  13.148   9.554  0.00  0.00     0.118 A 
HETATM    4  N   UNK N   1      24.155  12.617  10.808  0.00  0.00    -0.353 N 
ATOM      5  HN  UNK N   1      25.051  12.447  11.266  1.00  0.00     0.166 HD
HETATM    6  C   UNK N   1      23.006  12.309  11.464  0.00  0.00     0.125 A 
HETATM    7  C   UNK N   1      21.766  12.521  10.841  0.00  0.00     0.074 A 
HETATM    8 Cl   UNK N   1      20.252  12.145  11.647  0.00  0.00    -0.081 Cl
HETATM    9 Cl   UNK N   1      23.100  11.658  13.093  0.00  0.00    -0.063 Cl
ENDROOT
BRANCH   2  10
HETATM   10  N   UNK N   1      22.905  14.017   7.617  0.00  0.00    -0.377 N 
HETATM   11  C   UNK N   1      22.024  15.109   7.317  0.00  0.00     0.131 A 
HETATM   12  C   UNK N   1      22.521  15.683   5.996  0.00  0.00     0.045 A 
HETATM   13  C   UNK N   1      21.749  15.082   4.843  0.00  0.00     0.122 A 
HETATM   14  C   UNK N   1      23.652  14.780   5.522  0.00  0.00     0.101 A 
HETATM   15  N   UNK N   1      22.850  14.212   4.447  0.00  0.00    -0.414 N 
HETATM   16  H   UNK N   1      22.996  13.506   3.726  0.00  0.00     0.153 HD
HETATM   17  C   UNK N   1      23.887  13.738   6.610  0.00  0.00     0.148 A 
ENDBRANCH   2  10
TORSDOF 1
ENDMDL
MODEL 4
REMARK VINA RESULT:      -5.2      3.499      5.185
REMARK  1 active torsions:
REMARK  status: ('A' for Active; 'I' for Inactive)
REMARK    1  A    between atoms: C_2  and  N_10 
ROOT
HETATM    1  C   UNK N   1      30.539  17.477   8.703  0.00  0.00     0.057 A 
HETATM    2  C   UNK N   1      31.655  16.964   8.029  0.00  0.00     0.047 A 
HETATM    3  C   UNK N   1      31.571  16.774   6.643  0.00  0.00     0.118 A 
HETATM    4  N   UNK N   1      30.424  17.075   5.975  0.00  0.00    -0.353 N 
ATOM      5  HN  UNK N   1      30.386  16.932   4.965  1.00  0.00     0.166 HD
HETATM    6  C   UNK N   1      29.329  17.561   6.617  0.00  0.00     0.125 A 
HETATM    7  C   UNK N   1      29.372  17.780   8.003  0.00  0.00     0.074 A 
HETATM    8 Cl   UNK N   1      27.983  18.401   8.880  0.00  0.00    -0.081 Cl
HETATM    9 Cl   UNK N   1      27.874  17.895   5.691  0.00  0.00    -0.063 Cl
ENDROOT
BRANCH   2  10
HETATM   10  N   UNK N   1      32.825  16.578   8.748  0.00  0.00    -0.377 N 
HETATM   11  C   UNK N   1      33.031  15.233   9.206  0.00  0.00     0.131 A 
HETATM   12  C   UNK N   1      34.494  15.166   9.630  0.00  0.00     0.045 A 
HETATM   13  C   UNK N   1      34.619  15.418  11.115  0.00  0.00     0.122 A 
HETATM   14  C   UNK N   1      35.057  16.575   9.490  0.00  0.00     0.101 A 
HETATM   15  N   UNK N   1      35.125  16.773  10.932  0.00  0.00    -0.414 N 
HETATM   16  H   UNK N   1      35.405  17.535  11.548  0.00  0.00     0.153 HD
HETATM   17  C   UNK N   1      33.957  17.445   8.890  0.00  0.00     0.148 A 
ENDBRANCH   2  10
TORSDOF 1
ENDMDL
MODEL 5
REMARK VINA RESULT:      -5.2      5.477      7.586
REMARK  1 active torsions:
REMARK  status: ('A' for Active; 'I' for Inactive)
REMARK    1  A    between atoms: C_2  and  N_10 
ROOT
HETATM    1  C   UNK N   1      36.045  11.224  16.374  0.00  0.00     0.057 A 
HETATM    2  C   UNK N   1      35.693  12.538  16.041  0.00  0.00     0.047 A 
HETATM    3  C   UNK N   1      35.200  13.377  17.050  0.00  0.00     0.118 A 
HETATM    4  N   UNK N   1      35.061  12.913  18.323  0.00  0.00    -0.353 N 
ATOM      5  HN  UNK N   1      34.704  13.541  19.043  1.00  0.00     0.166 HD
HETATM    6  C   UNK N   1      35.386  11.637  18.658  0.00  0.00     0.125 A 
HETATM    7  C   UNK N   1      35.895  10.766  17.683  0.00  0.00     0.074 A 
HETATM    8 Cl   UNK N   1      36.324   9.106  18.063  0.00  0.00    -0.081 Cl
HETATM    9 Cl   UNK N   1      35.147  11.101  20.314  0.00  0.00    -0.063 Cl
ENDROOT
BRANCH   2  10
HETATM   10  N   UNK N   1      35.768  12.992  14.690  0.00  0.00    -0.377 N 
HETATM   11  C   UNK N   1      34.975  12.412  13.644  0.00  0.00     0.131 A 
HETATM   12  C   UNK N   1      35.108  13.360  12.458  0.00  0.00     0.045 A 
HETATM   13  C   UNK N   1      36.208  12.889  11.534  0.00  0.00     0.122 A 
HETATM   14  C   UNK N   1      36.108  14.435  12.865  0.00  0.00     0.101 A 
HETATM   15  N   UNK N   1      37.141  13.917  11.978  0.00  0.00    -0.414 N 
HETATM   16  H   UNK N   1      38.106  14.166  11.763  0.00  0.00     0.153 HD
HETATM   17  C   UNK N   1      36.484  14.178  14.320  0.00  0.00     0.148 A 
ENDBRANCH   2  10
TORSDOF 1
ENDMDL
MODEL 6
REMARK VINA RESULT:      -5.1      3.851      6.064
REMARK  1 active torsions:
REMARK  status: ('A' for Active; 'I' for Inactive)
REMARK    1  A    between atoms: C_2  and  N_10 
ROOT
HETATM    1  C   UNK N   1      34.962  12.519  13.572  0.00  0.00     0.057 A 
HETATM    2  C   UNK N   1      35.849  13.588  13.392  0.00  0.00     0.047 A 
HETATM    3  C   UNK N   1      36.513  14.104  14.513  0.00  0.00     0.118 A 
HETATM    4  N   UNK N   1      36.289  13.578  15.748  0.00  0.00    -0.353 N 
ATOM      5  HN  UNK N   1      36.786  13.967  16.550  1.00  0.00     0.166 HD
HETATM    6  C   UNK N   1      35.422  12.550  15.941  0.00  0.00     0.125 A 
HETATM    7  C   UNK N   1      34.744  11.993  14.845  0.00  0.00     0.074 A 
HETATM    8 Cl   UNK N   1      33.608  10.668  15.041  0.00  0.00    -0.081 Cl
HETATM    9 Cl   UNK N   1      35.160  11.947  17.570  0.00  0.00    -0.063 Cl
ENDROOT
BRANCH   2  10
HETATM   10  N   UNK N   1      36.018  14.184  12.107  0.00  0.00    -0.377 N 
HETATM   11  C   UNK N   1      35.420  15.443  11.763  0.00  0.00     0.131 A 
HETATM   12  C   UNK N   1      36.084  15.869  10.459  0.00  0.00     0.045 A 
HETATM   13  C   UNK N   1      35.243  15.439   9.279  0.00  0.00     0.122 A 
HETATM   14  C   UNK N   1      36.999  14.725  10.039  0.00  0.00     0.101 A 
HETATM   15  N   UNK N   1      36.132  14.336   8.935  0.00  0.00    -0.414 N 
HETATM   16  H   UNK N   1      36.142  13.604   8.226  0.00  0.00     0.153 HD
HETATM   17  C   UNK N   1      36.950  13.675  11.143  0.00  0.00     0.148 A 
ENDBRANCH   2  10
TORSDOF 1
ENDMDL
MODEL 7
REMARK VINA RESULT:      -5.1      2.954      5.935
REMARK  1 active torsions:
REMARK  status: ('A' for Active; 'I' for Inactive)
REMARK    1  A    between atoms: C_2  and  N_10 
ROOT
HETATM    1  C   UNK N   1      34.468  14.162  10.498  0.00  0.00     0.057 A 
HETATM    2  C   UNK N   1      34.696  15.534  10.337  0.00  0.00     0.047 A 
HETATM    3  C   UNK N   1      35.553  16.182  11.238  0.00  0.00     0.118 A 
HETATM    4  N   UNK N   1      36.140  15.486  12.250  0.00  0.00    -0.353 N 
ATOM      5  HN  UNK N   1      36.764  15.976  12.892  1.00  0.00     0.166 HD
HETATM    6  C   UNK N   1      35.919  14.157  12.426  0.00  0.00     0.125 A 
HETATM    7  C   UNK N   1      35.079  13.465  11.541  0.00  0.00     0.074 A 
HETATM    8 Cl   UNK N   1      34.755  11.749  11.728  0.00  0.00    -0.081 Cl
HETATM    9 Cl   UNK N   1      36.687  13.334  13.775  0.00  0.00    -0.063 Cl
ENDROOT
BRANCH   2  10
HETATM   10  N   UNK N   1      34.015  16.271   9.323  0.00  0.00    -0.377 N 
HETATM   11  C   UNK N   1      32.679  15.947   8.908  0.00  0.00     0.131 A 
HETATM   12  C   UNK N   1      32.215  17.129   8.066  0.00  0.00     0.045 A 
HETATM   13  C   UNK N   1      32.461  16.855   6.600  0.00  0.00     0.122 A 
HETATM   14  C   UNK N   1      33.403  18.073   7.941  0.00  0.00     0.101 A 
HETATM   15  N   UNK N   1      33.613  17.746   6.537  0.00  0.00    -0.414 N 
HETATM   16  H   UNK N   1      34.282  18.021   5.819  0.00  0.00     0.153 HD
HETATM   17  C   UNK N   1      34.532  17.498   8.791  0.00  0.00     0.148 A 
ENDBRANCH   2  10
TORSDOF 1
ENDMDL
MODEL 8
REMARK VINA RESULT:      -5.0      4.586      6.890
REMARK  1 active torsions:
REMARK  status: ('A' for Active; 'I' for Inactive)
REMARK    1  A    between atoms: C_2  and  N_10 
ROOT
HETATM    1  C   UNK N   1      35.286  13.265  15.782  0.00  0.00     0.057 A 
HETATM    2  C   UNK N   1      35.356  12.618  14.542  0.00  0.00     0.047 A 
HETATM    3  C   UNK N   1      35.334  11.217  14.514  0.00  0.00     0.118 A 
HETATM    4  N   UNK N   1      35.255  10.507  15.673  0.00  0.00    -0.353 N 
ATOM      5  HN  UNK N   1      35.237   9.488  15.631  1.00  0.00     0.166 HD
HETATM    6  C   UNK N   1      35.200  11.121  16.885  0.00  0.00     0.125 A 
HETATM    7  C   UNK N   1      35.206  12.522  16.959  0.00  0.00     0.074 A 
HETATM    8 Cl   UNK N   1      35.142  13.363  18.500  0.00  0.00    -0.081 Cl
HETATM    9 Cl   UNK N   1      35.133  10.137  18.338  0.00  0.00    -0.063 Cl
ENDROOT
BRANCH   2  10
HETATM   10  N   UNK N   1      35.518  13.367  13.338  0.00  0.00    -0.377 N 
HETATM   11  C   UNK N   1      34.894  12.978  12.106  0.00  0.00     0.131 A 
HETATM   12  C   UNK N   1      35.047  14.174  11.174  0.00  0.00     0.045 A 
HETATM   13  C   UNK N   1      36.274  14.007  10.307  0.00  0.00     0.122 A 
HETATM   14  C   UNK N   1      35.889  15.204  11.917  0.00  0.00     0.101 A 
HETATM   15  N   UNK N   1      37.051  14.977  11.068  0.00  0.00    -0.414 N 
HETATM   16  H   UNK N   1      38.003  15.341  11.026  0.00  0.00     0.153 HD
HETATM   17  C   UNK N   1      36.144  14.657  13.317  0.00  0.00     0.148 A 
ENDBRANCH   2  10
TORSDOF 1
ENDMDL
MODEL 9
REMARK VINA RESULT:      -4.9      6.355      8.504
REMARK  1 active torsions:
REMARK  status: ('A' for Active; 'I' for Inactive)
REMARK    1  A    between atoms: C_2  and  N_10 
ROOT
HETATM    1  C   UNK N   1      28.470  18.625   5.278  0.00  0.00     0.057 A 
HETATM    2  C   UNK N   1      28.633  17.615   6.234  0.00  0.00     0.047 A 
HETATM    3  C   UNK N   1      27.522  16.832   6.578  0.00  0.00     0.118 A 
HETATM    4  N   UNK N   1      26.312  17.061   5.997  0.00  0.00    -0.353 N 
ATOM      5  HN  UNK N   1      25.518  16.477   6.259  1.00  0.00     0.166 HD
HETATM    6  C   UNK N   1      26.136  18.046   5.077  0.00  0.00     0.125 A 
HETATM    7  C   UNK N   1      27.223  18.846   4.693  0.00  0.00     0.074 A 
HETATM    8 Cl   UNK N   1      27.046  20.135   3.513  0.00  0.00    -0.081 Cl
HETATM    9 Cl   UNK N   1      24.537  18.302   4.396  0.00  0.00    -0.063 Cl
ENDROOT
BRANCH   2  10
HETATM   10  N   UNK N   1      29.884  17.434   6.895  0.00  0.00    -0.377 N 
HETATM   11  C   UNK N   1      31.072  17.046   6.190  0.00  0.00     0.131 A 
HETATM   12  C   UNK N   1      32.219  17.268   7.169  0.00  0.00     0.045 A 
HETATM   13  C   UNK N   1      32.541  15.982   7.897  0.00  0.00     0.122 A 
HETATM   14  C   UNK N   1      31.592  17.691   8.491  0.00  0.00     0.101 A 
HETATM   15  N   UNK N   1      31.900  16.419   9.131  0.00  0.00    -0.414 N 
HETATM   16  H   UNK N   1      31.736  16.009  10.050  0.00  0.00     0.153 HD
HETATM   17  C   UNK N   1      30.089  17.815   8.262  0.00  0.00     0.148 A 
ENDBRANCH   2  10
TORSDOF 1
ENDMDL
