MODEL 1
REMARK VINA RESULT:      -7.3      0.000      0.000
REMARK  3 active torsions:
REMARK  status: ('A' for Active; 'I' for Inactive)
REMARK       I    between atoms: C_2  and  N_3 
REMARK    1  A    between atoms: C_2  and  C_17 
REMARK    2  A    between atoms: N_3  and  C_4 
REMARK    3  A    between atoms: C_5  and  C_10 
ROOT
HETATM    1  C   UNK N   1      26.916  26.102  -4.464  0.00  0.00     0.046 A 
HETATM    2  C   UNK N   1      25.917  25.933  -5.464  0.00  0.00     0.001 A 
HETATM    3  C   UNK N   1      24.930  26.923  -5.605  0.00  0.00     0.014 A 
HETATM    4  C   UNK N   1      24.916  28.045  -4.773  0.00  0.00     0.001 A 
HETATM    5  C   UNK N   1      25.893  28.200  -3.790  0.00  0.00     0.002 A 
HETATM    6  C   UNK N   1      26.892  27.237  -3.638  0.00  0.00     0.030 A 
ENDROOT
BRANCH   1   7
HETATM    7  N   UNK N   1      27.942  25.129  -4.350  0.00  0.00    -0.322 N 
HETATM    8  C   UNK N   1      28.071  24.077  -3.510  0.00  0.00     0.259 C 
HETATM    9  O   UNK N   1      27.209  23.828  -2.678  0.00  0.00    -0.267 OA
HETATM   10  H   UNK N   1      28.683  25.237  -4.989  0.00  0.00     0.169 HD
BRANCH   8  11
HETATM   11  C   UNK N   1      29.288  23.227  -3.656  0.00  0.00     0.070 A 
HETATM   12  C   UNK N   1      29.755  22.695  -4.881  0.00  0.00     0.119 A 
HETATM   13 Cl   UNK N   1      28.938  22.988  -6.408  0.00  0.00    -0.063 Cl
HETATM   14  N   UNK N   1      30.890  21.941  -4.898  0.00  0.00    -0.356 N 
HETATM   15  C   UNK N   1      31.599  21.671  -3.770  0.00  0.00     0.089 A 
ATOM     16  HN  UNK N   1      31.219  21.567  -5.789  1.00  0.00     0.166 HD
HETATM   17  C   UNK N   1      31.177  22.171  -2.544  0.00  0.00     0.018 A 
HETATM   18  C   UNK N   1      30.026  22.947  -2.493  0.00  0.00     0.022 A 
ENDBRANCH   8  11
ENDBRANCH   1   7
BRANCH   2  19
HETATM   19  C   UNK N   1      25.887  24.735  -6.374  0.00  0.00    -0.024 A 
HETATM   20  C   UNK N   1      26.215  24.843  -7.738  0.00  0.00     0.014 A 
HETATM   21  C   UNK N   1      26.176  23.742  -8.587  0.00  0.00     0.024 A 
HETATM   22  C   UNK N   1      25.802  22.499  -8.090  0.00  0.00     0.034 A 
HETATM   23 Cl   UNK N   1      25.731  21.125  -9.170  0.00  0.00    -0.084 Cl
HETATM   24  C   UNK N   1      25.480  22.358  -6.735  0.00  0.00     0.024 A 
HETATM   25  C   UNK N   1      25.529  23.467  -5.880  0.00  0.00     0.014 A 
ENDBRANCH   2  19
TORSDOF 3
ENDMDL
MODEL 2
REMARK VINA RESULT:      -7.2     13.959     15.792
REMARK  3 active torsions:
REMARK  status: ('A' for Active; 'I' for Inactive)
REMARK       I    between atoms: C_2  and  N_3 
REMARK    1  A    between atoms: C_2  and  C_17 
REMARK    2  A    between atoms: N_3  and  C_4 
REMARK    3  A    between atoms: C_5  and  C_10 
ROOT
HETATM    1  C   UNK N   1      30.820  17.351   8.497  0.00  0.00     0.046 A 
HETATM    2  C   UNK N   1      30.361  17.270   7.152  0.00  0.00     0.001 A 
HETATM    3  C   UNK N   1      29.135  17.871   6.821  0.00  0.00     0.014 A 
HETATM    4  C   UNK N   1      28.371  18.522   7.791  0.00  0.00     0.001 A 
HETATM    5  C   UNK N   1      28.821  18.589   9.109  0.00  0.00     0.002 A 
HETATM    6  C   UNK N   1      30.043  18.012   9.462  0.00  0.00     0.030 A 
ENDROOT
BRANCH   1   7
HETATM    7  N   UNK N   1      32.080  16.788   8.826  0.00  0.00    -0.322 N 
HETATM    8  C   UNK N   1      33.331  17.286   8.693  0.00  0.00     0.259 C 
HETATM    9  O   UNK N   1      33.516  18.404   8.234  0.00  0.00    -0.267 OA
HETATM   10  H   UNK N   1      32.037  15.886   9.217  0.00  0.00     0.169 HD
BRANCH   8  11
HETATM   11  C   UNK N   1      34.463  16.429   9.150  0.00  0.00     0.070 A 
HETATM   12  C   UNK N   1      35.067  15.412   8.373  0.00  0.00     0.119 A 
HETATM   13 Cl   UNK N   1      34.542  15.037   6.739  0.00  0.00    -0.063 Cl
HETATM   14  N   UNK N   1      36.107  14.699   8.889  0.00  0.00    -0.356 N 
HETATM   15  C   UNK N   1      36.593  14.924  10.138  0.00  0.00     0.089 A 
ATOM     16  HN  UNK N   1      36.537  13.971   8.317  1.00  0.00     0.166 HD
HETATM   17  C   UNK N   1      36.030  15.911  10.938  0.00  0.00     0.018 A 
HETATM   18  C   UNK N   1      34.970  16.659  10.440  0.00  0.00     0.022 A 
ENDBRANCH   8  11
ENDBRANCH   1   7
BRANCH   2  19
HETATM   19  C   UNK N   1      31.148  16.569   6.077  0.00  0.00    -0.024 A 
HETATM   20  C   UNK N   1      32.037  17.273   5.244  0.00  0.00     0.014 A 
HETATM   21  C   UNK N   1      32.756  16.634   4.239  0.00  0.00     0.024 A 
HETATM   22  C   UNK N   1      32.599  15.267   4.040  0.00  0.00     0.034 A 
HETATM   23 Cl   UNK N   1      33.487  14.475   2.759  0.00  0.00    -0.084 Cl
HETATM   24  C   UNK N   1      31.729  14.538   4.860  0.00  0.00     0.024 A 
HETATM   25  C   UNK N   1      31.013  15.184   5.878  0.00  0.00     0.014 A 
ENDBRANCH   2  19
TORSDOF 3
ENDMDL
MODEL 3
REMARK VINA RESULT:      -7.2     21.756     25.552
REMARK  3 active torsions:
REMARK  status: ('A' for Active; 'I' for Inactive)
REMARK       I    between atoms: C_2  and  N_3 
REMARK    1  A    between atoms: C_2  and  C_17 
REMARK    2  A    between atoms: N_3  and  C_4 
REMARK    3  A    between atoms: C_5  and  C_10 
ROOT
HETATM    1  C   UNK N   1      35.383  12.510  16.928  0.00  0.00     0.046 A 
HETATM    2  C   UNK N   1      35.818  11.185  17.212  0.00  0.00     0.001 A 
HETATM    3  C   UNK N   1      35.895  10.774  18.554  0.00  0.00     0.014 A 
HETATM    4  C   UNK N   1      35.568  11.650  19.591  0.00  0.00     0.001 A 
HETATM    5  C   UNK N   1      35.152  12.950  19.306  0.00  0.00     0.002 A 
HETATM    6  C   UNK N   1      35.054  13.379  17.981  0.00  0.00     0.030 A 
ENDROOT
BRANCH   1   7
HETATM    7  N   UNK N   1      35.257  12.914  15.573  0.00  0.00    -0.322 N 
HETATM    8  C   UNK N   1      36.120  13.570  14.765  0.00  0.00     0.259 C 
HETATM    9  O   UNK N   1      37.225  13.908  15.167  0.00  0.00    -0.267 OA
HETATM   10  H   UNK N   1      34.400  12.676  15.152  0.00  0.00     0.169 HD
BRANCH   8  11
HETATM   11  C   UNK N   1      35.679  13.840  13.366  0.00  0.00     0.070 A 
HETATM   12  C   UNK N   1      34.964  12.926  12.557  0.00  0.00     0.119 A 
HETATM   13 Cl   UNK N   1      34.497  11.330  13.125  0.00  0.00    -0.063 Cl
HETATM   14  N   UNK N   1      34.599  13.286  11.294  0.00  0.00    -0.356 N 
HETATM   15  C   UNK N   1      34.902  14.504  10.771  0.00  0.00     0.089 A 
ATOM     16  HN  UNK N   1      34.080  12.619  10.723  1.00  0.00     0.166 HD
HETATM   17  C   UNK N   1      35.605  15.433  11.528  0.00  0.00     0.018 A 
HETATM   18  C   UNK N   1      35.988  15.098  12.820  0.00  0.00     0.022 A 
ENDBRANCH   8  11
ENDBRANCH   1   7
BRANCH   2  19
HETATM   19  C   UNK N   1      36.191  10.212  16.126  0.00  0.00    -0.024 A 
HETATM   20  C   UNK N   1      37.403  10.331  15.421  0.00  0.00     0.014 A 
HETATM   21  C   UNK N   1      37.746   9.444  14.406  0.00  0.00     0.024 A 
HETATM   22  C   UNK N   1      36.878   8.412  14.067  0.00  0.00     0.034 A 
HETATM   23 Cl   UNK N   1      37.306   7.316  12.773  0.00  0.00    -0.084 Cl
HETATM   24  C   UNK N   1      35.670   8.263  14.758  0.00  0.00     0.024 A 
HETATM   25  C   UNK N   1      35.331   9.153  15.786  0.00  0.00     0.014 A 
ENDBRANCH   2  19
TORSDOF 3
ENDMDL
MODEL 4
REMARK VINA RESULT:      -7.1     21.326     24.890
REMARK  3 active torsions:
REMARK  status: ('A' for Active; 'I' for Inactive)
REMARK       I    between atoms: C_2  and  N_3 
REMARK    1  A    between atoms: C_2  and  C_17 
REMARK    2  A    between atoms: N_3  and  C_4 
REMARK    3  A    between atoms: C_5  and  C_10 
ROOT
HETATM    1  C   UNK N   1      36.091  12.910  15.867  0.00  0.00     0.046 A 
HETATM    2  C   UNK N   1      35.941  11.568  16.320  0.00  0.00     0.001 A 
HETATM    3  C   UNK N   1      35.450  11.346  17.617  0.00  0.00     0.014 A 
HETATM    4  C   UNK N   1      35.129  12.415  18.456  0.00  0.00     0.001 A 
HETATM    5  C   UNK N   1      35.289  13.727  18.010  0.00  0.00     0.002 A 
HETATM    6  C   UNK N   1      35.762  13.976  16.720  0.00  0.00     0.030 A 
ENDROOT
BRANCH   1   7
HETATM    7  N   UNK N   1      36.541  13.139  14.542  0.00  0.00    -0.322 N 
HETATM    8  C   UNK N   1      35.851  13.255  13.384  0.00  0.00     0.259 C 
HETATM    9  O   UNK N   1      34.630  13.176  13.369  0.00  0.00    -0.267 OA
HETATM   10  H   UNK N   1      37.516  13.229  14.449  0.00  0.00     0.169 HD
BRANCH   8  11
HETATM   11  C   UNK N   1      36.635  13.506  12.140  0.00  0.00     0.070 A 
HETATM   12  C   UNK N   1      36.508  14.658  11.327  0.00  0.00     0.119 A 
HETATM   13 Cl   UNK N   1      35.388  15.958  11.704  0.00  0.00    -0.063 Cl
HETATM   14  N   UNK N   1      37.288  14.789  10.218  0.00  0.00    -0.356 N 
HETATM   15  C   UNK N   1      38.194  13.843   9.852  0.00  0.00     0.089 A 
ATOM     16  HN  UNK N   1      37.190  15.626   9.643  1.00  0.00     0.166 HD
HETATM   17  C   UNK N   1      38.352  12.695  10.619  0.00  0.00     0.018 A 
HETATM   18  C   UNK N   1      37.574  12.533  11.758  0.00  0.00     0.022 A 
ENDBRANCH   8  11
ENDBRANCH   1   7
BRANCH   2  19
HETATM   19  C   UNK N   1      36.284  10.386  15.454  0.00  0.00    -0.024 A 
HETATM   20  C   UNK N   1      37.603   9.906  15.360  0.00  0.00     0.014 A 
HETATM   21  C   UNK N   1      37.929   8.823  14.549  0.00  0.00     0.024 A 
HETATM   22  C   UNK N   1      36.937   8.193  13.806  0.00  0.00     0.034 A 
HETATM   23 Cl   UNK N   1      37.360   6.849  12.771  0.00  0.00    -0.084 Cl
HETATM   24  C   UNK N   1      35.614   8.642  13.887  0.00  0.00     0.024 A 
HETATM   25  C   UNK N   1      35.287   9.728  14.711  0.00  0.00     0.014 A 
ENDBRANCH   2  19
TORSDOF 3
ENDMDL
MODEL 5
REMARK VINA RESULT:      -7.0      2.068      4.891
REMARK  3 active torsions:
REMARK  status: ('A' for Active; 'I' for Inactive)
REMARK       I    between atoms: C_2  and  N_3 
REMARK    1  A    between atoms: C_2  and  C_17 
REMARK    2  A    between atoms: N_3  and  C_4 
REMARK    3  A    between atoms: C_5  and  C_10 
ROOT
HETATM    1  C   UNK N   1      26.375  25.794  -5.632  0.00  0.00     0.046 A 
HETATM    2  C   UNK N   1      27.050  25.939  -4.387  0.00  0.00     0.001 A 
HETATM    3  C   UNK N   1      26.631  26.951  -3.507  0.00  0.00     0.014 A 
HETATM    4  C   UNK N   1      25.585  27.811  -3.849  0.00  0.00     0.001 A 
HETATM    5  C   UNK N   1      24.934  27.670  -5.074  0.00  0.00     0.002 A 
HETATM    6  C   UNK N   1      25.322  26.664  -5.961  0.00  0.00     0.030 A 
ENDROOT
BRANCH   1   7
HETATM    7  N   UNK N   1      26.762  24.744  -6.503  0.00  0.00    -0.322 N 
HETATM    8  C   UNK N   1      26.272  23.491  -6.648  0.00  0.00     0.259 C 
HETATM    9  O   UNK N   1      25.330  23.103  -5.970  0.00  0.00    -0.267 OA
HETATM   10  H   UNK N   1      27.511  24.963  -7.103  0.00  0.00     0.169 HD
BRANCH   8  11
HETATM   11  C   UNK N   1      26.907  22.620  -7.677  0.00  0.00     0.070 A 
HETATM   12  C   UNK N   1      28.140  21.944  -7.510  0.00  0.00     0.119 A 
HETATM   13 Cl   UNK N   1      29.081  22.054  -6.031  0.00  0.00    -0.063 Cl
HETATM   14  N   UNK N   1      28.620  21.160  -8.515  0.00  0.00    -0.356 N 
HETATM   15  C   UNK N   1      27.957  21.002  -9.692  0.00  0.00     0.089 A 
ATOM     16  HN  UNK N   1      29.507  20.675  -8.381  1.00  0.00     0.166 HD
HETATM   17  C   UNK N   1      26.744  21.647  -9.901  0.00  0.00     0.018 A 
HETATM   18  C   UNK N   1      26.225  22.450  -8.894  0.00  0.00     0.022 A 
ENDBRANCH   8  11
ENDBRANCH   1   7
BRANCH   2  19
HETATM   19  C   UNK N   1      28.189  25.043  -3.984  0.00  0.00    -0.024 A 
HETATM   20  C   UNK N   1      27.981  23.918  -3.164  0.00  0.00     0.014 A 
HETATM   21  C   UNK N   1      29.032  23.094  -2.776  0.00  0.00     0.024 A 
HETATM   22  C   UNK N   1      30.326  23.378  -3.198  0.00  0.00     0.034 A 
HETATM   23 Cl   UNK N   1      31.645  22.351  -2.685  0.00  0.00    -0.084 Cl
HETATM   24  C   UNK N   1      30.562  24.484  -4.022  0.00  0.00     0.024 A 
HETATM   25  C   UNK N   1      29.500  25.309  -4.419  0.00  0.00     0.014 A 
ENDBRANCH   2  19
TORSDOF 3
ENDMDL
MODEL 6
REMARK VINA RESULT:      -6.9      2.572      4.704
REMARK  3 active torsions:
REMARK  status: ('A' for Active; 'I' for Inactive)
REMARK       I    between atoms: C_2  and  N_3 
REMARK    1  A    between atoms: C_2  and  C_17 
REMARK    2  A    between atoms: N_3  and  C_4 
REMARK    3  A    between atoms: C_5  and  C_10 
ROOT
HETATM    1  C   UNK N   1      26.721  24.418  -7.807  0.00  0.00     0.046 A 
HETATM    2  C   UNK N   1      26.140  25.710  -7.951  0.00  0.00     0.001 A 
HETATM    3  C   UNK N   1      25.495  26.028  -9.158  0.00  0.00     0.014 A 
HETATM    4  C   UNK N   1      25.435  25.105 -10.204  0.00  0.00     0.001 A 
HETATM    5  C   UNK N   1      26.015  23.844 -10.060  0.00  0.00     0.002 A 
HETATM    6  C   UNK N   1      26.650  23.498  -8.866  0.00  0.00     0.030 A 
ENDROOT
BRANCH   1   7
HETATM    7  N   UNK N   1      27.331  24.075  -6.573  0.00  0.00    -0.322 N 
HETATM    8  C   UNK N   1      28.601  24.243  -6.140  0.00  0.00     0.259 C 
HETATM    9  O   UNK N   1      29.441  24.781  -6.849  0.00  0.00    -0.267 OA
HETATM   10  H   UNK N   1      26.730  23.643  -5.924  0.00  0.00     0.169 HD
BRANCH   8  11
HETATM   11  C   UNK N   1      28.925  23.771  -4.763  0.00  0.00     0.070 A 
HETATM   12  C   UNK N   1      28.094  23.956  -3.633  0.00  0.00     0.119 A 
HETATM   13 Cl   UNK N   1      26.544  24.778  -3.727  0.00  0.00    -0.063 Cl
HETATM   14  N   UNK N   1      28.485  23.469  -2.422  0.00  0.00    -0.356 N 
HETATM   15  C   UNK N   1      29.661  22.807  -2.252  0.00  0.00     0.089 A 
ATOM     16  HN  UNK N   1      27.875  23.605  -1.616  1.00  0.00     0.166 HD
HETATM   17  C   UNK N   1      30.510  22.604  -3.333  0.00  0.00     0.018 A 
HETATM   18  C   UNK N   1      30.138  23.084  -4.581  0.00  0.00     0.022 A 
ENDBRANCH   8  11
ENDBRANCH   1   7
BRANCH   2  19
HETATM   19  C   UNK N   1      26.190  26.738  -6.854  0.00  0.00    -0.024 A 
HETATM   20  C   UNK N   1      27.283  27.614  -6.721  0.00  0.00     0.014 A 
HETATM   21  C   UNK N   1      27.343  28.557  -5.700  0.00  0.00     0.024 A 
HETATM   22  C   UNK N   1      26.305  28.645  -4.779  0.00  0.00     0.034 A 
HETATM   23 Cl   UNK N   1      26.398  29.817  -3.484  0.00  0.00    -0.084 Cl
HETATM   24  C   UNK N   1      25.199  27.794  -4.892  0.00  0.00     0.024 A 
HETATM   25  C   UNK N   1      25.138  26.850  -5.927  0.00  0.00     0.014 A 
ENDBRANCH   2  19
TORSDOF 3
ENDMDL
MODEL 7
REMARK VINA RESULT:      -6.7     13.710     15.714
REMARK  3 active torsions:
REMARK  status: ('A' for Active; 'I' for Inactive)
REMARK       I    between atoms: C_2  and  N_3 
REMARK    1  A    between atoms: C_2  and  C_17 
REMARK    2  A    between atoms: N_3  and  C_4 
REMARK    3  A    between atoms: C_5  and  C_10 
ROOT
HETATM    1  C   UNK N   1      30.302  17.112   6.534  0.00  0.00     0.046 A 
HETATM    2  C   UNK N   1      30.727  17.463   7.847  0.00  0.00     0.001 A 
HETATM    3  C   UNK N   1      29.883  18.260   8.638  0.00  0.00     0.014 A 
HETATM    4  C   UNK N   1      28.658  18.715   8.145  0.00  0.00     0.001 A 
HETATM    5  C   UNK N   1      28.253  18.377   6.855  0.00  0.00     0.002 A 
HETATM    6  C   UNK N   1      29.067  17.574   6.053  0.00  0.00     0.030 A 
ENDROOT
BRANCH   1   7
HETATM    7  N   UNK N   1      31.129  16.267   5.749  0.00  0.00    -0.322 N 
HETATM    8  C   UNK N   1      32.066  16.565   4.820  0.00  0.00     0.259 C 
HETATM    9  O   UNK N   1      32.330  17.728   4.544  0.00  0.00    -0.267 OA
HETATM   10  H   UNK N   1      30.999  15.304   5.907  0.00  0.00     0.169 HD
BRANCH   8  11
HETATM   11  C   UNK N   1      32.775  15.426   4.171  0.00  0.00     0.070 A 
HETATM   12  C   UNK N   1      34.039  14.931   4.572  0.00  0.00     0.119 A 
HETATM   13 Cl   UNK N   1      34.936  15.616   5.918  0.00  0.00    -0.063 Cl
HETATM   14  N   UNK N   1      34.587  13.871   3.913  0.00  0.00    -0.356 N 
HETATM   15  C   UNK N   1      33.964  13.265   2.868  0.00  0.00     0.089 A 
ATOM     16  HN  UNK N   1      35.497  13.521   4.214  1.00  0.00     0.166 HD
HETATM   17  C   UNK N   1      32.722  13.718   2.438  0.00  0.00     0.018 A 
HETATM   18  C   UNK N   1      32.134  14.793   3.091  0.00  0.00     0.022 A 
ENDBRANCH   8  11
ENDBRANCH   1   7
BRANCH   2  19
HETATM   19  C   UNK N   1      32.043  17.003   8.413  0.00  0.00    -0.024 A 
HETATM   20  C   UNK N   1      32.180  15.737   9.013  0.00  0.00     0.014 A 
HETATM   21  C   UNK N   1      33.390  15.312   9.552  0.00  0.00     0.024 A 
HETATM   22  C   UNK N   1      34.499  16.150   9.506  0.00  0.00     0.034 A 
HETATM   23 Cl   UNK N   1      36.010  15.617  10.207  0.00  0.00    -0.084 Cl
HETATM   24  C   UNK N   1      34.396  17.410   8.906  0.00  0.00     0.024 A 
HETATM   25  C   UNK N   1      33.178  17.832   8.357  0.00  0.00     0.014 A 
ENDBRANCH   2  19
TORSDOF 3
ENDMDL
MODEL 8
REMARK VINA RESULT:      -6.5      2.693      6.377
REMARK  3 active torsions:
REMARK  status: ('A' for Active; 'I' for Inactive)
REMARK       I    between atoms: C_2  and  N_3 
REMARK    1  A    between atoms: C_2  and  C_17 
REMARK    2  A    between atoms: N_3  and  C_4 
REMARK    3  A    between atoms: C_5  and  C_10 
ROOT
HETATM    1  C   UNK N   1      28.980  22.903  -5.614  0.00  0.00     0.046 A 
HETATM    2  C   UNK N   1      29.018  23.600  -4.373  0.00  0.00     0.001 A 
HETATM    3  C   UNK N   1      29.746  23.042  -3.309  0.00  0.00     0.014 A 
HETATM    4  C   UNK N   1      30.407  21.821  -3.454  0.00  0.00     0.001 A 
HETATM    5  C   UNK N   1      30.357  21.138  -4.669  0.00  0.00     0.002 A 
HETATM    6  C   UNK N   1      29.652  21.677  -5.747  0.00  0.00     0.030 A 
ENDROOT
BRANCH   1   7
HETATM    7  N   UNK N   1      28.287  23.485  -6.706  0.00  0.00    -0.322 N 
HETATM    8  C   UNK N   1      26.978  23.443  -7.044  0.00  0.00     0.259 C 
HETATM    9  O   UNK N   1      26.170  22.837  -6.353  0.00  0.00    -0.267 OA
HETATM   10  H   UNK N   1      28.852  24.008  -7.319  0.00  0.00     0.169 HD
BRANCH   8  11
HETATM   11  C   UNK N   1      26.561  24.181  -8.271  0.00  0.00     0.070 A 
HETATM   12  C   UNK N   1      25.930  25.447  -8.273  0.00  0.00     0.119 A 
HETATM   13 Cl   UNK N   1      25.560  26.318  -6.792  0.00  0.00    -0.063 Cl
HETATM   14  N   UNK N   1      25.606  26.036  -9.458  0.00  0.00    -0.356 N 
HETATM   15  C   UNK N   1      25.864  25.447 -10.656  0.00  0.00     0.089 A 
ATOM     16  HN  UNK N   1      25.155  26.951  -9.446  1.00  0.00     0.166 HD
HETATM   17  C   UNK N   1      26.481  24.203 -10.702  0.00  0.00     0.018 A 
HETATM   18  C   UNK N   1      26.828  23.578  -9.512  0.00  0.00     0.022 A 
ENDBRANCH   8  11
ENDBRANCH   1   7
BRANCH   2  19
HETATM   19  C   UNK N   1      28.312  24.913  -4.169  0.00  0.00    -0.024 A 
HETATM   20  C   UNK N   1      28.904  26.130  -4.552  0.00  0.00     0.014 A 
HETATM   21  C   UNK N   1      28.263  27.349  -4.352  0.00  0.00     0.024 A 
HETATM   22  C   UNK N   1      27.006  27.379  -3.758  0.00  0.00     0.034 A 
HETATM   23 Cl   UNK N   1      26.217  28.916  -3.489  0.00  0.00    -0.084 Cl
HETATM   24  C   UNK N   1      26.387  26.183  -3.376  0.00  0.00     0.024 A 
HETATM   25  C   UNK N   1      27.032  24.956  -3.586  0.00  0.00     0.014 A 
ENDBRANCH   2  19
TORSDOF 3
ENDMDL
MODEL 9
REMARK VINA RESULT:      -6.5     11.333     13.313
REMARK  3 active torsions:
REMARK  status: ('A' for Active; 'I' for Inactive)
REMARK       I    between atoms: C_2  and  N_3 
REMARK    1  A    between atoms: C_2  and  C_17 
REMARK    2  A    between atoms: N_3  and  C_4 
REMARK    3  A    between atoms: C_5  and  C_10 
ROOT
HETATM    1  C   UNK N   1      28.770  16.120   3.537  0.00  0.00     0.046 A 
HETATM    2  C   UNK N   1      27.554  16.859   3.518  0.00  0.00     0.001 A 
HETATM    3  C   UNK N   1      26.503  16.406   2.702  0.00  0.00     0.014 A 
HETATM    4  C   UNK N   1      26.649  15.264   1.913  0.00  0.00     0.001 A 
HETATM    5  C   UNK N   1      27.848  14.550   1.929  0.00  0.00     0.002 A 
HETATM    6  C   UNK N   1      28.902  14.971   2.740  0.00  0.00     0.030 A 
ENDROOT
BRANCH   1   7
HETATM    7  N   UNK N   1      29.816  16.545   4.396  0.00  0.00    -0.322 N 
HETATM    8  C   UNK N   1      30.384  15.939   5.463  0.00  0.00     0.259 C 
HETATM    9  O   UNK N   1      30.014  14.831   5.826  0.00  0.00    -0.267 OA
HETATM   10  H   UNK N   1      30.193  17.428   4.177  0.00  0.00     0.169 HD
BRANCH   8  11
HETATM   11  C   UNK N   1      31.487  16.663   6.158  0.00  0.00     0.070 A 
HETATM   12  C   UNK N   1      31.381  17.254   7.439  0.00  0.00     0.119 A 
HETATM   13 Cl   UNK N   1      29.901  17.195   8.384  0.00  0.00    -0.063 Cl
HETATM   14  N   UNK N   1      32.462  17.879   7.984  0.00  0.00    -0.356 N 
HETATM   15  C   UNK N   1      33.654  17.964   7.336  0.00  0.00     0.089 A 
ATOM     16  HN  UNK N   1      32.373  18.298   8.911  1.00  0.00     0.166 HD
HETATM   17  C   UNK N   1      33.804  17.400   6.075  0.00  0.00     0.018 A 
HETATM   18  C   UNK N   1      32.723  16.752   5.493  0.00  0.00     0.022 A 
ENDBRANCH   8  11
ENDBRANCH   1   7
BRANCH   2  19
HETATM   19  C   UNK N   1      27.356  18.101   4.345  0.00  0.00    -0.024 A 
HETATM   20  C   UNK N   1      27.477  18.074   5.746  0.00  0.00     0.014 A 
HETATM   21  C   UNK N   1      27.282  19.215   6.517  0.00  0.00     0.024 A 
HETATM   22  C   UNK N   1      26.955  20.418   5.901  0.00  0.00     0.034 A 
HETATM   23 Cl   UNK N   1      26.687  21.842   6.879  0.00  0.00    -0.084 Cl
HETATM   24  C   UNK N   1      26.838  20.478   4.507  0.00  0.00     0.024 A 
HETATM   25  C   UNK N   1      27.044  19.328   3.732  0.00  0.00     0.014 A 
ENDBRANCH   2  19
TORSDOF 3
ENDMDL
