MODEL 1
REMARK VINA RESULT:      -6.4      0.000      0.000
REMARK  4 active torsions:
REMARK  status: ('A' for Active; 'I' for Inactive)
REMARK    1  A    between atoms: C_6  and  C_8 
REMARK    2  A    between atoms: C_9  and  C_10 
REMARK    3  A    between atoms: C_10  and  C_11 
REMARK    4  A    between atoms: C_11  and  C_12 
ROOT
HETATM    1  C   UNK N   1      28.031  18.358   8.039  0.00  0.00     0.027 A 
HETATM    2  C   UNK N   1      28.087  17.957   6.711  0.00  0.00     0.123 A 
HETATM    3  N   UNK N   1      27.585  18.975   5.996  0.00  0.00    -0.314 N 
HETATM    4  C   UNK N   1      27.431  19.107   4.657  0.00  0.00     0.140 A 
HETATM    5  C   UNK N   1      26.889  20.309   4.172  0.00  0.00     0.132 A 
HETATM    6  C   UNK N   1      26.522  21.324   5.077  0.00  0.00     0.047 A 
HETATM    7  C   UNK N   1      26.699  21.141   6.452  0.00  0.00     0.052 A 
HETATM    8  C   UNK N   1      27.243  19.936   6.868  0.00  0.00     0.111 A 
HETATM    9  N   UNK N   1      27.501  19.596   8.133  0.00  0.00    -0.344 N 
ATOM     10  HN  UNK N   1      27.334  20.146   8.976  1.00  0.00     0.167 HD
HETATM   11  F   UNK N   1      26.723  20.499   2.843  0.00  0.00    -0.205 F 
ENDROOT
BRANCH   1  12
HETATM   12  C   UNK N   1      28.506  17.591   9.208  0.00  0.00     0.071 C 
BRANCH  12  13
HETATM   13  C   UNK N   1      29.659  18.314   9.895  0.00  0.00     0.100 C 
BRANCH  13  14
HETATM   14  C   UNK N   1      30.812  18.003   9.091  0.00  0.00    -0.099 C 
HETATM   15  C   UNK N   1      31.547  17.677   8.210  0.00  0.00    -0.049 C 
BRANCH  15  16
HETATM   16  C   UNK N   1      32.082  17.232   6.979  0.00  0.00     0.086 A 
HETATM   17  N   UNK N   1      31.311  16.414   6.216  0.00  0.00    -0.359 N 
HETATM   18  C   UNK N   1      31.744  15.932   5.026  0.00  0.00     0.089 A 
ATOM     19  HN  UNK N   1      30.383  16.155   6.549  1.00  0.00     0.166 HD
HETATM   20  C   UNK N   1      33.011  16.276   4.560  0.00  0.00     0.017 A 
HETATM   21  C   UNK N   1      33.820  17.118   5.329  0.00  0.00     0.004 A 
HETATM   22  C   UNK N   1      33.355  17.605   6.552  0.00  0.00     0.039 A 
ENDBRANCH  15  16
ENDBRANCH  13  14
ENDBRANCH  12  13
ENDBRANCH   1  12
TORSDOF 4
ENDMDL
MODEL 2
REMARK VINA RESULT:      -6.4      8.149     10.868
REMARK  4 active torsions:
REMARK  status: ('A' for Active; 'I' for Inactive)
REMARK    1  A    between atoms: C_6  and  C_8 
REMARK    2  A    between atoms: C_9  and  C_10 
REMARK    3  A    between atoms: C_10  and  C_11 
REMARK    4  A    between atoms: C_11  and  C_12 
ROOT
HETATM    1  C   UNK N   1      35.172  13.385  12.722  0.00  0.00     0.027 A 
HETATM    2  C   UNK N   1      35.738  13.680  13.955  0.00  0.00     0.123 A 
HETATM    3  N   UNK N   1      35.374  12.682  14.775  0.00  0.00    -0.314 N 
HETATM    4  C   UNK N   1      35.675  12.474  16.080  0.00  0.00     0.140 A 
HETATM    5  C   UNK N   1      35.168  11.315  16.695  0.00  0.00     0.132 A 
HETATM    6  C   UNK N   1      34.372  10.422  15.951  0.00  0.00     0.047 A 
HETATM    7  C   UNK N   1      34.089  10.681  14.606  0.00  0.00     0.052 A 
HETATM    8  C   UNK N   1      34.621  11.836  14.056  0.00  0.00     0.111 A 
HETATM    9  N   UNK N   1      34.473  12.232  12.790  0.00  0.00    -0.344 N 
ATOM     10  HN  UNK N   1      33.950  11.770  12.046  1.00  0.00     0.167 HD
HETATM   11  F   UNK N   1      35.445  11.052  17.992  0.00  0.00    -0.205 F 
ENDROOT
BRANCH   1  12
HETATM   12  C   UNK N   1      35.319  14.171  11.480  0.00  0.00     0.071 C 
BRANCH  12  13
HETATM   13  C   UNK N   1      35.910  15.545  11.778  0.00  0.00     0.100 C 
BRANCH  13  14
HETATM   14  C   UNK N   1      35.376  16.399  10.750  0.00  0.00    -0.099 C 
HETATM   15  C   UNK N   1      34.760  16.852   9.834  0.00  0.00    -0.049 C 
BRANCH  15  16
HETATM   16  C   UNK N   1      33.871  17.033   8.750  0.00  0.00     0.086 A 
HETATM   17  N   UNK N   1      32.548  16.817   8.976  0.00  0.00    -0.359 N 
HETATM   18  C   UNK N   1      31.625  16.957   7.995  0.00  0.00     0.089 A 
ATOM     19  HN  UNK N   1      32.244  16.540   9.909  1.00  0.00     0.166 HD
HETATM   20  C   UNK N   1      32.028  17.333   6.714  0.00  0.00     0.017 A 
HETATM   21  C   UNK N   1      33.383  17.562   6.461  0.00  0.00     0.004 A 
HETATM   22  C   UNK N   1      34.319  17.412   7.486  0.00  0.00     0.039 A 
ENDBRANCH  15  16
ENDBRANCH  13  14
ENDBRANCH  12  13
ENDBRANCH   1  12
TORSDOF 4
ENDMDL
MODEL 3
REMARK VINA RESULT:      -6.4      8.465     10.638
REMARK  4 active torsions:
REMARK  status: ('A' for Active; 'I' for Inactive)
REMARK    1  A    between atoms: C_6  and  C_8 
REMARK    2  A    between atoms: C_9  and  C_10 
REMARK    3  A    between atoms: C_10  and  C_11 
REMARK    4  A    between atoms: C_11  and  C_12 
ROOT
HETATM    1  C   UNK N   1      35.280  14.927  11.673  0.00  0.00     0.027 A 
HETATM    2  C   UNK N   1      35.577  16.104  10.999  0.00  0.00     0.123 A 
HETATM    3  N   UNK N   1      34.610  16.257  10.081  0.00  0.00    -0.314 N 
HETATM    4  C   UNK N   1      34.415  17.247   9.178  0.00  0.00     0.140 A 
HETATM    5  C   UNK N   1      33.289  17.162   8.340  0.00  0.00     0.132 A 
HETATM    6  C   UNK N   1      32.413  16.066   8.459  0.00  0.00     0.047 A 
HETATM    7  C   UNK N   1      32.657  15.067   9.407  0.00  0.00     0.052 A 
HETATM    8  C   UNK N   1      33.780  15.210  10.207  0.00  0.00     0.111 A 
HETATM    9  N   UNK N   1      34.157  14.370  11.173  0.00  0.00    -0.344 N 
ATOM     10  HN  UNK N   1      33.701  13.505  11.465  1.00  0.00     0.167 HD
HETATM   11  F   UNK N   1      33.041  18.128   7.427  0.00  0.00    -0.205 F 
ENDROOT
BRANCH   1  12
HETATM   12  C   UNK N   1      36.036  14.350  12.803  0.00  0.00     0.071 C 
BRANCH  12  13
HETATM   13  C   UNK N   1      35.276  13.180  13.419  0.00  0.00     0.100 C 
BRANCH  13  14
HETATM   14  C   UNK N   1      35.552  13.270  14.829  0.00  0.00    -0.099 C 
HETATM   15  C   UNK N   1      35.611  13.079  16.005  0.00  0.00    -0.049 C 
BRANCH  15  16
HETATM   16  C   UNK N   1      35.464  12.544  17.305  0.00  0.00     0.086 A 
HETATM   17  N   UNK N   1      35.572  11.196  17.447  0.00  0.00    -0.359 N 
HETATM   18  C   UNK N   1      35.437  10.595  18.653  0.00  0.00     0.089 A 
ATOM     19  HN  UNK N   1      35.758  10.624  16.625  1.00  0.00     0.166 HD
HETATM   20  C   UNK N   1      35.179  11.364  19.786  0.00  0.00     0.017 A 
HETATM   21  C   UNK N   1      35.066  12.752  19.661  0.00  0.00     0.004 A 
HETATM   22  C   UNK N   1      35.209  13.354  18.410  0.00  0.00     0.039 A 
ENDBRANCH  15  16
ENDBRANCH  13  14
ENDBRANCH  12  13
ENDBRANCH   1  12
TORSDOF 4
ENDMDL
MODEL 4
REMARK VINA RESULT:      -6.3      2.457      2.884
REMARK  4 active torsions:
REMARK  status: ('A' for Active; 'I' for Inactive)
REMARK    1  A    between atoms: C_6  and  C_8 
REMARK    2  A    between atoms: C_9  and  C_10 
REMARK    3  A    between atoms: C_10  and  C_11 
REMARK    4  A    between atoms: C_11  and  C_12 
ROOT
HETATM    1  C   UNK N   1      28.591  18.220   7.290  0.00  0.00     0.027 A 
HETATM    2  C   UNK N   1      28.478  17.890   5.946  0.00  0.00     0.123 A 
HETATM    3  N   UNK N   1      27.662  18.810   5.408  0.00  0.00    -0.314 N 
HETATM    4  C   UNK N   1      27.240  18.958   4.130  0.00  0.00     0.140 A 
HETATM    5  C   UNK N   1      26.391  20.040   3.838  0.00  0.00     0.132 A 
HETATM    6  C   UNK N   1      26.006  20.922   4.868  0.00  0.00     0.047 A 
HETATM    7  C   UNK N   1      26.467  20.726   6.174  0.00  0.00     0.052 A 
HETATM    8  C   UNK N   1      27.306  19.645   6.396  0.00  0.00     0.111 A 
HETATM    9  N   UNK N   1      27.855  19.317   7.568  0.00  0.00    -0.344 N 
ATOM     10  HN  UNK N   1      27.742  19.787   8.466  1.00  0.00     0.167 HD
HETATM   11  F   UNK N   1      25.948  20.243   2.577  0.00  0.00    -0.205 F 
ENDROOT
BRANCH   1  12
HETATM   12  C   UNK N   1      29.416  17.523   8.297  0.00  0.00     0.071 C 
BRANCH  12  13
HETATM   13  C   UNK N   1      30.473  18.461   8.871  0.00  0.00     0.100 C 
BRANCH  13  14
HETATM   14  C   UNK N   1      31.727  17.818   8.574  0.00  0.00    -0.099 C 
HETATM   15  C   UNK N   1      32.766  17.236   8.640  0.00  0.00    -0.049 C 
BRANCH  15  16
HETATM   16  C   UNK N   1      33.908  16.538   9.096  0.00  0.00     0.086 A 
HETATM   17  N   UNK N   1      34.523  17.000  10.216  0.00  0.00    -0.359 N 
HETATM   18  C   UNK N   1      35.627  16.400  10.721  0.00  0.00     0.089 A 
ATOM     19  HN  UNK N   1      34.143  17.819  10.688  1.00  0.00     0.166 HD
HETATM   20  C   UNK N   1      36.158  15.279  10.085  0.00  0.00     0.017 A 
HETATM   21  C   UNK N   1      35.540  14.788   8.932  0.00  0.00     0.004 A 
HETATM   22  C   UNK N   1      34.402  15.420   8.427  0.00  0.00     0.039 A 
ENDBRANCH  15  16
ENDBRANCH  13  14
ENDBRANCH  12  13
ENDBRANCH   1  12
TORSDOF 4
ENDMDL
MODEL 5
REMARK VINA RESULT:      -6.3      7.133     10.111
REMARK  4 active torsions:
REMARK  status: ('A' for Active; 'I' for Inactive)
REMARK    1  A    between atoms: C_6  and  C_8 
REMARK    2  A    between atoms: C_9  and  C_10 
REMARK    3  A    between atoms: C_10  and  C_11 
REMARK    4  A    between atoms: C_11  and  C_12 
ROOT
HETATM    1  C   UNK N   1      35.622  15.189  11.919  0.00  0.00     0.027 A 
HETATM    2  C   UNK N   1      34.894  14.009  11.848  0.00  0.00     0.123 A 
HETATM    3  N   UNK N   1      35.230  13.303  12.939  0.00  0.00    -0.314 N 
HETATM    4  C   UNK N   1      34.794  12.092  13.361  0.00  0.00     0.140 A 
HETATM    5  C   UNK N   1      35.307  11.593  14.571  0.00  0.00     0.132 A 
HETATM    6  C   UNK N   1      36.248  12.351  15.295  0.00  0.00     0.047 A 
HETATM    7  C   UNK N   1      36.668  13.596  14.818  0.00  0.00     0.052 A 
HETATM    8  C   UNK N   1      36.122  14.036  13.622  0.00  0.00     0.111 A 
HETATM    9  N   UNK N   1      36.390  15.201  13.029  0.00  0.00    -0.344 N 
ATOM     10  HN  UNK N   1      37.029  15.932  13.343  1.00  0.00     0.167 HD
HETATM   11  F   UNK N   1      34.899  10.393  15.044  0.00  0.00    -0.205 F 
ENDROOT
BRANCH   1  12
HETATM   12  C   UNK N   1      35.566  16.312  10.962  0.00  0.00     0.071 C 
BRANCH  12  13
HETATM   13  C   UNK N   1      35.300  15.803   9.548  0.00  0.00     0.100 C 
BRANCH  13  14
HETATM   14  C   UNK N   1      34.296  16.693   9.026  0.00  0.00    -0.099 C 
HETATM   15  C   UNK N   1      33.278  17.182   8.645  0.00  0.00    -0.049 C 
BRANCH  15  16
HETATM   16  C   UNK N   1      31.928  17.411   8.290  0.00  0.00     0.086 A 
HETATM   17  N   UNK N   1      31.128  18.010   9.211  0.00  0.00    -0.359 N 
HETATM   18  C   UNK N   1      29.820  18.261   8.962  0.00  0.00     0.089 A 
ATOM     19  HN  UNK N   1      31.521  18.275  10.113  1.00  0.00     0.166 HD
HETATM   20  C   UNK N   1      29.268  17.902   7.734  0.00  0.00     0.017 A 
HETATM   21  C   UNK N   1      30.074  17.286   6.773  0.00  0.00     0.004 A 
HETATM   22  C   UNK N   1      31.420  17.036   7.048  0.00  0.00     0.039 A 
ENDBRANCH  15  16
ENDBRANCH  13  14
ENDBRANCH  12  13
ENDBRANCH   1  12
TORSDOF 4
ENDMDL
MODEL 6
REMARK VINA RESULT:      -6.2      7.323     10.122
REMARK  4 active torsions:
REMARK  status: ('A' for Active; 'I' for Inactive)
REMARK    1  A    between atoms: C_6  and  C_8 
REMARK    2  A    between atoms: C_9  and  C_10 
REMARK    3  A    between atoms: C_10  and  C_11 
REMARK    4  A    between atoms: C_11  and  C_12 
ROOT
HETATM    1  C   UNK N   1      36.058  14.524  11.982  0.00  0.00     0.027 A 
HETATM    2  C   UNK N   1      35.209  13.426  12.020  0.00  0.00     0.123 A 
HETATM    3  N   UNK N   1      35.231  12.987  13.288  0.00  0.00    -0.314 N 
HETATM    4  C   UNK N   1      34.565  11.958  13.864  0.00  0.00     0.140 A 
HETATM    5  C   UNK N   1      34.763  11.733  15.238  0.00  0.00     0.132 A 
HETATM    6  C   UNK N   1      35.636  12.568  15.962  0.00  0.00     0.047 A 
HETATM    7  C   UNK N   1      36.302  13.618  15.322  0.00  0.00     0.052 A 
HETATM    8  C   UNK N   1      36.061  13.791  13.968  0.00  0.00     0.111 A 
HETATM    9  N   UNK N   1      36.590  14.748  13.202  0.00  0.00    -0.344 N 
ATOM     10  HN  UNK N   1      37.247  15.479  13.476  1.00  0.00     0.167 HD
HETATM   11  F   UNK N   1      34.117  10.726  15.868  0.00  0.00    -0.205 F 
ENDROOT
BRANCH   1  12
HETATM   12  C   UNK N   1      36.337  15.375  10.808  0.00  0.00     0.071 C 
BRANCH  12  13
HETATM   13  C   UNK N   1      35.460  16.623  10.826  0.00  0.00     0.100 C 
BRANCH  13  14
HETATM   14  C   UNK N   1      34.455  16.373   9.826  0.00  0.00    -0.099 C 
HETATM   15  C   UNK N   1      33.770  16.400   8.850  0.00  0.00    -0.049 C 
BRANCH  15  16
HETATM   16  C   UNK N   1      33.202  16.721   7.595  0.00  0.00     0.086 A 
HETATM   17  N   UNK N   1      31.870  16.507   7.433  0.00  0.00    -0.359 N 
HETATM   18  C   UNK N   1      31.242  16.777   6.264  0.00  0.00     0.089 A 
ATOM     19  HN  UNK N   1      31.330  16.133   8.212  1.00  0.00     0.166 HD
HETATM   20  C   UNK N   1      31.969  17.287   5.190  0.00  0.00     0.017 A 
HETATM   21  C   UNK N   1      33.340  17.516   5.336  0.00  0.00     0.004 A 
HETATM   22  C   UNK N   1      33.969  17.232   6.549  0.00  0.00     0.039 A 
ENDBRANCH  15  16
ENDBRANCH  13  14
ENDBRANCH  12  13
ENDBRANCH   1  12
TORSDOF 4
ENDMDL
MODEL 7
REMARK VINA RESULT:      -6.2      5.996      7.953
REMARK  4 active torsions:
REMARK  status: ('A' for Active; 'I' for Inactive)
REMARK    1  A    between atoms: C_6  and  C_8 
REMARK    2  A    between atoms: C_9  and  C_10 
REMARK    3  A    between atoms: C_10  and  C_11 
REMARK    4  A    between atoms: C_11  and  C_12 
ROOT
HETATM    1  C   UNK N   1      24.179  14.025   7.569  0.00  0.00     0.027 A 
HETATM    2  C   UNK N   1      22.839  13.971   7.929  0.00  0.00     0.123 A 
HETATM    3  N   UNK N   1      22.796  13.299   9.090  0.00  0.00    -0.314 N 
HETATM    4  C   UNK N   1      21.738  12.986   9.876  0.00  0.00     0.140 A 
HETATM    5  C   UNK N   1      21.990  12.283  11.067  0.00  0.00     0.132 A 
HETATM    6  C   UNK N   1      23.311  11.926  11.401  0.00  0.00     0.047 A 
HETATM    7  C   UNK N   1      24.370  12.271  10.555  0.00  0.00     0.052 A 
HETATM    8  C   UNK N   1      24.059  12.968   9.399  0.00  0.00     0.111 A 
HETATM    9  N   UNK N   1      24.938  13.395   8.490  0.00  0.00    -0.344 N 
ATOM     10  HN  UNK N   1      25.951  13.272   8.492  1.00  0.00     0.167 HD
HETATM   11  F   UNK N   1      20.973  11.953  11.895  0.00  0.00    -0.205 F 
ENDROOT
BRANCH   1  12
HETATM   12  C   UNK N   1      24.740  14.697   6.380  0.00  0.00     0.071 C 
BRANCH  12  13
HETATM   13  C   UNK N   1      26.200  14.305   6.178  0.00  0.00     0.100 C 
BRANCH  13  14
HETATM   14  C   UNK N   1      26.924  15.546   6.273  0.00  0.00    -0.099 C 
HETATM   15  C   UNK N   1      27.280  16.681   6.184  0.00  0.00    -0.049 C 
BRANCH  15  16
HETATM   16  C   UNK N   1      27.369  18.059   5.877  0.00  0.00     0.086 A 
HETATM   17  N   UNK N   1      27.337  18.938   6.912  0.00  0.00    -0.359 N 
HETATM   18  C   UNK N   1      27.408  20.276   6.713  0.00  0.00     0.089 A 
ATOM     19  HN  UNK N   1      27.257  18.581   7.864  1.00  0.00     0.166 HD
HETATM   20  C   UNK N   1      27.516  20.778   5.418  0.00  0.00     0.017 A 
HETATM   21  C   UNK N   1      27.552  19.890   4.339  0.00  0.00     0.004 A 
HETATM   22  C   UNK N   1      27.478  18.515   4.565  0.00  0.00     0.039 A 
ENDBRANCH  15  16
ENDBRANCH  13  14
ENDBRANCH  12  13
ENDBRANCH   1  12
TORSDOF 4
ENDMDL
MODEL 8
REMARK VINA RESULT:      -6.2      4.890      6.230
REMARK  4 active torsions:
REMARK  status: ('A' for Active; 'I' for Inactive)
REMARK    1  A    between atoms: C_6  and  C_8 
REMARK    2  A    between atoms: C_9  and  C_10 
REMARK    3  A    between atoms: C_10  and  C_11 
REMARK    4  A    between atoms: C_11  and  C_12 
ROOT
HETATM    1  C   UNK N   1      32.432  16.632   8.333  0.00  0.00     0.027 A 
HETATM    2  C   UNK N   1      31.600  16.267   7.283  0.00  0.00     0.123 A 
HETATM    3  N   UNK N   1      30.471  16.974   7.445  0.00  0.00    -0.314 N 
HETATM    4  C   UNK N   1      29.348  17.006   6.688  0.00  0.00     0.140 A 
HETATM    5  C   UNK N   1      28.311  17.868   7.086  0.00  0.00     0.132 A 
HETATM    6  C   UNK N   1      28.465  18.656   8.244  0.00  0.00     0.047 A 
HETATM    7  C   UNK N   1      29.643  18.586   8.994  0.00  0.00     0.052 A 
HETATM    8  C   UNK N   1      30.630  17.722   8.547  0.00  0.00     0.111 A 
HETATM    9  N   UNK N   1      31.822  17.541   9.121  0.00  0.00    -0.344 N 
ATOM     10  HN  UNK N   1      32.185  17.987   9.964  1.00  0.00     0.167 HD
HETATM   11  F   UNK N   1      27.172  17.949   6.363  0.00  0.00    -0.205 F 
ENDROOT
BRANCH   1  12
HETATM   12  C   UNK N   1      33.809  16.151   8.568  0.00  0.00     0.071 C 
BRANCH  12  13
HETATM   13  C   UNK N   1      34.646  17.224   9.255  0.00  0.00     0.100 C 
BRANCH  13  14
HETATM   14  C   UNK N   1      35.368  16.519  10.281  0.00  0.00    -0.099 C 
HETATM   15  C   UNK N   1      35.690  15.788  11.167  0.00  0.00    -0.049 C 
BRANCH  15  16
HETATM   16  C   UNK N   1      35.702  14.804  12.183  0.00  0.00     0.086 A 
HETATM   17  N   UNK N   1      36.430  15.062  13.301  0.00  0.00    -0.359 N 
HETATM   18  C   UNK N   1      36.506  14.175  14.322  0.00  0.00     0.089 A 
ATOM     19  HN  UNK N   1      36.933  15.946  13.373  1.00  0.00     0.166 HD
HETATM   20  C   UNK N   1      35.826  12.961  14.236  0.00  0.00     0.017 A 
HETATM   21  C   UNK N   1      35.071  12.677  13.095  0.00  0.00     0.004 A 
HETATM   22  C   UNK N   1      35.004  13.605  12.054  0.00  0.00     0.039 A 
ENDBRANCH  15  16
ENDBRANCH  13  14
ENDBRANCH  12  13
ENDBRANCH   1  12
TORSDOF 4
ENDMDL
MODEL 9
REMARK VINA RESULT:      -6.0      7.748     10.610
REMARK  4 active torsions:
REMARK  status: ('A' for Active; 'I' for Inactive)
REMARK    1  A    between atoms: C_6  and  C_8 
REMARK    2  A    between atoms: C_9  and  C_10 
REMARK    3  A    between atoms: C_10  and  C_11 
REMARK    4  A    between atoms: C_11  and  C_12 
ROOT
HETATM    1  C   UNK N   1      35.890  13.961  12.306  0.00  0.00     0.027 A 
HETATM    2  C   UNK N   1      35.052  13.140  13.048  0.00  0.00     0.123 A 
HETATM    3  N   UNK N   1      35.388  13.335  14.333  0.00  0.00    -0.314 N 
HETATM    4  C   UNK N   1      34.867  12.795  15.461  0.00  0.00     0.140 A 
HETATM    5  C   UNK N   1      35.406  13.201  16.694  0.00  0.00     0.132 A 
HETATM    6  C   UNK N   1      36.457  14.139  16.721  0.00  0.00     0.047 A 
HETATM    7  C   UNK N   1      36.961  14.668  15.529  0.00  0.00     0.052 A 
HETATM    8  C   UNK N   1      36.385  14.232  14.346  0.00  0.00     0.111 A 
HETATM    9  N   UNK N   1      36.723  14.641  13.121  0.00  0.00    -0.344 N 
ATOM     10  HN  UNK N   1      37.446  15.313  12.862  1.00  0.00     0.167 HD
HETATM   11  F   UNK N   1      34.919  12.702  17.852  0.00  0.00    -0.205 F 
ENDROOT
BRANCH   1  12
HETATM   12  C   UNK N   1      35.879  14.127  10.838  0.00  0.00     0.071 C 
BRANCH  12  13
HETATM   13  C   UNK N   1      36.412  15.501  10.447  0.00  0.00     0.100 C 
BRANCH  13  14
HETATM   14  C   UNK N   1      35.260  16.211   9.957  0.00  0.00    -0.099 C 
HETATM   15  C   UNK N   1      34.245  16.521   9.413  0.00  0.00    -0.049 C 
BRANCH  15  16
HETATM   16  C   UNK N   1      33.058  16.521   8.644  0.00  0.00     0.086 A 
HETATM   17  N   UNK N   1      32.113  17.450   8.944  0.00  0.00    -0.359 N 
HETATM   18  C   UNK N   1      30.941  17.519   8.267  0.00  0.00     0.089 A 
ATOM     19  HN  UNK N   1      32.290  18.112   9.698  1.00  0.00     0.166 HD
HETATM   20  C   UNK N   1      30.685  16.619   7.235  0.00  0.00     0.017 A 
HETATM   21  C   UNK N   1      31.644  15.656   6.910  0.00  0.00     0.004 A 
HETATM   22  C   UNK N   1      32.846  15.601   7.619  0.00  0.00     0.039 A 
ENDBRANCH  15  16
ENDBRANCH  13  14
ENDBRANCH  12  13
ENDBRANCH   1  12
TORSDOF 4
ENDMDL
