MODEL 1
REMARK VINA RESULT:      -5.3      0.000      0.000
REMARK  23 active torsions:
REMARK  status: ('A' for Active; 'I' for Inactive)
REMARK    1  A    between atoms: O_2  and  C_3 
REMARK    2  A    between atoms: C_3  and  C_4 
REMARK    3  A    between atoms: C_4  and  O_5 
REMARK    4  A    between atoms: O_5  and  C_6 
REMARK    5  A    between atoms: C_6  and  C_7 
REMARK    6  A    between atoms: C_7  and  N_8 
REMARK    7  A    between atoms: N_8  and  C_9 
REMARK       I    between atoms: N_8  and  C_24 
REMARK    8  A    between atoms: C_9  and  C_10 
REMARK       I    between atoms: C_10  and  N_12 
REMARK    9  A    between atoms: N_12  and  C_13 
REMARK   10  A    between atoms: C_13  and  C_14 
REMARK   11  A    between atoms: C_14  and  C_15 
REMARK   12  A    between atoms: C_15  and  C_16 
REMARK   13  A    between atoms: C_16  and  C_17 
REMARK   14  A    between atoms: C_17  and  C_18 
REMARK   15  A    between atoms: C_18  and  O_19 
REMARK   16  A    between atoms: O_19  and  P_20 
REMARK   17  A    between atoms: P_20  and  O_22 
REMARK   18  A    between atoms: P_20  and  O_23 
REMARK   19  A    between atoms: C_24  and  C_26 
REMARK   20  A    between atoms: C_26  and  O_27 
REMARK   21  A    between atoms: O_27  and  C_28 
REMARK   22  A    between atoms: C_28  and  C_29 
REMARK   23  A    between atoms: C_29  and  O_30 
ROOT
HETATM    1  C   UNK N   1      21.414  16.399   6.416  0.00  0.00     0.228 C 
ENDROOT
BRANCH   1   2
HETATM    2  N   UNK N   1      19.995  16.293   6.679  0.00  0.00    -0.340 N 
HETATM    3  C   UNK N   1      19.127  16.005   5.661  0.00  0.00     0.243 C 
HETATM    4  O   UNK N   1      17.937  15.855   5.882  0.00  0.00    -0.271 OA
BRANCH   2   5
HETATM    5  C   UNK N   1      19.530  16.400   8.049  0.00  0.00     0.152 C 
BRANCH   5   6
HETATM    6  C   UNK N   1      20.340  15.508   8.984  0.00  0.00     0.187 C 
BRANCH   6   7
HETATM    7  O   UNK N   1      19.690  14.279   9.162  0.00  0.00    -0.387 OA
BRANCH   7   8
HETATM    8  C   UNK N   1      20.525  13.533  10.003  0.00  0.00     0.193 C 
BRANCH   8   9
HETATM    9  C   UNK N   1      21.985  13.837   9.712  0.00  0.00     0.193 C 
BRANCH   9  10
HETATM   10  O   UNK N   1      22.794  12.925  10.393  0.00  0.00    -0.394 OA
HETATM   11  C   UNK N   1      21.923  12.205  11.210  0.00  0.00     0.201 C 
ENDBRANCH   9  10
ENDBRANCH   8   9
ENDBRANCH   7   8
ENDBRANCH   6   7
ENDBRANCH   5   6
ENDBRANCH   2   5
BRANCH   3  12
HETATM   12  C   UNK N   1      19.622  15.850   4.253  0.00  0.00     0.270 C 
BRANCH  12  13
HETATM   13  O   UNK N   1      19.418  17.033   3.537  0.00  0.00    -0.380 OA
BRANCH  13  14
HETATM   14  C   UNK N   1      20.565  17.195   2.755  0.00  0.00     0.194 C 
BRANCH  14  15
HETATM   15  C   UNK N   1      20.620  18.616   2.220  0.00  0.00     0.193 C 
BRANCH  15  16
HETATM   16  O   UNK N   1      21.388  19.413   3.066  0.00  0.00    -0.394 OA
HETATM   17  C   UNK N   1      20.580  20.520   3.324  0.00  0.00     0.201 C 
ENDBRANCH  15  16
ENDBRANCH  14  15
ENDBRANCH  13  14
ENDBRANCH  12  13
ENDBRANCH   3  12
ENDBRANCH   1   2
BRANCH   1  18
HETATM   18  C   UNK N   1      21.788  17.836   6.164  0.00  0.00     0.235 C 
HETATM   19  O   UNK N   1      21.033  18.722   6.529  0.00  0.00    -0.272 OA
HETATM   20  N   UNK N   1      22.954  18.173   5.569  0.00  0.00    -0.360 N 
HETATM   21  H   UNK N   1      23.144  19.128   5.424  0.00  0.00     0.162 HD
BRANCH  20  22
HETATM   22  C   UNK N   1      23.934  17.208   5.135  0.00  0.00     0.122 C 
BRANCH  22  23
HETATM   23  C   UNK N   1      24.499  17.568   3.761  0.00  0.00     0.020 C 
BRANCH  23  24
HETATM   24  C   UNK N   1      25.439  18.771   3.771  0.00  0.00     0.002 C 
BRANCH  24  25
HETATM   25  C   UNK N   1      26.856  18.362   4.174  0.00  0.00     0.002 C 
BRANCH  25  26
HETATM   26  C   UNK N   1      27.605  19.449   4.953  0.00  0.00     0.027 C 
BRANCH  26  27
HETATM   27  C   UNK N   1      27.501  19.292   6.468  0.00  0.00     0.180 C 
BRANCH  27  28
HETATM   28  O   UNK N   1      28.665  18.711   6.984  0.00  0.00    -0.297 OA
BRANCH  28  29
HETATM   29  P   UNK N   1      28.113  17.544   8.152  0.00  0.00     0.390 P 
HETATM   30  O   UNK N   1      28.726  17.838   9.547  0.00  0.00    -0.632 OA
BRANCH  29  31
HETATM   31  O   UNK N   1      27.497  19.117   8.559  0.00  0.00    -0.307 OA
HETATM   32  H   UNK N   1      26.553  19.285   8.698  0.00  0.00     0.222 HD
ENDBRANCH  29  31
BRANCH  29  33
HETATM   33  O   UNK N   1      29.819  17.311   7.923  0.00  0.00    -0.307 OA
HETATM   34  H   UNK N   1      30.630  17.686   8.303  0.00  0.00     0.222 HD
ENDBRANCH  29  33
ENDBRANCH  28  29
ENDBRANCH  27  28
ENDBRANCH  26  27
ENDBRANCH  25  26
ENDBRANCH  24  25
ENDBRANCH  23  24
ENDBRANCH  22  23
ENDBRANCH  20  22
ENDBRANCH   1  18
TORSDOF 23
ENDMDL
MODEL 2
REMARK VINA RESULT:      -5.3      3.463      6.672
REMARK  23 active torsions:
REMARK  status: ('A' for Active; 'I' for Inactive)
REMARK    1  A    between atoms: O_2  and  C_3 
REMARK    2  A    between atoms: C_3  and  C_4 
REMARK    3  A    between atoms: C_4  and  O_5 
REMARK    4  A    between atoms: O_5  and  C_6 
REMARK    5  A    between atoms: C_6  and  C_7 
REMARK    6  A    between atoms: C_7  and  N_8 
REMARK    7  A    between atoms: N_8  and  C_9 
REMARK       I    between atoms: N_8  and  C_24 
REMARK    8  A    between atoms: C_9  and  C_10 
REMARK       I    between atoms: C_10  and  N_12 
REMARK    9  A    between atoms: N_12  and  C_13 
REMARK   10  A    between atoms: C_13  and  C_14 
REMARK   11  A    between atoms: C_14  and  C_15 
REMARK   12  A    between atoms: C_15  and  C_16 
REMARK   13  A    between atoms: C_16  and  C_17 
REMARK   14  A    between atoms: C_17  and  C_18 
REMARK   15  A    between atoms: C_18  and  O_19 
REMARK   16  A    between atoms: O_19  and  P_20 
REMARK   17  A    between atoms: P_20  and  O_22 
REMARK   18  A    between atoms: P_20  and  O_23 
REMARK   19  A    between atoms: C_24  and  C_26 
REMARK   20  A    between atoms: C_26  and  O_27 
REMARK   21  A    between atoms: O_27  and  C_28 
REMARK   22  A    between atoms: C_28  and  C_29 
REMARK   23  A    between atoms: C_29  and  O_30 
ROOT
HETATM    1  C   UNK N   1      21.729  16.263   6.271  0.00  0.00     0.228 C 
ENDROOT
BRANCH   1   2
HETATM    2  N   UNK N   1      20.288  16.218   6.393  0.00  0.00    -0.340 N 
HETATM    3  C   UNK N   1      19.704  16.130   7.627  0.00  0.00     0.243 C 
HETATM    4  O   UNK N   1      18.490  16.152   7.745  0.00  0.00    -0.271 OA
BRANCH   2   5
HETATM    5  C   UNK N   1      19.482  16.366   5.195  0.00  0.00     0.152 C 
BRANCH   5   6
HETATM    6  C   UNK N   1      19.984  15.466   4.071  0.00  0.00     0.187 C 
BRANCH   6   7
HETATM    7  O   UNK N   1      20.516  16.241   3.032  0.00  0.00    -0.387 OA
BRANCH   7   8
HETATM    8  C   UNK N   1      20.764  15.344   1.986  0.00  0.00     0.193 C 
BRANCH   8   9
HETATM    9  C   UNK N   1      22.249  15.039   1.887  0.00  0.00     0.193 C 
BRANCH   9  10
HETATM   10  O   UNK N   1      22.537  14.542   0.613  0.00  0.00    -0.394 OA
HETATM   11  C   UNK N   1      22.023  13.246   0.603  0.00  0.00     0.201 C 
ENDBRANCH   9  10
ENDBRANCH   8   9
ENDBRANCH   7   8
ENDBRANCH   6   7
ENDBRANCH   5   6
ENDBRANCH   2   5
BRANCH   3  12
HETATM   12  C   UNK N   1      20.545  16.024   8.866  0.00  0.00     0.270 C 
BRANCH  12  13
HETATM   13  O   UNK N   1      21.224  14.802   8.884  0.00  0.00    -0.380 OA
BRANCH  13  14
HETATM   14  C   UNK N   1      20.559  14.025   9.838  0.00  0.00     0.194 C 
BRANCH  14  15
HETATM   15  C   UNK N   1      21.276  12.695   9.999  0.00  0.00     0.193 C 
BRANCH  15  16
HETATM   16  O   UNK N   1      22.590  12.909  10.411  0.00  0.00    -0.394 OA
HETATM   17  C   UNK N   1      22.709  12.164  11.583  0.00  0.00     0.201 C 
ENDBRANCH  15  16
ENDBRANCH  14  15
ENDBRANCH  13  14
ENDBRANCH  12  13
ENDBRANCH   3  12
ENDBRANCH   1   2
BRANCH   1  18
HETATM   18  C   UNK N   1      22.192  17.688   6.119  0.00  0.00     0.235 C 
HETATM   19  O   UNK N   1      21.513  18.589   6.585  0.00  0.00    -0.272 OA
HETATM   20  N   UNK N   1      23.356  17.996   5.505  0.00  0.00    -0.360 N 
HETATM   21  H   UNK N   1      23.606  18.945   5.429  0.00  0.00     0.162 HD
BRANCH  20  22
HETATM   22  C   UNK N   1      24.250  17.008   4.954  0.00  0.00     0.122 C 
BRANCH  22  23
HETATM   23  C   UNK N   1      25.542  17.648   4.445  0.00  0.00     0.020 C 
BRANCH  23  24
HETATM   24  C   UNK N   1      25.550  19.173   4.513  0.00  0.00     0.002 C 
BRANCH  24  25
HETATM   25  C   UNK N   1      25.642  19.787   3.116  0.00  0.00     0.002 C 
BRANCH  25  26
HETATM   26  C   UNK N   1      24.534  20.806   2.825  0.00  0.00     0.027 C 
BRANCH  26  27
HETATM   27  C   UNK N   1      23.128  20.248   3.024  0.00  0.00     0.180 C 
BRANCH  27  28
HETATM   28  O   UNK N   1      22.371  20.393   1.855  0.00  0.00    -0.297 OA
BRANCH  28  29
HETATM   29  P   UNK N   1      20.718  20.173   2.353  0.00  0.00     0.390 P 
HETATM   30  O   UNK N   1      20.579  20.359   3.887  0.00  0.00    -0.632 OA
BRANCH  29  31
HETATM   31  O   UNK N   1      21.196  21.822   2.620  0.00  0.00    -0.307 OA
HETATM   32  H   UNK N   1      21.586  22.370   1.923  0.00  0.00     0.222 HD
ENDBRANCH  29  31
BRANCH  29  33
HETATM   33  O   UNK N   1      21.657  18.875   3.022  0.00  0.00    -0.307 OA
HETATM   34  H   UNK N   1      22.493  18.801   3.510  0.00  0.00     0.222 HD
ENDBRANCH  29  33
ENDBRANCH  28  29
ENDBRANCH  27  28
ENDBRANCH  26  27
ENDBRANCH  25  26
ENDBRANCH  24  25
ENDBRANCH  23  24
ENDBRANCH  22  23
ENDBRANCH  20  22
ENDBRANCH   1  18
TORSDOF 23
ENDMDL
MODEL 3
REMARK VINA RESULT:      -5.1      8.526     13.163
REMARK  23 active torsions:
REMARK  status: ('A' for Active; 'I' for Inactive)
REMARK    1  A    between atoms: O_2  and  C_3 
REMARK    2  A    between atoms: C_3  and  C_4 
REMARK    3  A    between atoms: C_4  and  O_5 
REMARK    4  A    between atoms: O_5  and  C_6 
REMARK    5  A    between atoms: C_6  and  C_7 
REMARK    6  A    between atoms: C_7  and  N_8 
REMARK    7  A    between atoms: N_8  and  C_9 
REMARK       I    between atoms: N_8  and  C_24 
REMARK    8  A    between atoms: C_9  and  C_10 
REMARK       I    between atoms: C_10  and  N_12 
REMARK    9  A    between atoms: N_12  and  C_13 
REMARK   10  A    between atoms: C_13  and  C_14 
REMARK   11  A    between atoms: C_14  and  C_15 
REMARK   12  A    between atoms: C_15  and  C_16 
REMARK   13  A    between atoms: C_16  and  C_17 
REMARK   14  A    between atoms: C_17  and  C_18 
REMARK   15  A    between atoms: C_18  and  O_19 
REMARK   16  A    between atoms: O_19  and  P_20 
REMARK   17  A    between atoms: P_20  and  O_22 
REMARK   18  A    between atoms: P_20  and  O_23 
REMARK   19  A    between atoms: C_24  and  C_26 
REMARK   20  A    between atoms: C_26  and  O_27 
REMARK   21  A    between atoms: O_27  and  C_28 
REMARK   22  A    between atoms: C_28  and  C_29 
REMARK   23  A    between atoms: C_29  and  O_30 
ROOT
HETATM    1  C   UNK N   1      33.976  15.871   9.984  0.00  0.00     0.228 C 
ENDROOT
BRANCH   1   2
HETATM    2  N   UNK N   1      34.737  14.695   9.623  0.00  0.00    -0.340 N 
HETATM    3  C   UNK N   1      35.326  13.931  10.594  0.00  0.00     0.243 C 
HETATM    4  O   UNK N   1      35.919  12.906  10.304  0.00  0.00    -0.271 OA
BRANCH   2   5
HETATM    5  C   UNK N   1      34.780  14.294   8.229  0.00  0.00     0.152 C 
BRANCH   5   6
HETATM    6  C   UNK N   1      33.396  13.907   7.717  0.00  0.00     0.187 C 
BRANCH   6   7
HETATM    7  O   UNK N   1      32.915  12.796   8.422  0.00  0.00    -0.387 OA
BRANCH   7   8
HETATM    8  C   UNK N   1      33.566  11.689   7.863  0.00  0.00     0.193 C 
BRANCH   8   9
HETATM    9  C   UNK N   1      33.546  10.516   8.827  0.00  0.00     0.193 C 
BRANCH   9  10
HETATM   10  O   UNK N   1      34.684   9.730   8.628  0.00  0.00    -0.394 OA
HETATM   11  C   UNK N   1      35.156   9.442   9.908  0.00  0.00     0.201 C 
ENDBRANCH   9  10
ENDBRANCH   8   9
ENDBRANCH   7   8
ENDBRANCH   6   7
ENDBRANCH   5   6
ENDBRANCH   2   5
BRANCH   3  12
HETATM   12  C   UNK N   1      35.238  14.328  12.039  0.00  0.00     0.270 C 
BRANCH  12  13
HETATM   13  O   UNK N   1      34.632  13.310  12.781  0.00  0.00    -0.380 OA
BRANCH  13  14
HETATM   14  C   UNK N   1      35.566  12.964  13.763  0.00  0.00     0.194 C 
BRANCH  14  15
HETATM   15  C   UNK N   1      34.867  12.223  14.891  0.00  0.00     0.193 C 
BRANCH  15  16
HETATM   16  O   UNK N   1      34.177  13.126  15.697  0.00  0.00    -0.394 OA
HETATM   17  C   UNK N   1      34.826  13.052  16.930  0.00  0.00     0.201 C 
ENDBRANCH  15  16
ENDBRANCH  14  15
ENDBRANCH  13  14
ENDBRANCH  12  13
ENDBRANCH   3  12
ENDBRANCH   1   2
BRANCH   1  18
HETATM   18  C   UNK N   1      34.767  17.116   9.677  0.00  0.00     0.235 C 
HETATM   19  O   UNK N   1      35.758  17.372  10.342  0.00  0.00    -0.272 OA
HETATM   20  N   UNK N   1      34.427  17.942   8.664  0.00  0.00    -0.360 N 
HETATM   21  H   UNK N   1      34.977  18.745   8.512  0.00  0.00     0.162 HD
BRANCH  20  22
HETATM   22  C   UNK N   1      33.300  17.713   7.794  0.00  0.00     0.122 C 
BRANCH  22  23
HETATM   23  C   UNK N   1      33.753  17.394   6.368  0.00  0.00     0.020 C 
BRANCH  23  24
HETATM   24  C   UNK N   1      32.605  17.194   5.382  0.00  0.00     0.002 C 
BRANCH  24  25
HETATM   25  C   UNK N   1      31.343  16.707   6.094  0.00  0.00     0.002 C 
BRANCH  25  26
HETATM   26  C   UNK N   1      30.060  17.368   5.577  0.00  0.00     0.027 C 
BRANCH  26  27
HETATM   27  C   UNK N   1      29.093  17.769   6.688  0.00  0.00     0.180 C 
BRANCH  27  28
HETATM   28  O   UNK N   1      29.514  17.250   7.918  0.00  0.00    -0.297 OA
BRANCH  28  29
HETATM   29  P   UNK N   1      28.442  17.948   9.098  0.00  0.00     0.390 P 
HETATM   30  O   UNK N   1      27.803  16.840   9.978  0.00  0.00    -0.632 OA
BRANCH  29  31
HETATM   31  O   UNK N   1      29.798  17.214   9.900  0.00  0.00    -0.307 OA
HETATM   32  H   UNK N   1      30.686  17.601   9.878  0.00  0.00     0.222 HD
ENDBRANCH  29  31
BRANCH  29  33
HETATM   33  O   UNK N   1      27.485  17.021   7.984  0.00  0.00    -0.307 OA
HETATM   34  H   UNK N   1      27.110  17.166   7.100  0.00  0.00     0.222 HD
ENDBRANCH  29  33
ENDBRANCH  28  29
ENDBRANCH  27  28
ENDBRANCH  26  27
ENDBRANCH  25  26
ENDBRANCH  24  25
ENDBRANCH  23  24
ENDBRANCH  22  23
ENDBRANCH  20  22
ENDBRANCH   1  18
TORSDOF 23
ENDMDL
MODEL 4
REMARK VINA RESULT:      -5.0      1.126      5.672
REMARK  23 active torsions:
REMARK  status: ('A' for Active; 'I' for Inactive)
REMARK    1  A    between atoms: O_2  and  C_3 
REMARK    2  A    between atoms: C_3  and  C_4 
REMARK    3  A    between atoms: C_4  and  O_5 
REMARK    4  A    between atoms: O_5  and  C_6 
REMARK    5  A    between atoms: C_6  and  C_7 
REMARK    6  A    between atoms: C_7  and  N_8 
REMARK    7  A    between atoms: N_8  and  C_9 
REMARK       I    between atoms: N_8  and  C_24 
REMARK    8  A    between atoms: C_9  and  C_10 
REMARK       I    between atoms: C_10  and  N_12 
REMARK    9  A    between atoms: N_12  and  C_13 
REMARK   10  A    between atoms: C_13  and  C_14 
REMARK   11  A    between atoms: C_14  and  C_15 
REMARK   12  A    between atoms: C_15  and  C_16 
REMARK   13  A    between atoms: C_16  and  C_17 
REMARK   14  A    between atoms: C_17  and  C_18 
REMARK   15  A    between atoms: C_18  and  O_19 
REMARK   16  A    between atoms: O_19  and  P_20 
REMARK   17  A    between atoms: P_20  and  O_22 
REMARK   18  A    between atoms: P_20  and  O_23 
REMARK   19  A    between atoms: C_24  and  C_26 
REMARK   20  A    between atoms: C_26  and  O_27 
REMARK   21  A    between atoms: O_27  and  C_28 
REMARK   22  A    between atoms: C_28  and  C_29 
REMARK   23  A    between atoms: C_29  and  O_30 
ROOT
HETATM    1  C   UNK N   1      22.390  16.363   6.118  0.00  0.00     0.228 C 
ENDROOT
BRANCH   1   2
HETATM    2  N   UNK N   1      21.184  15.768   5.583  0.00  0.00    -0.340 N 
HETATM    3  C   UNK N   1      20.240  15.250   6.428  0.00  0.00     0.243 C 
HETATM    4  O   UNK N   1      19.194  14.800   5.991  0.00  0.00    -0.271 OA
BRANCH   2   5
HETATM    5  C   UNK N   1      20.956  15.820   4.151  0.00  0.00     0.152 C 
BRANCH   5   6
HETATM    6  C   UNK N   1      19.939  16.897   3.787  0.00  0.00     0.187 C 
BRANCH   6   7
HETATM    7  O   UNK N   1      20.407  17.657   2.707  0.00  0.00    -0.387 OA
BRANCH   7   8
HETATM    8  C   UNK N   1      19.695  18.862   2.763  0.00  0.00     0.193 C 
BRANCH   8   9
HETATM    9  C   UNK N   1      20.547  19.957   3.381  0.00  0.00     0.193 C 
BRANCH   9  10
HETATM   10  O   UNK N   1      21.511  20.373   2.460  0.00  0.00    -0.394 OA
HETATM   11  C   UNK N   1      20.794  20.717   1.314  0.00  0.00     0.201 C 
ENDBRANCH   9  10
ENDBRANCH   8   9
ENDBRANCH   7   8
ENDBRANCH   6   7
ENDBRANCH   5   6
ENDBRANCH   2   5
BRANCH   3  12
HETATM   12  C   UNK N   1      20.462  15.241   7.912  0.00  0.00     0.270 C 
BRANCH  12  13
HETATM   13  O   UNK N   1      20.072  14.012   8.450  0.00  0.00    -0.380 OA
BRANCH  13  14
HETATM   14  C   UNK N   1      21.258  13.295   8.635  0.00  0.00     0.194 C 
BRANCH  14  15
HETATM   15  C   UNK N   1      21.648  13.326  10.103  0.00  0.00     0.193 C 
BRANCH  15  16
HETATM   16  O   UNK N   1      23.031  13.216  10.230  0.00  0.00    -0.394 OA
HETATM   17  C   UNK N   1      23.225  11.967  10.818  0.00  0.00     0.201 C 
ENDBRANCH  15  16
ENDBRANCH  14  15
ENDBRANCH  13  14
ENDBRANCH  12  13
ENDBRANCH   3  12
ENDBRANCH   1   2
BRANCH   1  18
HETATM   18  C   UNK N   1      22.305  17.866   6.037  0.00  0.00     0.235 C 
HETATM   19  O   UNK N   1      21.402  18.444   6.619  0.00  0.00    -0.272 OA
HETATM   20  N   UNK N   1      23.221  18.594   5.361  0.00  0.00    -0.360 N 
HETATM   21  H   UNK N   1      23.113  19.572   5.338  0.00  0.00     0.162 HD
BRANCH  20  22
HETATM   22  C   UNK N   1      24.348  18.014   4.672  0.00  0.00     0.122 C 
BRANCH  22  23
HETATM   23  C   UNK N   1      25.194  19.087   3.987  0.00  0.00     0.020 C 
BRANCH  23  24
HETATM   24  C   UNK N   1      26.157  19.813   4.924  0.00  0.00     0.002 C 
BRANCH  24  25
HETATM   25  C   UNK N   1      27.608  19.619   4.483  0.00  0.00     0.002 C 
BRANCH  25  26
HETATM   26  C   UNK N   1      28.392  18.653   5.380  0.00  0.00     0.027 C 
BRANCH  26  27
HETATM   27  C   UNK N   1      28.012  18.748   6.854  0.00  0.00     0.180 C 
BRANCH  27  28
HETATM   28  O   UNK N   1      27.880  17.471   7.413  0.00  0.00    -0.297 OA
BRANCH  28  29
HETATM   29  P   UNK N   1      28.353  17.651   9.078  0.00  0.00     0.390 P 
HETATM   30  O   UNK N   1      29.371  18.811   9.235  0.00  0.00    -0.632 OA
BRANCH  29  31
HETATM   31  O   UNK N   1      27.470  19.057   8.566  0.00  0.00    -0.307 OA
HETATM   32  H   UNK N   1      27.278  19.796   9.162  0.00  0.00     0.222 HD
ENDBRANCH  29  31
BRANCH  29  33
HETATM   33  O   UNK N   1      29.741  17.120   8.180  0.00  0.00    -0.307 OA
HETATM   34  H   UNK N   1      29.960  17.006   7.241  0.00  0.00     0.222 HD
ENDBRANCH  29  33
ENDBRANCH  28  29
ENDBRANCH  27  28
ENDBRANCH  26  27
ENDBRANCH  25  26
ENDBRANCH  24  25
ENDBRANCH  23  24
ENDBRANCH  22  23
ENDBRANCH  20  22
ENDBRANCH   1  18
TORSDOF 23
ENDMDL
MODEL 5
REMARK VINA RESULT:      -5.0      3.344      7.384
REMARK  23 active torsions:
REMARK  status: ('A' for Active; 'I' for Inactive)
REMARK    1  A    between atoms: O_2  and  C_3 
REMARK    2  A    between atoms: C_3  and  C_4 
REMARK    3  A    between atoms: C_4  and  O_5 
REMARK    4  A    between atoms: O_5  and  C_6 
REMARK    5  A    between atoms: C_6  and  C_7 
REMARK    6  A    between atoms: C_7  and  N_8 
REMARK    7  A    between atoms: N_8  and  C_9 
REMARK       I    between atoms: N_8  and  C_24 
REMARK    8  A    between atoms: C_9  and  C_10 
REMARK       I    between atoms: C_10  and  N_12 
REMARK    9  A    between atoms: N_12  and  C_13 
REMARK   10  A    between atoms: C_13  and  C_14 
REMARK   11  A    between atoms: C_14  and  C_15 
REMARK   12  A    between atoms: C_15  and  C_16 
REMARK   13  A    between atoms: C_16  and  C_17 
REMARK   14  A    between atoms: C_17  and  C_18 
REMARK   15  A    between atoms: C_18  and  O_19 
REMARK   16  A    between atoms: O_19  and  P_20 
REMARK   17  A    between atoms: P_20  and  O_22 
REMARK   18  A    between atoms: P_20  and  O_23 
REMARK   19  A    between atoms: C_24  and  C_26 
REMARK   20  A    between atoms: C_26  and  O_27 
REMARK   21  A    between atoms: O_27  and  C_28 
REMARK   22  A    between atoms: C_28  and  C_29 
REMARK   23  A    between atoms: C_29  and  O_30 
ROOT
HETATM    1  C   UNK N   1      20.829  14.280   5.289  0.00  0.00     0.228 C 
ENDROOT
BRANCH   1   2
HETATM    2  N   UNK N   1      20.946  15.497   6.063  0.00  0.00    -0.340 N 
HETATM    3  C   UNK N   1      20.880  15.453   7.428  0.00  0.00     0.243 C 
HETATM    4  O   UNK N   1      21.037  16.465   8.092  0.00  0.00    -0.271 OA
BRANCH   2   5
HETATM    5  C   UNK N   1      21.231  16.740   5.368  0.00  0.00     0.152 C 
BRANCH   5   6
HETATM    6  C   UNK N   1      22.581  16.686   4.660  0.00  0.00     0.187 C 
BRANCH   6   7
HETATM    7  O   UNK N   1      23.617  16.644   5.602  0.00  0.00    -0.387 OA
BRANCH   7   8
HETATM    8  C   UNK N   1      24.786  16.426   4.860  0.00  0.00     0.193 C 
BRANCH   8   9
HETATM    9  C   UNK N   1      24.846  14.990   4.369  0.00  0.00     0.193 C 
BRANCH   9  10
HETATM   10  O   UNK N   1      25.576  14.936   3.179  0.00  0.00    -0.394 OA
HETATM   11  C   UNK N   1      24.631  14.689   2.184  0.00  0.00     0.201 C 
ENDBRANCH   9  10
ENDBRANCH   8   9
ENDBRANCH   7   8
ENDBRANCH   6   7
ENDBRANCH   5   6
ENDBRANCH   2   5
BRANCH   3  12
HETATM   12  C   UNK N   1      20.631  14.156   8.142  0.00  0.00     0.270 C 
BRANCH  12  13
HETATM   13  O   UNK N   1      19.774  14.361   9.228  0.00  0.00    -0.380 OA
BRANCH  13  14
HETATM   14  C   UNK N   1      20.281  13.559  10.255  0.00  0.00     0.194 C 
BRANCH  14  15
HETATM   15  C   UNK N   1      21.768  13.338  10.040  0.00  0.00     0.193 C 
BRANCH  15  16
HETATM   16  O   UNK N   1      22.159  12.135  10.624  0.00  0.00    -0.394 OA
HETATM   17  C   UNK N   1      23.026  11.565   9.692  0.00  0.00     0.201 C 
ENDBRANCH  15  16
ENDBRANCH  14  15
ENDBRANCH  13  14
ENDBRANCH  12  13
ENDBRANCH   3  12
ENDBRANCH   1   2
BRANCH   1  18
HETATM   18  C   UNK N   1      19.596  14.332   4.425  0.00  0.00     0.235 C 
HETATM   19  O   UNK N   1      18.515  14.566   4.942  0.00  0.00    -0.272 OA
HETATM   20  N   UNK N   1      19.657  14.156   3.087  0.00  0.00    -0.360 N 
HETATM   21  H   UNK N   1      18.819  14.194   2.573  0.00  0.00     0.162 HD
BRANCH  20  22
HETATM   22  C   UNK N   1      20.886  13.913   2.372  0.00  0.00     0.122 C 
BRANCH  22  23
HETATM   23  C   UNK N   1      20.905  14.647   1.031  0.00  0.00     0.020 C 
BRANCH  23  24
HETATM   24  C   UNK N   1      19.604  15.374   0.701  0.00  0.00     0.002 C 
BRANCH  24  25
HETATM   25  C   UNK N   1      19.831  16.880   0.568  0.00  0.00     0.002 C 
BRANCH  25  26
HETATM   26  C   UNK N   1      20.397  17.525   1.838  0.00  0.00     0.027 C 
BRANCH  26  27
HETATM   27  C   UNK N   1      19.477  18.579   2.446  0.00  0.00     0.180 C 
BRANCH  27  28
HETATM   28  O   UNK N   1      19.914  19.866   2.110  0.00  0.00    -0.297 OA
BRANCH  28  29
HETATM   29  P   UNK N   1      21.571  19.938   2.638  0.00  0.00     0.390 P 
HETATM   30  O   UNK N   1      22.032  21.412   2.792  0.00  0.00    -0.632 OA
BRANCH  29  31
HETATM   31  O   UNK N   1      20.534  20.576   3.877  0.00  0.00    -0.307 OA
HETATM   32  H   UNK N   1      20.251  20.049   4.641  0.00  0.00     0.222 HD
ENDBRANCH  29  31
BRANCH  29  33
HETATM   33  O   UNK N   1      21.493  20.576   1.025  0.00  0.00    -0.307 OA
HETATM   34  H   UNK N   1      21.133  21.376   0.610  0.00  0.00     0.222 HD
ENDBRANCH  29  33
ENDBRANCH  28  29
ENDBRANCH  27  28
ENDBRANCH  26  27
ENDBRANCH  25  26
ENDBRANCH  24  25
ENDBRANCH  23  24
ENDBRANCH  22  23
ENDBRANCH  20  22
ENDBRANCH   1  18
TORSDOF 23
ENDMDL
MODEL 6
REMARK VINA RESULT:      -5.0      1.854      2.547
REMARK  23 active torsions:
REMARK  status: ('A' for Active; 'I' for Inactive)
REMARK    1  A    between atoms: O_2  and  C_3 
REMARK    2  A    between atoms: C_3  and  C_4 
REMARK    3  A    between atoms: C_4  and  O_5 
REMARK    4  A    between atoms: O_5  and  C_6 
REMARK    5  A    between atoms: C_6  and  C_7 
REMARK    6  A    between atoms: C_7  and  N_8 
REMARK    7  A    between atoms: N_8  and  C_9 
REMARK       I    between atoms: N_8  and  C_24 
REMARK    8  A    between atoms: C_9  and  C_10 
REMARK       I    between atoms: C_10  and  N_12 
REMARK    9  A    between atoms: N_12  and  C_13 
REMARK   10  A    between atoms: C_13  and  C_14 
REMARK   11  A    between atoms: C_14  and  C_15 
REMARK   12  A    between atoms: C_15  and  C_16 
REMARK   13  A    between atoms: C_16  and  C_17 
REMARK   14  A    between atoms: C_17  and  C_18 
REMARK   15  A    between atoms: C_18  and  O_19 
REMARK   16  A    between atoms: O_19  and  P_20 
REMARK   17  A    between atoms: P_20  and  O_22 
REMARK   18  A    between atoms: P_20  and  O_23 
REMARK   19  A    between atoms: C_24  and  C_26 
REMARK   20  A    between atoms: C_26  and  O_27 
REMARK   21  A    between atoms: O_27  and  C_28 
REMARK   22  A    between atoms: C_28  and  C_29 
REMARK   23  A    between atoms: C_29  and  O_30 
ROOT
HETATM    1  C   UNK N   1      22.011  16.306   6.237  0.00  0.00     0.228 C 
ENDROOT
BRANCH   1   2
HETATM    2  N   UNK N   1      20.644  15.854   6.387  0.00  0.00    -0.340 N 
HETATM    3  C   UNK N   1      19.919  15.483   5.288  0.00  0.00     0.243 C 
HETATM    4  O   UNK N   1      18.787  15.045   5.409  0.00  0.00    -0.271 OA
BRANCH   2   5
HETATM    5  C   UNK N   1      20.100  15.712   7.724  0.00  0.00     0.152 C 
BRANCH   5   6
HETATM    6  C   UNK N   1      18.988  16.723   7.984  0.00  0.00     0.187 C 
BRANCH   6   7
HETATM    7  O   UNK N   1      18.297  16.390   9.156  0.00  0.00    -0.387 OA
BRANCH   7   8
HETATM    8  C   UNK N   1      18.004  17.611   9.776  0.00  0.00     0.193 C 
BRANCH   8   9
HETATM    9  C   UNK N   1      19.194  18.552   9.693  0.00  0.00     0.193 C 
BRANCH   9  10
HETATM   10  O   UNK N   1      19.143  19.461  10.752  0.00  0.00    -0.394 OA
HETATM   11  C   UNK N   1      17.962  19.162  11.431  0.00  0.00     0.201 C 
ENDBRANCH   9  10
ENDBRANCH   8   9
ENDBRANCH   7   8
ENDBRANCH   6   7
ENDBRANCH   5   6
ENDBRANCH   2   5
BRANCH   3  12
HETATM   12  C   UNK N   1      20.505  15.590   3.910  0.00  0.00     0.270 C 
BRANCH  12  13
HETATM   13  O   UNK N   1      19.802  16.537   3.159  0.00  0.00    -0.380 OA
BRANCH  13  14
HETATM   14  C   UNK N   1      20.715  17.007   2.209  0.00  0.00     0.194 C 
BRANCH  14  15
HETATM   15  C   UNK N   1      20.702  18.526   2.200  0.00  0.00     0.193 C 
BRANCH  15  16
HETATM   16  O   UNK N   1      20.213  19.005   3.413  0.00  0.00    -0.394 OA
HETATM   17  C   UNK N   1      20.423  20.382   3.350  0.00  0.00     0.201 C 
ENDBRANCH  15  16
ENDBRANCH  14  15
ENDBRANCH  13  14
ENDBRANCH  12  13
ENDBRANCH   3  12
ENDBRANCH   1   2
BRANCH   1  18
HETATM   18  C   UNK N   1      22.044  17.797   6.022  0.00  0.00     0.235 C 
HETATM   19  O   UNK N   1      21.345  18.515   6.719  0.00  0.00    -0.272 OA
HETATM   20  N   UNK N   1      22.849  18.364   5.097  0.00  0.00    -0.360 N 
HETATM   21  H   UNK N   1      22.825  19.343   4.995  0.00  0.00     0.162 HD
BRANCH  20  22
HETATM   22  C   UNK N   1      23.740  17.611   4.249  0.00  0.00     0.122 C 
BRANCH  22  23
HETATM   23  C   UNK N   1      25.202  17.966   4.523  0.00  0.00     0.020 C 
BRANCH  23  24
HETATM   24  C   UNK N   1      25.617  19.339   4.003  0.00  0.00     0.002 C 
BRANCH  24  25
HETATM   25  C   UNK N   1      27.038  19.692   4.444  0.00  0.00     0.002 C 
BRANCH  25  26
HETATM   26  C   UNK N   1      27.526  18.864   5.639  0.00  0.00     0.027 C 
BRANCH  26  27
HETATM   27  C   UNK N   1      27.532  19.639   6.953  0.00  0.00     0.180 C 
BRANCH  27  28
HETATM   28  O   UNK N   1      28.603  19.234   7.758  0.00  0.00    -0.297 OA
BRANCH  28  29
HETATM   29  P   UNK N   1      28.320  17.547   8.081  0.00  0.00     0.390 P 
HETATM   30  O   UNK N   1      28.910  17.149   9.460  0.00  0.00    -0.632 OA
BRANCH  29  31
HETATM   31  O   UNK N   1      27.431  18.518   9.215  0.00  0.00    -0.307 OA
HETATM   32  H   UNK N   1      27.173  19.433   9.026  0.00  0.00     0.222 HD
ENDBRANCH  29  31
BRANCH  29  33
HETATM   33  O   UNK N   1      30.031  17.779   7.893  0.00  0.00    -0.307 OA
HETATM   34  H   UNK N   1      30.621  18.540   7.770  0.00  0.00     0.222 HD
ENDBRANCH  29  33
ENDBRANCH  28  29
ENDBRANCH  27  28
ENDBRANCH  26  27
ENDBRANCH  25  26
ENDBRANCH  24  25
ENDBRANCH  23  24
ENDBRANCH  22  23
ENDBRANCH  20  22
ENDBRANCH   1  18
TORSDOF 23
ENDMDL
MODEL 7
REMARK VINA RESULT:      -4.9      3.657      6.796
REMARK  23 active torsions:
REMARK  status: ('A' for Active; 'I' for Inactive)
REMARK    1  A    between atoms: O_2  and  C_3 
REMARK    2  A    between atoms: C_3  and  C_4 
REMARK    3  A    between atoms: C_4  and  O_5 
REMARK    4  A    between atoms: O_5  and  C_6 
REMARK    5  A    between atoms: C_6  and  C_7 
REMARK    6  A    between atoms: C_7  and  N_8 
REMARK    7  A    between atoms: N_8  and  C_9 
REMARK       I    between atoms: N_8  and  C_24 
REMARK    8  A    between atoms: C_9  and  C_10 
REMARK       I    between atoms: C_10  and  N_12 
REMARK    9  A    between atoms: N_12  and  C_13 
REMARK   10  A    between atoms: C_13  and  C_14 
REMARK   11  A    between atoms: C_14  and  C_15 
REMARK   12  A    between atoms: C_15  and  C_16 
REMARK   13  A    between atoms: C_16  and  C_17 
REMARK   14  A    between atoms: C_17  and  C_18 
REMARK   15  A    between atoms: C_18  and  O_19 
REMARK   16  A    between atoms: O_19  and  P_20 
REMARK   17  A    between atoms: P_20  and  O_22 
REMARK   18  A    between atoms: P_20  and  O_23 
REMARK   19  A    between atoms: C_24  and  C_26 
REMARK   20  A    between atoms: C_26  and  O_27 
REMARK   21  A    between atoms: O_27  and  C_28 
REMARK   22  A    between atoms: C_28  and  C_29 
REMARK   23  A    between atoms: C_29  and  O_30 
ROOT
HETATM    1  C   UNK N   1      22.817  15.261   6.464  0.00  0.00     0.228 C 
ENDROOT
BRANCH   1   2
HETATM    2  N   UNK N   1      21.725  14.493   5.907  0.00  0.00    -0.340 N 
HETATM    3  C   UNK N   1      20.827  13.875   6.734  0.00  0.00     0.243 C 
HETATM    4  O   UNK N   1      19.869  13.276   6.275  0.00  0.00    -0.271 OA
BRANCH   2   5
HETATM    5  C   UNK N   1      21.549  14.475   4.467  0.00  0.00     0.152 C 
BRANCH   5   6
HETATM    6  C   UNK N   1      22.638  13.655   3.782  0.00  0.00     0.187 C 
BRANCH   6   7
HETATM    7  O   UNK N   1      22.330  12.290   3.853  0.00  0.00    -0.387 OA
BRANCH   7   8
HETATM    8  C   UNK N   1      21.131  12.140   3.147  0.00  0.00     0.193 C 
BRANCH   8   9
HETATM    9  C   UNK N   1      21.143  10.853   2.341  0.00  0.00     0.193 C 
BRANCH   9  10
HETATM   10  O   UNK N   1      19.871  10.623   1.811  0.00  0.00    -0.394 OA
HETATM   11  C   UNK N   1      19.952  11.033   0.481  0.00  0.00     0.201 C 
ENDBRANCH   9  10
ENDBRANCH   8   9
ENDBRANCH   7   8
ENDBRANCH   6   7
ENDBRANCH   5   6
ENDBRANCH   2   5
BRANCH   3  12
HETATM   12  C   UNK N   1      20.990  13.937   8.225  0.00  0.00     0.270 C 
BRANCH  12  13
HETATM   13  O   UNK N   1      20.960  12.648   8.766  0.00  0.00    -0.380 OA
BRANCH  13  14
HETATM   14  C   UNK N   1      22.246  12.430   9.271  0.00  0.00     0.194 C 
BRANCH  14  15
HETATM   15  C   UNK N   1      22.193  12.372  10.788  0.00  0.00     0.193 C 
BRANCH  15  16
HETATM   16  O   UNK N   1      23.213  11.552  11.268  0.00  0.00    -0.394 OA
HETATM   17  C   UNK N   1      24.385  12.175  10.841  0.00  0.00     0.201 C 
ENDBRANCH  15  16
ENDBRANCH  14  15
ENDBRANCH  13  14
ENDBRANCH  12  13
ENDBRANCH   3  12
ENDBRANCH   1   2
BRANCH   1  18
HETATM   18  C   UNK N   1      22.575  16.733   6.256  0.00  0.00     0.235 C 
HETATM   19  O   UNK N   1      21.673  17.281   6.868  0.00  0.00    -0.272 OA
HETATM   20  N   UNK N   1      23.350  17.472   5.432  0.00  0.00    -0.360 N 
HETATM   21  H   UNK N   1      23.142  18.429   5.330  0.00  0.00     0.162 HD
BRANCH  20  22
HETATM   22  C   UNK N   1      24.464  16.933   4.692  0.00  0.00     0.122 C 
BRANCH  22  23
HETATM   23  C   UNK N   1      25.775  17.614   5.084  0.00  0.00     0.020 C 
BRANCH  23  24
HETATM   24  C   UNK N   1      26.315  18.578   4.030  0.00  0.00     0.002 C 
BRANCH  24  25
HETATM   25  C   UNK N   1      25.576  19.917   4.077  0.00  0.00     0.002 C 
BRANCH  25  26
HETATM   26  C   UNK N   1      25.022  20.353   2.716  0.00  0.00     0.027 C 
BRANCH  26  27
HETATM   27  C   UNK N   1      23.557  20.780   2.765  0.00  0.00     0.180 C 
BRANCH  27  28
HETATM   28  O   UNK N   1      22.819  19.913   3.579  0.00  0.00    -0.297 OA
BRANCH  28  29
HETATM   29  P   UNK N   1      21.205  19.937   2.925  0.00  0.00     0.390 P 
HETATM   30  O   UNK N   1      20.277  20.825   3.796  0.00  0.00    -0.632 OA
BRANCH  29  31
HETATM   31  O   UNK N   1      21.909  21.521   2.807  0.00  0.00    -0.307 OA
HETATM   32  H   UNK N   1      21.618  22.171   2.150  0.00  0.00     0.222 HD
ENDBRANCH  29  31
BRANCH  29  33
HETATM   33  O   UNK N   1      21.153  19.120   4.458  0.00  0.00    -0.307 OA
HETATM   34  H   UNK N   1      21.164  18.196   4.754  0.00  0.00     0.222 HD
ENDBRANCH  29  33
ENDBRANCH  28  29
ENDBRANCH  27  28
ENDBRANCH  26  27
ENDBRANCH  25  26
ENDBRANCH  24  25
ENDBRANCH  23  24
ENDBRANCH  22  23
ENDBRANCH  20  22
ENDBRANCH   1  18
TORSDOF 23
ENDMDL
MODEL 8
REMARK VINA RESULT:      -4.9      7.137     11.334
REMARK  23 active torsions:
REMARK  status: ('A' for Active; 'I' for Inactive)
REMARK    1  A    between atoms: O_2  and  C_3 
REMARK    2  A    between atoms: C_3  and  C_4 
REMARK    3  A    between atoms: C_4  and  O_5 
REMARK    4  A    between atoms: O_5  and  C_6 
REMARK    5  A    between atoms: C_6  and  C_7 
REMARK    6  A    between atoms: C_7  and  N_8 
REMARK    7  A    between atoms: N_8  and  C_9 
REMARK       I    between atoms: N_8  and  C_24 
REMARK    8  A    between atoms: C_9  and  C_10 
REMARK       I    between atoms: C_10  and  N_12 
REMARK    9  A    between atoms: N_12  and  C_13 
REMARK   10  A    between atoms: C_13  and  C_14 
REMARK   11  A    between atoms: C_14  and  C_15 
REMARK   12  A    between atoms: C_15  and  C_16 
REMARK   13  A    between atoms: C_16  and  C_17 
REMARK   14  A    between atoms: C_17  and  C_18 
REMARK   15  A    between atoms: C_18  and  O_19 
REMARK   16  A    between atoms: O_19  and  P_20 
REMARK   17  A    between atoms: P_20  and  O_22 
REMARK   18  A    between atoms: P_20  and  O_23 
REMARK   19  A    between atoms: C_24  and  C_26 
REMARK   20  A    between atoms: C_26  and  O_27 
REMARK   21  A    between atoms: O_27  and  C_28 
REMARK   22  A    between atoms: C_28  and  C_29 
REMARK   23  A    between atoms: C_29  and  O_30 
ROOT
HETATM    1  C   UNK N   1      34.360  15.897   7.004  0.00  0.00     0.228 C 
ENDROOT
BRANCH   1   2
HETATM    2  N   UNK N   1      33.621  15.239   8.060  0.00  0.00    -0.340 N 
HETATM    3  C   UNK N   1      32.984  14.053   7.817  0.00  0.00     0.243 C 
HETATM    4  O   UNK N   1      32.408  13.461   8.715  0.00  0.00    -0.271 OA
BRANCH   2   5
HETATM    5  C   UNK N   1      33.653  15.811   9.393  0.00  0.00     0.152 C 
BRANCH   5   6
HETATM    6  C   UNK N   1      35.054  15.749   9.993  0.00  0.00     0.187 C 
BRANCH   6   7
HETATM    7  O   UNK N   1      35.127  14.721  10.941  0.00  0.00    -0.387 OA
BRANCH   7   8
HETATM    8  C   UNK N   1      35.884  15.242  11.999  0.00  0.00     0.193 C 
BRANCH   8   9
HETATM    9  C   UNK N   1      35.953  14.248  13.146  0.00  0.00     0.193 C 
BRANCH   9  10
HETATM   10  O   UNK N   1      36.680  14.805  14.200  0.00  0.00    -0.394 OA
HETATM   11  C   UNK N   1      36.708  13.817  15.184  0.00  0.00     0.201 C 
ENDBRANCH   9  10
ENDBRANCH   8   9
ENDBRANCH   7   8
ENDBRANCH   6   7
ENDBRANCH   5   6
ENDBRANCH   2   5
BRANCH   3  12
HETATM   12  C   UNK N   1      32.994  13.444   6.445  0.00  0.00     0.270 C 
BRANCH  12  13
HETATM   13  O   UNK N   1      31.695  13.097   6.063  0.00  0.00    -0.380 OA
BRANCH  13  14
HETATM   14  C   UNK N   1      31.669  13.240   4.672  0.00  0.00     0.194 C 
BRANCH  14  15
HETATM   15  C   UNK N   1      33.078  13.481   4.159  0.00  0.00     0.193 C 
BRANCH  15  16
HETATM   16  O   UNK N   1      33.033  13.951   2.848  0.00  0.00    -0.394 OA
HETATM   17  C   UNK N   1      33.721  15.163   2.893  0.00  0.00     0.201 C 
ENDBRANCH  15  16
ENDBRANCH  14  15
ENDBRANCH  13  14
ENDBRANCH  12  13
ENDBRANCH   3  12
ENDBRANCH   1   2
BRANCH   1  18
HETATM   18  C   UNK N   1      33.949  17.343   6.906  0.00  0.00     0.235 C 
HETATM   19  O   UNK N   1      34.677  18.203   7.376  0.00  0.00    -0.272 OA
HETATM   20  N   UNK N   1      32.809  17.718   6.285  0.00  0.00    -0.360 N 
HETATM   21  H   UNK N   1      32.588  18.677   6.257  0.00  0.00     0.162 HD
BRANCH  20  22
HETATM   22  C   UNK N   1      31.899  16.788   5.664  0.00  0.00     0.122 C 
BRANCH  22  23
HETATM   23  C   UNK N   1      31.170  17.427   4.481  0.00  0.00     0.020 C 
BRANCH  23  24
HETATM   24  C   UNK N   1      29.699  17.036   4.372  0.00  0.00     0.002 C 
BRANCH  24  25
HETATM   25  C   UNK N   1      28.790  18.167   4.857  0.00  0.00     0.002 C 
BRANCH  25  26
HETATM   26  C   UNK N   1      27.639  17.683   5.747  0.00  0.00     0.027 C 
BRANCH  26  27
HETATM   27  C   UNK N   1      28.090  17.242   7.136  0.00  0.00     0.180 C 
BRANCH  27  28
HETATM   28  O   UNK N   1      29.055  18.120   7.642  0.00  0.00    -0.297 OA
BRANCH  28  29
HETATM   29  P   UNK N   1      29.307  17.620   9.291  0.00  0.00     0.390 P 
HETATM   30  O   UNK N   1      29.596  18.847  10.195  0.00  0.00    -0.632 OA
BRANCH  29  31
HETATM   31  O   UNK N   1      27.857  18.572   9.183  0.00  0.00    -0.307 OA
HETATM   32  H   UNK N   1      27.229  18.480   8.451  0.00  0.00     0.222 HD
ENDBRANCH  29  31
BRANCH  29  33
HETATM   33  O   UNK N   1      30.808  18.249   8.684  0.00  0.00    -0.307 OA
HETATM   34  H   UNK N   1      31.316  19.069   8.799  0.00  0.00     0.222 HD
ENDBRANCH  29  33
ENDBRANCH  28  29
ENDBRANCH  27  28
ENDBRANCH  26  27
ENDBRANCH  25  26
ENDBRANCH  24  25
ENDBRANCH  23  24
ENDBRANCH  22  23
ENDBRANCH  20  22
ENDBRANCH   1  18
TORSDOF 23
ENDMDL
MODEL 9
REMARK VINA RESULT:      -4.9      6.614     10.989
REMARK  23 active torsions:
REMARK  status: ('A' for Active; 'I' for Inactive)
REMARK    1  A    between atoms: O_2  and  C_3 
REMARK    2  A    between atoms: C_3  and  C_4 
REMARK    3  A    between atoms: C_4  and  O_5 
REMARK    4  A    between atoms: O_5  and  C_6 
REMARK    5  A    between atoms: C_6  and  C_7 
REMARK    6  A    between atoms: C_7  and  N_8 
REMARK    7  A    between atoms: N_8  and  C_9 
REMARK       I    between atoms: N_8  and  C_24 
REMARK    8  A    between atoms: C_9  and  C_10 
REMARK       I    between atoms: C_10  and  N_12 
REMARK    9  A    between atoms: N_12  and  C_13 
REMARK   10  A    between atoms: C_13  and  C_14 
REMARK   11  A    between atoms: C_14  and  C_15 
REMARK   12  A    between atoms: C_15  and  C_16 
REMARK   13  A    between atoms: C_16  and  C_17 
REMARK   14  A    between atoms: C_17  and  C_18 
REMARK   15  A    between atoms: C_18  and  O_19 
REMARK   16  A    between atoms: O_19  and  P_20 
REMARK   17  A    between atoms: P_20  and  O_22 
REMARK   18  A    between atoms: P_20  and  O_23 
REMARK   19  A    between atoms: C_24  and  C_26 
REMARK   20  A    between atoms: C_26  and  O_27 
REMARK   21  A    between atoms: O_27  and  C_28 
REMARK   22  A    between atoms: C_28  and  C_29 
REMARK   23  A    between atoms: C_29  and  O_30 
ROOT
HETATM    1  C   UNK N   1      32.052  17.637   7.614  0.00  0.00     0.228 C 
ENDROOT
BRANCH   1   2
HETATM    2  N   UNK N   1      33.456  17.325   7.449  0.00  0.00    -0.340 N 
HETATM    3  C   UNK N   1      33.886  16.663   6.332  0.00  0.00     0.243 C 
HETATM    4  O   UNK N   1      35.074  16.448   6.155  0.00  0.00    -0.271 OA
BRANCH   2   5
HETATM    5  C   UNK N   1      34.399  17.813   8.438  0.00  0.00     0.152 C 
BRANCH   5   6
HETATM    6  C   UNK N   1      34.888  16.687   9.344  0.00  0.00     0.187 C 
BRANCH   6   7
HETATM    7  O   UNK N   1      35.251  17.200  10.597  0.00  0.00    -0.387 OA
BRANCH   7   8
HETATM    8  C   UNK N   1      35.794  16.117  11.299  0.00  0.00     0.193 C 
BRANCH   8   9
HETATM    9  C   UNK N   1      36.006  14.932  10.374  0.00  0.00     0.193 C 
BRANCH   9  10
HETATM   10  O   UNK N   1      35.725  13.749  11.060  0.00  0.00    -0.394 OA
HETATM   11  C   UNK N   1      36.907  13.424  11.725  0.00  0.00     0.201 C 
ENDBRANCH   9  10
ENDBRANCH   8   9
ENDBRANCH   7   8
ENDBRANCH   6   7
ENDBRANCH   5   6
ENDBRANCH   2   5
BRANCH   3  12
HETATM   12  C   UNK N   1      32.909  16.202   5.290  0.00  0.00     0.270 C 
BRANCH  12  13
HETATM   13  O   UNK N   1      33.061  16.954   4.121  0.00  0.00    -0.380 OA
BRANCH  13  14
HETATM   14  C   UNK N   1      32.797  16.067   3.074  0.00  0.00     0.194 C 
BRANCH  14  15
HETATM   15  C   UNK N   1      31.369  15.562   3.182  0.00  0.00     0.193 C 
BRANCH  15  16
HETATM   16  O   UNK N   1      30.478  16.577   2.836  0.00  0.00    -0.394 OA
HETATM   17  C   UNK N   1      29.232  15.951   2.821  0.00  0.00     0.201 C 
ENDBRANCH  15  16
ENDBRANCH  14  15
ENDBRANCH  13  14
ENDBRANCH  12  13
ENDBRANCH   3  12
ENDBRANCH   1   2
BRANCH   1  18
HETATM   18  C   UNK N   1      31.432  16.713   8.629  0.00  0.00     0.235 C 
HETATM   19  O   UNK N   1      31.821  15.558   8.701  0.00  0.00    -0.272 OA
HETATM   20  N   UNK N   1      30.476  17.136   9.485  0.00  0.00    -0.360 N 
HETATM   21  H   UNK N   1      30.102  16.488  10.124  0.00  0.00     0.162 HD
BRANCH  20  22
HETATM   22  C   UNK N   1      29.974  18.488   9.511  0.00  0.00     0.122 C 
BRANCH  22  23
HETATM   23  C   UNK N   1      28.642  18.602   8.767  0.00  0.00     0.020 C 
BRANCH  23  24
HETATM   24  C   UNK N   1      27.931  17.268   8.558  0.00  0.00     0.002 C 
BRANCH  24  25
HETATM   25  C   UNK N   1      27.666  17.010   7.074  0.00  0.00     0.002 C 
BRANCH  25  26
HETATM   26  C   UNK N   1      28.691  17.675   6.149  0.00  0.00     0.027 C 
BRANCH  26  27
HETATM   27  C   UNK N   1      28.088  18.746   5.244  0.00  0.00     0.180 C 
BRANCH  27  28
HETATM   28  O   UNK N   1      27.027  18.219   4.499  0.00  0.00    -0.297 OA
BRANCH  28  29
HETATM   29  P   UNK N   1      26.156  19.604   3.904  0.00  0.00     0.390 P 
HETATM   30  O   UNK N   1      26.554  20.880   4.693  0.00  0.00    -0.632 OA
BRANCH  29  31
HETATM   31  O   UNK N   1      27.851  19.792   3.572  0.00  0.00    -0.307 OA
HETATM   32  H   UNK N   1      28.272  19.411   2.786  0.00  0.00     0.222 HD
ENDBRANCH  29  31
BRANCH  29  33
HETATM   33  O   UNK N   1      25.617  19.285   5.524  0.00  0.00    -0.307 OA
HETATM   34  H   UNK N   1      26.044  19.078   6.371  0.00  0.00     0.222 HD
ENDBRANCH  29  33
ENDBRANCH  28  29
ENDBRANCH  27  28
ENDBRANCH  26  27
ENDBRANCH  25  26
ENDBRANCH  24  25
ENDBRANCH  23  24
ENDBRANCH  22  23
ENDBRANCH  20  22
ENDBRANCH   1  18
TORSDOF 23
ENDMDL
