MODEL 1
REMARK VINA RESULT:      -8.4      0.000      0.000
REMARK  8 active torsions:
REMARK  status: ('A' for Active; 'I' for Inactive)
REMARK    1  A    between atoms: C_3  and  C_31 
REMARK    2  A    between atoms: C_5  and  C_7 
REMARK       I    between atoms: C_7  and  N_9 
REMARK    3  A    between atoms: N_9  and  C_10 
REMARK    4  A    between atoms: C_10  and  C_11 
REMARK       I    between atoms: C_11  and  N_13 
REMARK    5  A    between atoms: N_13  and  C_14 
REMARK    6  A    between atoms: C_18  and  N_16 
REMARK    7  A    between atoms: C_21  and  O_24 
REMARK    8  A    between atoms: C_21  and  C_25 
ROOT
HETATM    1  C   UNK N   1      33.891  14.738   9.877  0.00  0.00     0.235 C 
HETATM    2  O   UNK N   1      33.550  15.672  10.585  0.00  0.00    -0.272 OA
HETATM    3  N   UNK N   1      34.202  13.553  10.470  0.00  0.00    -0.352 N 
HETATM    4  H   UNK N   1      34.175  13.522  11.453  0.00  0.00     0.163 HD
ENDROOT
BRANCH   3   5
HETATM    5  C   UNK N   1      34.568  12.333   9.780  0.00  0.00     0.141 C 
HETATM    6  C   UNK N   1      35.861  11.823  10.375  0.00  0.00     0.299 C 
HETATM    7  N   UNK N   1      35.200  10.781  11.158  0.00  0.00     0.097 N 
HETATM    8  C   UNK N   1      33.957  11.145  10.489  0.00  0.00     0.299 C 
BRANCH   7   9
HETATM    9  C   UNK N   1      35.158  11.275  12.537  0.00  0.00     0.223 C 
HETATM   10  C   UNK N   1      36.570  11.346  13.129  0.00  0.00     0.039 C 
HETATM   11  C   UNK N   1      36.568  11.630  14.644  0.00  0.00     0.045 C 
HETATM   12  C   UNK N   1      35.210  12.133  15.163  0.00  0.00     0.093 C 
HETATM   13  C   UNK N   1      34.120  11.094  14.840  0.00  0.00     0.045 C 
HETATM   14  C   UNK N   1      34.253  10.446  13.453  0.00  0.00     0.039 C 
BRANCH  12  15
HETATM   15  O   UNK N   1      34.907  13.346  14.537  0.00  0.00    -0.384 OA
HETATM   16  H   UNK N   1      34.794  13.992  13.823  0.00  0.00     0.211 HD
ENDBRANCH  12  15
BRANCH  12  17
HETATM   17  C   UNK N   1      35.231  12.356  16.649  0.00  0.00     0.033 A 
HETATM   18  S   UNK N   1      35.271  11.220  17.850  0.00  0.00    -0.085 SA
HETATM   19  C   UNK N   1      35.269  12.249  19.145  0.00  0.00     0.138 A 
HETATM   20  N   UNK N   1      35.239  13.525  18.671  0.00  0.00    -0.368 N 
HETATM   21  C   UNK N   1      35.216  13.599  17.294  0.00  0.00     0.105 A 
ATOM     22  HN  UNK N   1      35.233  14.346  19.275  1.00  0.00     0.165 HD
ENDBRANCH  12  17
ENDBRANCH   7   9
ENDBRANCH   3   5
BRANCH   1  23
HETATM   23  C   UNK N   1      33.884  14.952   8.382  0.00  0.00     0.225 C 
BRANCH  23  24
HETATM   24  N   UNK N   1      34.563  16.155   7.952  0.00  0.00    -0.348 N 
HETATM   25  C   UNK N   1      33.921  17.253   7.479  0.00  0.00     0.252 C 
HETATM   26  O   UNK N   1      34.579  18.261   7.249  0.00  0.00    -0.268 OA
HETATM   27  H   UNK N   1      35.545  16.179   8.005  0.00  0.00     0.163 HD
BRANCH  25  28
HETATM   28  C   UNK N   1      32.445  17.308   7.326  0.00  0.00     0.032 A 
HETATM   29  C   UNK N   1      31.666  17.762   8.394  0.00  0.00     0.033 A 
HETATM   30  C   UNK N   1      30.268  17.711   8.329  0.00  0.00     0.048 A 
HETATM   31  C   UNK N   1      29.646  17.253   7.159  0.00  0.00     0.016 A 
HETATM   32  C   UNK N   1      30.415  16.835   6.072  0.00  0.00     0.002 A 
HETATM   33  C   UNK N   1      31.807  16.838   6.166  0.00  0.00     0.017 A 
BRANCH  30  34
HETATM   34  C   UNK N   1      29.460  18.068   9.539  0.00  0.00     0.417 C 
HETATM   35  F   UNK N   1      30.065  19.105  10.221  0.00  0.00    -0.166 F 
HETATM   36  F   UNK N   1      29.383  16.962  10.367  0.00  0.00    -0.166 F 
HETATM   37  F   UNK N   1      28.176  18.443   9.185  0.00  0.00    -0.166 F 
ENDBRANCH  30  34
ENDBRANCH  25  28
ENDBRANCH  23  24
ENDBRANCH   1  23
TORSDOF 8
ENDMDL
MODEL 2
REMARK VINA RESULT:      -7.9      1.772      2.411
REMARK  8 active torsions:
REMARK  status: ('A' for Active; 'I' for Inactive)
REMARK    1  A    between atoms: C_3  and  C_31 
REMARK    2  A    between atoms: C_5  and  C_7 
REMARK       I    between atoms: C_7  and  N_9 
REMARK    3  A    between atoms: N_9  and  C_10 
REMARK    4  A    between atoms: C_10  and  C_11 
REMARK       I    between atoms: C_11  and  N_13 
REMARK    5  A    between atoms: N_13  and  C_14 
REMARK    6  A    between atoms: C_18  and  N_16 
REMARK    7  A    between atoms: C_21  and  O_24 
REMARK    8  A    between atoms: C_21  and  C_25 
ROOT
HETATM    1  C   UNK N   1      33.230  14.101   8.586  0.00  0.00     0.235 C 
HETATM    2  O   UNK N   1      32.313  13.375   8.934  0.00  0.00    -0.272 OA
HETATM    3  N   UNK N   1      34.244  14.333   9.465  0.00  0.00    -0.352 N 
HETATM    4  H   UNK N   1      34.163  13.933  10.360  0.00  0.00     0.163 HD
ENDROOT
BRANCH   3   5
HETATM    5  C   UNK N   1      35.432  15.117   9.197  0.00  0.00     0.141 C 
HETATM    6  C   UNK N   1      35.818  15.839  10.468  0.00  0.00     0.299 C 
HETATM    7  N   UNK N   1      36.908  14.916  10.774  0.00  0.00     0.097 N 
HETATM    8  C   UNK N   1      36.664  14.287   9.481  0.00  0.00     0.299 C 
BRANCH   7   9
HETATM    9  C   UNK N   1      36.408  14.033  11.832  0.00  0.00     0.223 C 
HETATM   10  C   UNK N   1      36.327  14.782  13.166  0.00  0.00     0.039 C 
HETATM   11  C   UNK N   1      36.037  13.848  14.357  0.00  0.00     0.045 C 
HETATM   12  C   UNK N   1      35.538  12.457  13.927  0.00  0.00     0.093 C 
HETATM   13  C   UNK N   1      36.583  11.798  13.009  0.00  0.00     0.045 C 
HETATM   14  C   UNK N   1      37.238  12.757  12.002  0.00  0.00     0.039 C 
BRANCH  12  15
HETATM   15  O   UNK N   1      34.329  12.602  13.240  0.00  0.00    -0.384 OA
HETATM   16  H   UNK N   1      33.682  12.961  12.612  0.00  0.00     0.211 HD
ENDBRANCH  12  15
BRANCH  12  17
HETATM   17  C   UNK N   1      35.308  11.559  15.110  0.00  0.00     0.033 A 
HETATM   18  S   UNK N   1      35.018   9.931  15.113  0.00  0.00    -0.085 SA
HETATM   19  C   UNK N   1      34.877   9.722  16.748  0.00  0.00     0.138 A 
HETATM   20  N   UNK N   1      35.057  10.932  17.346  0.00  0.00    -0.368 N 
HETATM   21  C   UNK N   1      35.294  11.957  16.453  0.00  0.00     0.105 A 
ATOM     22  HN  UNK N   1      35.019  11.067  18.355  1.00  0.00     0.165 HD
ENDBRANCH  12  17
ENDBRANCH   7   9
ENDBRANCH   3   5
BRANCH   1  23
HETATM   23  C   UNK N   1      33.201  14.641   7.176  0.00  0.00     0.225 C 
BRANCH  23  24
HETATM   24  N   UNK N   1      33.982  15.844   6.986  0.00  0.00    -0.348 N 
HETATM   25  C   UNK N   1      33.442  17.084   6.885  0.00  0.00     0.252 C 
HETATM   26  O   UNK N   1      34.197  18.048   6.840  0.00  0.00    -0.268 OA
HETATM   27  H   UNK N   1      34.961  15.757   6.925  0.00  0.00     0.163 HD
BRANCH  25  28
HETATM   28  C   UNK N   1      31.977  17.320   6.929  0.00  0.00     0.032 A 
HETATM   29  C   UNK N   1      31.375  17.648   8.148  0.00  0.00     0.033 A 
HETATM   30  C   UNK N   1      29.983  17.755   8.249  0.00  0.00     0.048 A 
HETATM   31  C   UNK N   1      29.190  17.588   7.105  0.00  0.00     0.016 A 
HETATM   32  C   UNK N   1      29.784  17.300   5.875  0.00  0.00     0.002 A 
HETATM   33  C   UNK N   1      31.168  17.141   5.794  0.00  0.00     0.017 A 
BRANCH  30  34
HETATM   34  C   UNK N   1      29.356  17.966   9.593  0.00  0.00     0.417 C 
HETATM   35  F   UNK N   1      29.519  16.837  10.372  0.00  0.00    -0.166 F 
HETATM   36  F   UNK N   1      28.004  18.209   9.422  0.00  0.00    -0.166 F 
HETATM   37  F   UNK N   1      29.921  19.051  10.240  0.00  0.00    -0.166 F 
ENDBRANCH  30  34
ENDBRANCH  25  28
ENDBRANCH  23  24
ENDBRANCH   1  23
TORSDOF 8
ENDMDL
MODEL 3
REMARK VINA RESULT:      -7.8      2.406      2.815
REMARK  8 active torsions:
REMARK  status: ('A' for Active; 'I' for Inactive)
REMARK    1  A    between atoms: C_3  and  C_31 
REMARK    2  A    between atoms: C_5  and  C_7 
REMARK       I    between atoms: C_7  and  N_9 
REMARK    3  A    between atoms: N_9  and  C_10 
REMARK    4  A    between atoms: C_10  and  C_11 
REMARK       I    between atoms: C_11  and  N_13 
REMARK    5  A    between atoms: N_13  and  C_14 
REMARK    6  A    between atoms: C_18  and  N_16 
REMARK    7  A    between atoms: C_21  and  O_24 
REMARK    8  A    between atoms: C_21  and  C_25 
ROOT
HETATM    1  C   UNK N   1      35.493  15.691  10.895  0.00  0.00     0.235 C 
HETATM    2  O   UNK N   1      35.679  16.512  11.779  0.00  0.00    -0.272 OA
HETATM    3  N   UNK N   1      35.816  14.391  11.137  0.00  0.00    -0.352 N 
HETATM    4  H   UNK N   1      36.226  14.185  12.008  0.00  0.00     0.163 HD
ENDROOT
BRANCH   3   5
HETATM    5  C   UNK N   1      35.607  13.284  10.226  0.00  0.00     0.141 C 
HETATM    6  C   UNK N   1      36.337  12.079  10.774  0.00  0.00     0.299 C 
HETATM    7  N   UNK N   1      35.117  11.451  11.278  0.00  0.00     0.097 N 
HETATM    8  C   UNK N   1      34.366  12.520  10.630  0.00  0.00     0.299 C 
BRANCH   7   9
HETATM    9  C   UNK N   1      35.112  11.678  12.726  0.00  0.00     0.223 C 
HETATM   10  C   UNK N   1      36.517  11.486  13.308  0.00  0.00     0.039 C 
HETATM   11  C   UNK N   1      36.527  11.479  14.849  0.00  0.00     0.045 C 
HETATM   12  C   UNK N   1      35.224  12.017  15.465  0.00  0.00     0.093 C 
HETATM   13  C   UNK N   1      34.034  11.180  14.962  0.00  0.00     0.045 C 
HETATM   14  C   UNK N   1      34.113  10.794  13.478  0.00  0.00     0.039 C 
BRANCH  12  15
HETATM   15  O   UNK N   1      35.060  13.352  15.082  0.00  0.00    -0.384 OA
HETATM   16  H   UNK N   1      34.979  14.122  14.498  0.00  0.00     0.211 HD
ENDBRANCH  12  15
BRANCH  12  17
HETATM   17  C   UNK N   1      35.252  11.954  16.966  0.00  0.00     0.033 A 
HETATM   18  S   UNK N   1      35.474  10.626  17.927  0.00  0.00    -0.085 SA
HETATM   19  C   UNK N   1      35.366  11.379  19.395  0.00  0.00     0.138 A 
HETATM   20  N   UNK N   1      35.153  12.706  19.176  0.00  0.00    -0.368 N 
HETATM   21  C   UNK N   1      35.087  13.038  17.838  0.00  0.00     0.105 A 
ATOM     22  HN  UNK N   1      35.052  13.387  19.927  1.00  0.00     0.165 HD
ENDBRANCH  12  17
ENDBRANCH   7   9
ENDBRANCH   3   5
BRANCH   1  23
HETATM   23  C   UNK N   1      34.858  16.174   9.613  0.00  0.00     0.225 C 
BRANCH  23  24
HETATM   24  N   UNK N   1      35.204  17.531   9.253  0.00  0.00    -0.348 N 
HETATM   25  C   UNK N   1      34.469  18.297   8.409  0.00  0.00     0.252 C 
HETATM   26  O   UNK N   1      34.784  19.472   8.259  0.00  0.00    -0.268 OA
HETATM   27  H   UNK N   1      36.019  17.922   9.642  0.00  0.00     0.163 HD
BRANCH  25  28
HETATM   28  C   UNK N   1      33.242  17.792   7.741  0.00  0.00     0.032 A 
HETATM   29  C   UNK N   1      33.302  17.418   6.396  0.00  0.00     0.033 A 
HETATM   30  C   UNK N   1      32.140  17.056   5.704  0.00  0.00     0.048 A 
HETATM   31  C   UNK N   1      30.914  17.014   6.382  0.00  0.00     0.016 A 
HETATM   32  C   UNK N   1      30.850  17.347   7.736  0.00  0.00     0.002 A 
HETATM   33  C   UNK N   1      32.003  17.759   8.404  0.00  0.00     0.017 A 
BRANCH  30  34
HETATM   34  C   UNK N   1      32.211  16.798   4.230  0.00  0.00     0.417 C 
HETATM   35  F   UNK N   1      30.954  16.918   3.669  0.00  0.00    -0.166 F 
HETATM   36  F   UNK N   1      32.682  15.514   4.022  0.00  0.00    -0.166 F 
HETATM   37  F   UNK N   1      33.072  17.688   3.611  0.00  0.00    -0.166 F 
ENDBRANCH  30  34
ENDBRANCH  25  28
ENDBRANCH  23  24
ENDBRANCH   1  23
TORSDOF 8
ENDMDL
MODEL 4
REMARK VINA RESULT:      -7.8      4.854      9.606
REMARK  8 active torsions:
REMARK  status: ('A' for Active; 'I' for Inactive)
REMARK    1  A    between atoms: C_3  and  C_31 
REMARK    2  A    between atoms: C_5  and  C_7 
REMARK       I    between atoms: C_7  and  N_9 
REMARK    3  A    between atoms: N_9  and  C_10 
REMARK    4  A    between atoms: C_10  and  C_11 
REMARK       I    between atoms: C_11  and  N_13 
REMARK    5  A    between atoms: N_13  and  C_14 
REMARK    6  A    between atoms: C_18  and  N_16 
REMARK    7  A    between atoms: C_21  and  O_24 
REMARK    8  A    between atoms: C_21  and  C_25 
ROOT
HETATM    1  C   UNK N   1      35.211  13.427  11.789  0.00  0.00     0.235 C 
HETATM    2  O   UNK N   1      34.289  13.471  12.588  0.00  0.00    -0.272 OA
HETATM    3  N   UNK N   1      34.917  13.350  10.462  0.00  0.00    -0.352 N 
HETATM    4  H   UNK N   1      33.965  13.293  10.215  0.00  0.00     0.163 HD
ENDROOT
BRANCH   3   5
HETATM    5  C   UNK N   1      35.881  13.349   9.381  0.00  0.00     0.141 C 
HETATM    6  C   UNK N   1      35.125  13.252   8.075  0.00  0.00     0.299 C 
HETATM    7  N   UNK N   1      35.289  14.671   7.766  0.00  0.00     0.097 N 
HETATM    8  C   UNK N   1      36.151  14.769   8.938  0.00  0.00     0.299 C 
BRANCH   7   9
HETATM    9  C   UNK N   1      34.003  15.304   8.069  0.00  0.00     0.223 C 
HETATM   10  C   UNK N   1      32.881  14.674   7.235  0.00  0.00     0.039 C 
HETATM   11  C   UNK N   1      31.555  15.453   7.335  0.00  0.00     0.045 C 
HETATM   12  C   UNK N   1      31.530  16.456   8.502  0.00  0.00     0.093 C 
HETATM   13  C   UNK N   1      32.693  17.453   8.348  0.00  0.00     0.045 C 
HETATM   14  C   UNK N   1      34.009  16.822   7.868  0.00  0.00     0.039 C 
BRANCH  12  15
HETATM   15  O   UNK N   1      31.663  15.755   9.705  0.00  0.00    -0.384 OA
HETATM   16  H   UNK N   1      31.531  15.526  10.638  0.00  0.00     0.211 HD
ENDBRANCH  12  15
BRANCH  12  17
HETATM   17  C   UNK N   1      30.241  17.228   8.542  0.00  0.00     0.033 A 
HETATM   18  S   UNK N   1      29.393  17.864   7.273  0.00  0.00    -0.085 SA
HETATM   19  C   UNK N   1      28.151  18.535   8.134  0.00  0.00     0.138 A 
HETATM   20  N   UNK N   1      28.364  18.278   9.454  0.00  0.00    -0.368 N 
HETATM   21  C   UNK N   1      29.516  17.558   9.695  0.00  0.00     0.105 A 
ATOM     22  HN  UNK N   1      27.734  18.588  10.193  1.00  0.00     0.165 HD
ENDBRANCH  12  17
ENDBRANCH   7   9
ENDBRANCH   3   5
BRANCH   1  23
HETATM   23  C   UNK N   1      36.616  13.522  12.333  0.00  0.00     0.225 C 
BRANCH  23  24
HETATM   24  N   UNK N   1      36.765  14.446  13.436  0.00  0.00    -0.348 N 
HETATM   25  C   UNK N   1      36.886  14.059  14.731  0.00  0.00     0.252 C 
HETATM   26  O   UNK N   1      37.122  14.913  15.577  0.00  0.00    -0.268 OA
HETATM   27  H   UNK N   1      36.779  15.409  13.236  0.00  0.00     0.163 HD
BRANCH  25  28
HETATM   28  C   UNK N   1      36.842  12.633  15.143  0.00  0.00     0.032 A 
HETATM   29  C   UNK N   1      36.035  12.260  16.222  0.00  0.00     0.033 A 
HETATM   30  C   UNK N   1      36.064  10.949  16.713  0.00  0.00     0.048 A 
HETATM   31  C   UNK N   1      36.868   9.990  16.082  0.00  0.00     0.016 A 
HETATM   32  C   UNK N   1      37.646  10.343  14.979  0.00  0.00     0.002 A 
HETATM   33  C   UNK N   1      37.653  11.664  14.529  0.00  0.00     0.017 A 
BRANCH  30  34
HETATM   34  C   UNK N   1      35.300  10.611  17.957  0.00  0.00     0.417 C 
HETATM   35  F   UNK N   1      34.812  11.765  18.538  0.00  0.00    -0.166 F 
HETATM   36  F   UNK N   1      36.150   9.978  18.846  0.00  0.00    -0.166 F 
HETATM   37  F   UNK N   1      34.245   9.761  17.675  0.00  0.00    -0.166 F 
ENDBRANCH  30  34
ENDBRANCH  25  28
ENDBRANCH  23  24
ENDBRANCH   1  23
TORSDOF 8
ENDMDL
MODEL 5
REMARK VINA RESULT:      -7.7      2.837      3.709
REMARK  8 active torsions:
REMARK  status: ('A' for Active; 'I' for Inactive)
REMARK    1  A    between atoms: C_3  and  C_31 
REMARK    2  A    between atoms: C_5  and  C_7 
REMARK       I    between atoms: C_7  and  N_9 
REMARK    3  A    between atoms: N_9  and  C_10 
REMARK    4  A    between atoms: C_10  and  C_11 
REMARK       I    between atoms: C_11  and  N_13 
REMARK    5  A    between atoms: N_13  and  C_14 
REMARK    6  A    between atoms: C_18  and  N_16 
REMARK    7  A    between atoms: C_21  and  O_24 
REMARK    8  A    between atoms: C_21  and  C_25 
ROOT
HETATM    1  C   UNK N   1      33.074  13.447   8.647  0.00  0.00     0.235 C 
HETATM    2  O   UNK N   1      32.355  12.541   9.037  0.00  0.00    -0.272 OA
HETATM    3  N   UNK N   1      34.405  13.386   8.926  0.00  0.00    -0.352 N 
HETATM    4  H   UNK N   1      34.716  12.626   9.469  0.00  0.00     0.163 HD
ENDROOT
BRANCH   3   5
HETATM    5  C   UNK N   1      35.405  14.340   8.491  0.00  0.00     0.141 C 
HETATM    6  C   UNK N   1      35.537  15.403   9.558  0.00  0.00     0.299 C 
HETATM    7  N   UNK N   1      36.783  14.852  10.086  0.00  0.00     0.097 N 
HETATM    8  C   UNK N   1      36.769  13.905   8.978  0.00  0.00     0.299 C 
BRANCH   7   9
HETATM    9  C   UNK N   1      36.424  14.145  11.319  0.00  0.00     0.223 C 
HETATM   10  C   UNK N   1      36.307  15.127  12.490  0.00  0.00     0.039 C 
HETATM   11  C   UNK N   1      36.166  14.416  13.850  0.00  0.00     0.045 C 
HETATM   12  C   UNK N   1      35.812  12.925  13.720  0.00  0.00     0.093 C 
HETATM   13  C   UNK N   1      36.892  12.212  12.885  0.00  0.00     0.045 C 
HETATM   14  C   UNK N   1      37.397  13.019  11.680  0.00  0.00     0.039 C 
BRANCH  12  15
HETATM   15  O   UNK N   1      34.571  12.808  13.087  0.00  0.00    -0.384 OA
HETATM   16  H   UNK N   1      33.816  12.387  12.646  0.00  0.00     0.211 HD
ENDBRANCH  12  15
BRANCH  12  17
HETATM   17  C   UNK N   1      35.727  12.255  15.063  0.00  0.00     0.033 A 
HETATM   18  S   UNK N   1      34.946  12.787  16.420  0.00  0.00    -0.085 SA
HETATM   19  C   UNK N   1      35.328  11.525  17.419  0.00  0.00     0.138 A 
HETATM   20  N   UNK N   1      36.084  10.641  16.712  0.00  0.00    -0.368 N 
HETATM   21  C   UNK N   1      36.314  11.031  15.410  0.00  0.00     0.105 A 
ATOM     22  HN  UNK N   1      36.446   9.774  17.108  1.00  0.00     0.165 HD
ENDBRANCH  12  17
ENDBRANCH   7   9
ENDBRANCH   3   5
BRANCH   1  23
HETATM   23  C   UNK N   1      32.438  14.545   7.828  0.00  0.00     0.225 C 
BRANCH  23  24
HETATM   24  N   UNK N   1      32.095  15.728   8.586  0.00  0.00    -0.348 N 
HETATM   25  C   UNK N   1      31.811  16.928   8.021  0.00  0.00     0.252 C 
HETATM   26  O   UNK N   1      31.420  17.837   8.744  0.00  0.00    -0.268 OA
HETATM   27  H   UNK N   1      32.066  15.659   9.567  0.00  0.00     0.163 HD
BRANCH  25  28
HETATM   28  C   UNK N   1      31.860  17.148   6.553  0.00  0.00     0.032 A 
HETATM   29  C   UNK N   1      30.699  16.963   5.797  0.00  0.00     0.033 A 
HETATM   30  C   UNK N   1      30.739  17.041   4.399  0.00  0.00     0.048 A 
HETATM   31  C   UNK N   1      31.943  17.364   3.758  0.00  0.00     0.016 A 
HETATM   32  C   UNK N   1      33.099  17.590   4.507  0.00  0.00     0.002 A 
HETATM   33  C   UNK N   1      33.062  17.457   5.895  0.00  0.00     0.017 A 
BRANCH  30  34
HETATM   34  C   UNK N   1      29.515  16.698   3.607  0.00  0.00     0.417 C 
HETATM   35  F   UNK N   1      29.841  16.556   2.272  0.00  0.00    -0.166 F 
HETATM   36  F   UNK N   1      28.593  17.721   3.744  0.00  0.00    -0.166 F 
HETATM   37  F   UNK N   1      28.942  15.524   4.063  0.00  0.00    -0.166 F 
ENDBRANCH  30  34
ENDBRANCH  25  28
ENDBRANCH  23  24
ENDBRANCH   1  23
TORSDOF 8
ENDMDL
MODEL 6
REMARK VINA RESULT:      -7.6      4.654      9.831
REMARK  8 active torsions:
REMARK  status: ('A' for Active; 'I' for Inactive)
REMARK    1  A    between atoms: C_3  and  C_31 
REMARK    2  A    between atoms: C_5  and  C_7 
REMARK       I    between atoms: C_7  and  N_9 
REMARK    3  A    between atoms: N_9  and  C_10 
REMARK    4  A    between atoms: C_10  and  C_11 
REMARK       I    between atoms: C_11  and  N_13 
REMARK    5  A    between atoms: N_13  and  C_14 
REMARK    6  A    between atoms: C_18  and  N_16 
REMARK    7  A    between atoms: C_21  and  O_24 
REMARK    8  A    between atoms: C_21  and  C_25 
ROOT
HETATM    1  C   UNK N   1      36.619  12.664  10.094  0.00  0.00     0.235 C 
HETATM    2  O   UNK N   1      36.953  12.113   9.058  0.00  0.00    -0.272 OA
HETATM    3  N   UNK N   1      36.444  14.015  10.085  0.00  0.00    -0.352 N 
HETATM    4  H   UNK N   1      36.637  14.487   9.243  0.00  0.00     0.163 HD
ENDROOT
BRANCH   3   5
HETATM    5  C   UNK N   1      35.995  14.817  11.204  0.00  0.00     0.141 C 
HETATM    6  C   UNK N   1      36.036  16.270  10.789  0.00  0.00     0.299 C 
HETATM    7  N   UNK N   1      34.590  16.352  10.590  0.00  0.00     0.097 N 
HETATM    8  C   UNK N   1      34.496  15.001  11.130  0.00  0.00     0.299 C 
BRANCH   7   9
HETATM    9  C   UNK N   1      34.377  16.299   9.140  0.00  0.00     0.223 C 
HETATM   10  C   UNK N   1      34.416  17.707   8.537  0.00  0.00     0.039 C 
HETATM   11  C   UNK N   1      33.964  17.736   7.064  0.00  0.00     0.045 C 
HETATM   12  C   UNK N   1      33.924  16.341   6.416  0.00  0.00     0.093 C 
HETATM   13  C   UNK N   1      32.978  15.430   7.218  0.00  0.00     0.045 C 
HETATM   14  C   UNK N   1      33.075  15.598   8.742  0.00  0.00     0.039 C 
BRANCH  12  15
HETATM   15  O   UNK N   1      35.215  15.803   6.419  0.00  0.00    -0.384 OA
HETATM   16  H   UNK N   1      35.962  15.245   6.686  0.00  0.00     0.211 HD
ENDBRANCH  12  15
BRANCH  12  17
HETATM   17  C   UNK N   1      33.438  16.403   4.995  0.00  0.00     0.033 A 
HETATM   18  S   UNK N   1      32.382  17.485   4.324  0.00  0.00    -0.085 SA
HETATM   19  C   UNK N   1      32.374  16.880   2.785  0.00  0.00     0.138 A 
HETATM   20  N   UNK N   1      33.207  15.803   2.749  0.00  0.00    -0.368 N 
HETATM   21  C   UNK N   1      33.800  15.527   3.964  0.00  0.00     0.105 A 
ATOM     22  HN  UNK N   1      33.375  15.254   1.907  1.00  0.00     0.165 HD
ENDBRANCH  12  17
ENDBRANCH   7   9
ENDBRANCH   3   5
BRANCH   1  23
HETATM   23  C   UNK N   1      36.366  11.794  11.302  0.00  0.00     0.225 C 
BRANCH  23  24
HETATM   24  N   UNK N   1      35.110  11.078  11.265  0.00  0.00    -0.348 N 
HETATM   25  C   UNK N   1      34.530  10.519  12.356  0.00  0.00     0.252 C 
HETATM   26  O   UNK N   1      33.410  10.035  12.240  0.00  0.00    -0.268 OA
HETATM   27  H   UNK N   1      34.650  10.991  10.399  0.00  0.00     0.163 HD
BRANCH  25  28
HETATM   28  C   UNK N   1      35.157  10.563  13.701  0.00  0.00     0.032 A 
HETATM   29  C   UNK N   1      34.836  11.611  14.570  0.00  0.00     0.033 A 
HETATM   30  C   UNK N   1      35.501  11.751  15.794  0.00  0.00     0.048 A 
HETATM   31  C   UNK N   1      36.456  10.799  16.176  0.00  0.00     0.016 A 
HETATM   32  C   UNK N   1      36.755   9.727  15.334  0.00  0.00     0.002 A 
HETATM   33  C   UNK N   1      36.128   9.626  14.092  0.00  0.00     0.017 A 
BRANCH  30  34
HETATM   34  C   UNK N   1      35.241  12.960  16.640  0.00  0.00     0.417 C 
HETATM   35  F   UNK N   1      36.190  13.929  16.382  0.00  0.00    -0.166 F 
HETATM   36  F   UNK N   1      35.311  12.596  17.973  0.00  0.00    -0.166 F 
HETATM   37  F   UNK N   1      33.981  13.478  16.391  0.00  0.00    -0.166 F 
ENDBRANCH  30  34
ENDBRANCH  25  28
ENDBRANCH  23  24
ENDBRANCH   1  23
TORSDOF 8
ENDMDL
MODEL 7
REMARK VINA RESULT:      -7.5      4.796     10.362
REMARK  8 active torsions:
REMARK  status: ('A' for Active; 'I' for Inactive)
REMARK    1  A    between atoms: C_3  and  C_31 
REMARK    2  A    between atoms: C_5  and  C_7 
REMARK       I    between atoms: C_7  and  N_9 
REMARK    3  A    between atoms: N_9  and  C_10 
REMARK    4  A    between atoms: C_10  and  C_11 
REMARK       I    between atoms: C_11  and  N_13 
REMARK    5  A    between atoms: N_13  and  C_14 
REMARK    6  A    between atoms: C_18  and  N_16 
REMARK    7  A    between atoms: C_21  and  O_24 
REMARK    8  A    between atoms: C_21  and  C_25 
ROOT
HETATM    1  C   UNK N   1      33.923  14.308   9.529  0.00  0.00     0.235 C 
HETATM    2  O   UNK N   1      33.554  13.171   9.281  0.00  0.00    -0.272 OA
HETATM    3  N   UNK N   1      33.635  15.294   8.635  0.00  0.00    -0.352 N 
HETATM    4  H   UNK N   1      33.174  15.029   7.807  0.00  0.00     0.163 HD
ENDROOT
BRANCH   3   5
HETATM    5  C   UNK N   1      33.946  16.699   8.797  0.00  0.00     0.141 C 
HETATM    6  C   UNK N   1      34.396  17.240   7.459  0.00  0.00     0.299 C 
HETATM    7  N   UNK N   1      33.121  17.902   7.191  0.00  0.00     0.097 N 
HETATM    8  C   UNK N   1      32.708  17.528   8.538  0.00  0.00     0.299 C 
BRANCH   7   9
HETATM    9  C   UNK N   1      32.418  17.053   6.226  0.00  0.00     0.223 C 
HETATM   10  C   UNK N   1      32.740  17.484   4.791  0.00  0.00     0.039 C 
HETATM   11  C   UNK N   1      31.850  16.785   3.745  0.00  0.00     0.045 C 
HETATM   12  C   UNK N   1      31.100  15.565   4.307  0.00  0.00     0.093 C 
HETATM   13  C   UNK N   1      30.231  16.002   5.501  0.00  0.00     0.045 C 
HETATM   14  C   UNK N   1      30.901  17.025   6.432  0.00  0.00     0.039 C 
BRANCH  12  15
HETATM   15  O   UNK N   1      32.034  14.613   4.725  0.00  0.00    -0.384 OA
HETATM   16  H   UNK N   1      32.381  13.806   5.136  0.00  0.00     0.211 HD
ENDBRANCH  12  15
BRANCH  12  17
HETATM   17  C   UNK N   1      30.209  14.936   3.273  0.00  0.00     0.033 A 
HETATM   18  S   UNK N   1      30.231  13.378   2.720  0.00  0.00    -0.085 SA
HETATM   19  C   UNK N   1      28.988  13.497   1.636  0.00  0.00     0.138 A 
HETATM   20  N   UNK N   1      28.512  14.772   1.676  0.00  0.00    -0.368 N 
HETATM   21  C   UNK N   1      29.178  15.579   2.575  0.00  0.00     0.105 A 
ATOM     22  HN  UNK N   1      27.739  15.099   1.097  1.00  0.00     0.165 HD
ENDBRANCH  12  17
ENDBRANCH   7   9
ENDBRANCH   3   5
BRANCH   1  23
HETATM   23  C   UNK N   1      34.625  14.547  10.844  0.00  0.00     0.225 C 
BRANCH  23  24
HETATM   24  N   UNK N   1      35.989  14.065  10.885  0.00  0.00    -0.348 N 
HETATM   25  C   UNK N   1      36.424  13.110  11.744  0.00  0.00     0.252 C 
HETATM   26  O   UNK N   1      37.569  12.690  11.622  0.00  0.00    -0.268 OA
HETATM   27  H   UNK N   1      36.637  14.452  10.255  0.00  0.00     0.163 HD
BRANCH  25  28
HETATM   28  C   UNK N   1      35.535  12.486  12.758  0.00  0.00     0.032 A 
HETATM   29  C   UNK N   1      35.504  13.012  14.053  0.00  0.00     0.033 A 
HETATM   30  C   UNK N   1      34.773  12.374  15.063  0.00  0.00     0.048 A 
HETATM   31  C   UNK N   1      34.021  11.232  14.758  0.00  0.00     0.016 A 
HETATM   32  C   UNK N   1      34.013  10.723  13.459  0.00  0.00     0.002 A 
HETATM   33  C   UNK N   1      34.788  11.332  12.471  0.00  0.00     0.017 A 
BRANCH  30  34
HETATM   34  C   UNK N   1      34.872  12.875  16.472  0.00  0.00     0.417 C 
HETATM   35  F   UNK N   1      34.869  11.811  17.352  0.00  0.00    -0.166 F 
HETATM   36  F   UNK N   1      33.783  13.687  16.735  0.00  0.00    -0.166 F 
HETATM   37  F   UNK N   1      36.027  13.615  16.655  0.00  0.00    -0.166 F 
ENDBRANCH  30  34
ENDBRANCH  25  28
ENDBRANCH  23  24
ENDBRANCH   1  23
TORSDOF 8
ENDMDL
MODEL 8
REMARK VINA RESULT:      -7.4      4.271      9.271
REMARK  8 active torsions:
REMARK  status: ('A' for Active; 'I' for Inactive)
REMARK    1  A    between atoms: C_3  and  C_31 
REMARK    2  A    between atoms: C_5  and  C_7 
REMARK       I    between atoms: C_7  and  N_9 
REMARK    3  A    between atoms: N_9  and  C_10 
REMARK    4  A    between atoms: C_10  and  C_11 
REMARK       I    between atoms: C_11  and  N_13 
REMARK    5  A    between atoms: N_13  and  C_14 
REMARK    6  A    between atoms: C_18  and  N_16 
REMARK    7  A    between atoms: C_21  and  O_24 
REMARK    8  A    between atoms: C_21  and  C_25 
ROOT
HETATM    1  C   UNK N   1      35.204  13.678  11.502  0.00  0.00     0.235 C 
HETATM    2  O   UNK N   1      34.710  14.274  12.446  0.00  0.00    -0.272 OA
HETATM    3  N   UNK N   1      35.402  14.356  10.338  0.00  0.00    -0.352 N 
HETATM    4  H   UNK N   1      35.095  15.290  10.304  0.00  0.00     0.163 HD
ENDROOT
BRANCH   3   5
HETATM    5  C   UNK N   1      36.026  13.822   9.144  0.00  0.00     0.141 C 
HETATM    6  C   UNK N   1      34.947  13.209   8.281  0.00  0.00     0.299 C 
HETATM    7  N   UNK N   1      34.919  14.336   7.351  0.00  0.00     0.097 N 
HETATM    8  C   UNK N   1      36.063  14.885   8.070  0.00  0.00     0.299 C 
BRANCH   7   9
HETATM    9  C   UNK N   1      33.726  15.116   7.693  0.00  0.00     0.223 C 
HETATM   10  C   UNK N   1      32.491  14.553   6.981  0.00  0.00     0.039 C 
HETATM   11  C   UNK N   1      31.258  15.469   7.114  0.00  0.00     0.045 C 
HETATM   12  C   UNK N   1      31.415  16.539   8.207  0.00  0.00     0.093 C 
HETATM   13  C   UNK N   1      32.656  17.400   7.908  0.00  0.00     0.045 C 
HETATM   14  C   UNK N   1      33.866  16.610   7.388  0.00  0.00     0.039 C 
BRANCH  12  15
HETATM   15  O   UNK N   1      31.566  15.905   9.444  0.00  0.00    -0.384 OA
HETATM   16  H   UNK N   1      31.799  15.788  10.378  0.00  0.00     0.211 HD
ENDBRANCH  12  15
BRANCH  12  17
HETATM   17  C   UNK N   1      30.214  17.441   8.278  0.00  0.00     0.033 A 
HETATM   18  S   UNK N   1      29.075  17.715   7.111  0.00  0.00    -0.085 SA
HETATM   19  C   UNK N   1      28.139  18.793   7.947  0.00  0.00     0.138 A 
HETATM   20  N   UNK N   1      28.695  18.970   9.177  0.00  0.00    -0.368 N 
HETATM   21  C   UNK N   1      29.843  18.231   9.373  0.00  0.00     0.105 A 
ATOM     22  HN  UNK N   1      28.302  19.590   9.884  1.00  0.00     0.165 HD
ENDBRANCH  12  17
ENDBRANCH   7   9
ENDBRANCH   3   5
BRANCH   1  23
HETATM   23  C   UNK N   1      35.617  12.242  11.717  0.00  0.00     0.225 C 
BRANCH  23  24
HETATM   24  N   UNK N   1      34.570  11.278  11.457  0.00  0.00    -0.348 N 
HETATM   25  C   UNK N   1      34.085  10.422  12.391  0.00  0.00     0.252 C 
HETATM   26  O   UNK N   1      33.120   9.725  12.101  0.00  0.00    -0.268 OA
HETATM   27  H   UNK N   1      34.187  11.241  10.551  0.00  0.00     0.163 HD
BRANCH  25  28
HETATM   28  C   UNK N   1      34.616  10.373  13.777  0.00  0.00     0.032 A 
HETATM   29  C   UNK N   1      34.439  11.478  14.615  0.00  0.00     0.033 A 
HETATM   30  C   UNK N   1      35.032  11.514  15.883  0.00  0.00     0.048 A 
HETATM   31  C   UNK N   1      35.764  10.407  16.336  0.00  0.00     0.016 A 
HETATM   32  C   UNK N   1      35.913   9.283  15.523  0.00  0.00     0.002 A 
HETATM   33  C   UNK N   1      35.365   9.278  14.241  0.00  0.00     0.017 A 
BRANCH  30  34
HETATM   34  C   UNK N   1      34.946  12.765  16.701  0.00  0.00     0.417 C 
HETATM   35  F   UNK N   1      33.811  13.474  16.362  0.00  0.00    -0.166 F 
HETATM   36  F   UNK N   1      36.062  13.543  16.447  0.00  0.00    -0.166 F 
HETATM   37  F   UNK N   1      34.913  12.472  18.054  0.00  0.00    -0.166 F 
ENDBRANCH  30  34
ENDBRANCH  25  28
ENDBRANCH  23  24
ENDBRANCH   1  23
TORSDOF 8
ENDMDL
MODEL 9
REMARK VINA RESULT:      -7.3      4.835      9.507
REMARK  8 active torsions:
REMARK  status: ('A' for Active; 'I' for Inactive)
REMARK    1  A    between atoms: C_3  and  C_31 
REMARK    2  A    between atoms: C_5  and  C_7 
REMARK       I    between atoms: C_7  and  N_9 
REMARK    3  A    between atoms: N_9  and  C_10 
REMARK    4  A    between atoms: C_10  and  C_11 
REMARK       I    between atoms: C_11  and  N_13 
REMARK    5  A    between atoms: N_13  and  C_14 
REMARK    6  A    between atoms: C_18  and  N_16 
REMARK    7  A    between atoms: C_21  and  O_24 
REMARK    8  A    between atoms: C_21  and  C_25 
ROOT
HETATM    1  C   UNK N   1      35.356  16.194   9.972  0.00  0.00     0.235 C 
HETATM    2  O   UNK N   1      34.917  17.182  10.539  0.00  0.00    -0.272 OA
HETATM    3  N   UNK N   1      34.922  15.922   8.711  0.00  0.00    -0.352 N 
HETATM    4  H   UNK N   1      34.237  16.519   8.333  0.00  0.00     0.163 HD
ENDROOT
BRANCH   3   5
HETATM    5  C   UNK N   1      35.381  14.831   7.876  0.00  0.00     0.141 C 
HETATM    6  C   UNK N   1      34.225  13.878   7.667  0.00  0.00     0.299 C 
HETATM    7  N   UNK N   1      33.956  14.353   6.312  0.00  0.00     0.097 N 
HETATM    8  C   UNK N   1      35.156  15.174   6.421  0.00  0.00     0.299 C 
BRANCH   7   9
HETATM    9  C   UNK N   1      32.778  15.219   6.411  0.00  0.00     0.223 C 
HETATM   10  C   UNK N   1      31.504  14.441   6.066  0.00  0.00     0.039 C 
HETATM   11  C   UNK N   1      30.269  15.353   5.923  0.00  0.00     0.045 C 
HETATM   12  C   UNK N   1      30.488  16.762   6.500  0.00  0.00     0.093 C 
HETATM   13  C   UNK N   1      31.690  17.423   5.801  0.00  0.00     0.045 C 
HETATM   14  C   UNK N   1      32.871  16.476   5.540  0.00  0.00     0.039 C 
BRANCH  12  15
HETATM   15  O   UNK N   1      30.739  16.655   7.872  0.00  0.00    -0.384 OA
HETATM   16  H   UNK N   1      31.117  16.861   8.741  0.00  0.00     0.211 HD
ENDBRANCH  12  15
BRANCH  12  17
HETATM   17  C   UNK N   1      29.282  17.636   6.304  0.00  0.00     0.033 A 
HETATM   18  S   UNK N   1      28.591  18.116   4.880  0.00  0.00    -0.085 SA
HETATM   19  C   UNK N   1      27.363  19.026   5.511  0.00  0.00     0.138 A 
HETATM   20  N   UNK N   1      27.456  18.979   6.868  0.00  0.00    -0.368 N 
HETATM   21  C   UNK N   1      28.512  18.216   7.320  0.00  0.00     0.105 A 
ATOM     22  HN  UNK N   1      26.808  19.462   7.490  1.00  0.00     0.165 HD
ENDBRANCH  12  17
ENDBRANCH   7   9
ENDBRANCH   3   5
BRANCH   1  23
HETATM   23  C   UNK N   1      36.400  15.377  10.695  0.00  0.00     0.225 C 
BRANCH  23  24
HETATM   24  N   UNK N   1      36.343  15.483  12.137  0.00  0.00    -0.348 N 
HETATM   25  C   UNK N   1      36.335  14.413  12.970  0.00  0.00     0.252 C 
HETATM   26  O   UNK N   1      36.401  14.611  14.178  0.00  0.00    -0.268 OA
HETATM   27  H   UNK N   1      36.308  16.382  12.536  0.00  0.00     0.163 HD
BRANCH  25  28
HETATM   28  C   UNK N   1      36.350  13.015  12.470  0.00  0.00     0.032 A 
HETATM   29  C   UNK N   1      35.201  12.229  12.605  0.00  0.00     0.033 A 
HETATM   30  C   UNK N   1      35.220  10.873  12.258  0.00  0.00     0.048 A 
HETATM   31  C   UNK N   1      36.385  10.313  11.717  0.00  0.00     0.016 A 
HETATM   32  C   UNK N   1      37.525  11.098  11.540  0.00  0.00     0.002 A 
HETATM   33  C   UNK N   1      37.515  12.435  11.939  0.00  0.00     0.017 A 
BRANCH  30  34
HETATM   34  C   UNK N   1      34.021  10.022  12.546  0.00  0.00     0.417 C 
HETATM   35  F   UNK N   1      33.378  10.481  13.679  0.00  0.00    -0.166 F 
HETATM   36  F   UNK N   1      34.438   8.719  12.755  0.00  0.00    -0.166 F 
HETATM   37  F   UNK N   1      33.135  10.035  11.483  0.00  0.00    -0.166 F 
ENDBRANCH  30  34
ENDBRANCH  25  28
ENDBRANCH  23  24
ENDBRANCH   1  23
TORSDOF 8
ENDMDL
