MODEL 1
REMARK VINA RESULT:      -7.3      0.000      0.000
REMARK  9 active torsions:
REMARK  status: ('A' for Active; 'I' for Inactive)
REMARK    1  A    between atoms: O_2  and  C_3 
REMARK    2  A    between atoms: C_5  and  C_21 
REMARK    3  A    between atoms: C_8  and  O_9 
REMARK    4  A    between atoms: O_9  and  C_10 
REMARK    5  A    between atoms: C_14  and  C_18 
REMARK       I    between atoms: C_18  and  N_20 
REMARK    6  A    between atoms: C_21  and  N_22 
REMARK    7  A    between atoms: N_22  and  C_23 
REMARK    8  A    between atoms: C_23  and  C_24 
REMARK    9  A    between atoms: C_24  and  C_25 
ROOT
HETATM    1  C   UNK N   1      31.927  17.585   7.781  0.00  0.00     0.102 A 
HETATM    2  C   UNK N   1      31.292  17.216   6.591  0.00  0.00     0.048 A 
HETATM    3  C   UNK N   1      32.032  16.879   5.448  0.00  0.00    -0.038 A 
HETATM    4  C   UNK N   1      33.415  16.929   5.476  0.00  0.00     0.012 A 
HETATM    5  C   UNK N   1      34.061  17.266   6.652  0.00  0.00     0.041 A 
HETATM    6  C   UNK N   1      33.346  17.567   7.829  0.00  0.00     0.111 A 
ENDROOT
BRANCH   6   7
HETATM    7  O   UNK N   1      34.025  17.812   8.987  0.00  0.00    -0.290 OA
BRANCH   7   8
HETATM    8  C   UNK N   1      34.474  16.826   9.814  0.00  0.00     0.163 A 
HETATM    9  C   UNK N   1      35.735  16.913  10.426  0.00  0.00     0.145 A 
HETATM   10  N   UNK N   1      36.135  15.968  11.303  0.00  0.00    -0.356 N 
HETATM   11  C   UNK N   1      35.340  14.909  11.598  0.00  0.00     0.116 A 
ATOM     12  HN  UNK N   1      37.049  16.052  11.750  1.00  0.00     0.165 HD
HETATM   13  C   UNK N   1      34.102  14.781  10.949  0.00  0.00     0.125 A 
HETATM   14  N   UNK N   1      33.696  15.739  10.068  0.00  0.00    -0.343 N 
ATOM     15  HN  UNK N   1      32.799  15.639   9.593  1.00  0.00     0.167 HD
BRANCH  11  16
HETATM   16  C   UNK N   1      35.782  13.944  12.616  0.00  0.00     0.267 C 
HETATM   17  O   UNK N   1      35.014  13.576  13.493  0.00  0.00    -0.266 OA
HETATM   18  N   UNK N   1      37.051  13.488  12.608  0.00  0.00    -0.365 N 
HETATM   19  H   UNK N   1      37.339  12.633  13.002  0.00  0.00     0.159 HD
HETATM   20  H   UNK N   1      37.736  14.049  12.179  0.00  0.00     0.159 HD
ENDBRANCH  11  16
ENDBRANCH   7   8
ENDBRANCH   6   7
BRANCH   1  21
HETATM   21  O   UNK N   1      31.140  17.918   8.837  0.00  0.00    -0.353 OA
HETATM   22  C   UNK N   1      30.077  17.176   9.296  0.00  0.00     0.210 C 
ENDBRANCH   1  21
BRANCH   3  23
HETATM   23  C   UNK N   1      31.356  16.435   4.201  0.00  0.00     0.152 C 
BRANCH  23  24
HETATM   24  N   UNK N   1      30.421  17.446   3.749  0.00  0.00    -0.417 N 
HETATM   25  H   UNK N   1      30.620  18.421   3.525  0.00  0.00     0.153 HD
BRANCH  24  26
HETATM   26  C   UNK N   1      29.139  16.766   3.688  0.00  0.00     0.114 C 
BRANCH  26  27
HETATM   27  C   UNK N   1      27.985  17.743   3.828  0.00  0.00     0.024 C 
BRANCH  27  28
HETATM   28  C   UNK N   1      28.213  18.837   4.868  0.00  0.00    -0.009 C 
HETATM   29  C   UNK N   1      27.855  18.269   6.239  0.00  0.00     0.031 C 
HETATM   30  C   UNK N   1      27.934  19.388   7.277  0.00  0.00     0.168 C 
HETATM   31  O   UNK N   1      27.045  20.423   6.935  0.00  0.00    -0.391 OA
HETATM   32  C   UNK N   1      27.579  21.047   5.794  0.00  0.00     0.168 C 
HETATM   33  C   UNK N   1      27.409  20.116   4.601  0.00  0.00     0.031 C 
ENDBRANCH  27  28
ENDBRANCH  26  27
ENDBRANCH  24  26
ENDBRANCH  23  24
ENDBRANCH   3  23
TORSDOF 9
ENDMDL
MODEL 2
REMARK VINA RESULT:      -7.0      2.199      3.179
REMARK  9 active torsions:
REMARK  status: ('A' for Active; 'I' for Inactive)
REMARK    1  A    between atoms: O_2  and  C_3 
REMARK    2  A    between atoms: C_5  and  C_21 
REMARK    3  A    between atoms: C_8  and  O_9 
REMARK    4  A    between atoms: O_9  and  C_10 
REMARK    5  A    between atoms: C_14  and  C_18 
REMARK       I    between atoms: C_18  and  N_20 
REMARK    6  A    between atoms: C_21  and  N_22 
REMARK    7  A    between atoms: N_22  and  C_23 
REMARK    8  A    between atoms: C_23  and  C_24 
REMARK    9  A    between atoms: C_24  and  C_25 
ROOT
HETATM    1  C   UNK N   1      31.580  16.956   6.604  0.00  0.00     0.102 A 
HETATM    2  C   UNK N   1      30.240  17.172   6.265  0.00  0.00     0.048 A 
HETATM    3  C   UNK N   1      29.360  17.806   7.155  0.00  0.00    -0.038 A 
HETATM    4  C   UNK N   1      29.805  18.210   8.402  0.00  0.00     0.012 A 
HETATM    5  C   UNK N   1      31.133  18.029   8.744  0.00  0.00     0.041 A 
HETATM    6  C   UNK N   1      32.051  17.436   7.854  0.00  0.00     0.111 A 
ENDROOT
BRANCH   6   7
HETATM    7  O   UNK N   1      33.369  17.353   8.200  0.00  0.00    -0.290 OA
BRANCH   7   8
HETATM    8  C   UNK N   1      33.820  16.616   9.254  0.00  0.00     0.163 A 
HETATM    9  C   UNK N   1      33.336  15.319   9.490  0.00  0.00     0.145 A 
HETATM   10  N   UNK N   1      33.847  14.571  10.491  0.00  0.00    -0.356 N 
HETATM   11  C   UNK N   1      34.821  15.060  11.300  0.00  0.00     0.116 A 
ATOM     12  HN  UNK N   1      33.494  13.625  10.642  1.00  0.00     0.165 HD
HETATM   13  C   UNK N   1      35.271  16.375  11.110  0.00  0.00     0.125 A 
HETATM   14  N   UNK N   1      34.760  17.128  10.095  0.00  0.00    -0.343 N 
ATOM     15  HN  UNK N   1      35.085  18.086   9.965  1.00  0.00     0.167 HD
BRANCH  11  16
HETATM   16  C   UNK N   1      35.403  14.184  12.329  0.00  0.00     0.267 C 
HETATM   17  O   UNK N   1      34.679  13.501  13.039  0.00  0.00    -0.266 OA
HETATM   18  N   UNK N   1      36.737  14.159  12.518  0.00  0.00    -0.365 N 
HETATM   19  H   UNK N   1      37.231  13.404  12.912  0.00  0.00     0.159 HD
HETATM   20  H   UNK N   1      37.254  14.951  12.244  0.00  0.00     0.159 HD
ENDBRANCH  11  16
ENDBRANCH   7   8
ENDBRANCH   6   7
BRANCH   1  21
HETATM   21  O   UNK N   1      32.362  16.317   5.696  0.00  0.00    -0.353 OA
HETATM   22  C   UNK N   1      32.656  14.973   5.710  0.00  0.00     0.210 C 
ENDBRANCH   1  21
BRANCH   3  23
HETATM   23  C   UNK N   1      27.951  18.082   6.773  0.00  0.00     0.152 C 
BRANCH  23  24
HETATM   24  N   UNK N   1      27.146  16.886   6.924  0.00  0.00    -0.417 N 
HETATM   25  H   UNK N   1      27.083  16.278   7.741  0.00  0.00     0.153 HD
BRANCH  24  26
HETATM   26  C   UNK N   1      26.448  16.745   5.658  0.00  0.00     0.114 C 
BRANCH  26  27
HETATM   27  C   UNK N   1      26.893  17.798   4.660  0.00  0.00     0.024 C 
BRANCH  27  28
HETATM   28  C   UNK N   1      25.758  18.394   3.829  0.00  0.00    -0.009 C 
HETATM   29  C   UNK N   1      26.166  19.804   3.413  0.00  0.00     0.031 C 
HETATM   30  C   UNK N   1      24.987  20.475   2.706  0.00  0.00     0.168 C 
HETATM   31  O   UNK N   1      23.878  20.527   3.569  0.00  0.00    -0.391 OA
HETATM   32  C   UNK N   1      23.419  19.205   3.709  0.00  0.00     0.168 C 
HETATM   33  C   UNK N   1      24.412  18.430   4.564  0.00  0.00     0.031 C 
ENDBRANCH  27  28
ENDBRANCH  26  27
ENDBRANCH  24  26
ENDBRANCH  23  24
ENDBRANCH   3  23
TORSDOF 9
ENDMDL
MODEL 3
REMARK VINA RESULT:      -6.7      4.191      9.926
REMARK  9 active torsions:
REMARK  status: ('A' for Active; 'I' for Inactive)
REMARK    1  A    between atoms: O_2  and  C_3 
REMARK    2  A    between atoms: C_5  and  C_21 
REMARK    3  A    between atoms: C_8  and  O_9 
REMARK    4  A    between atoms: O_9  and  C_10 
REMARK    5  A    between atoms: C_14  and  C_18 
REMARK       I    between atoms: C_18  and  N_20 
REMARK    6  A    between atoms: C_21  and  N_22 
REMARK    7  A    between atoms: N_22  and  C_23 
REMARK    8  A    between atoms: C_23  and  C_24 
REMARK    9  A    between atoms: C_24  and  C_25 
ROOT
HETATM    1  C   UNK N   1      27.555  19.407   6.396  0.00  0.00     0.102 A 
HETATM    2  C   UNK N   1      28.310  19.426   7.574  0.00  0.00     0.048 A 
HETATM    3  C   UNK N   1      28.611  18.242   8.263  0.00  0.00    -0.038 A 
HETATM    4  C   UNK N   1      28.142  17.027   7.794  0.00  0.00     0.012 A 
HETATM    5  C   UNK N   1      27.416  16.985   6.617  0.00  0.00     0.041 A 
HETATM    6  C   UNK N   1      27.136  18.154   5.879  0.00  0.00     0.111 A 
ENDROOT
BRANCH   6   7
HETATM    7  O   UNK N   1      26.489  18.056   4.681  0.00  0.00    -0.290 OA
BRANCH   7   8
HETATM    8  C   UNK N   1      25.189  18.424   4.501  0.00  0.00     0.163 A 
HETATM    9  C   UNK N   1      24.846  19.464   3.622  0.00  0.00     0.145 A 
HETATM   10  N   UNK N   1      23.550  19.767   3.394  0.00  0.00    -0.356 N 
HETATM   11  C   UNK N   1      22.555  19.089   4.020  0.00  0.00     0.116 A 
ATOM     12  HN  UNK N   1      23.317  20.517   2.742  1.00  0.00     0.165 HD
HETATM   13  C   UNK N   1      22.887  18.087   4.944  0.00  0.00     0.125 A 
HETATM   14  N   UNK N   1      24.195  17.777   5.169  0.00  0.00    -0.343 N 
ATOM     15  HN  UNK N   1      24.432  17.053   5.847  1.00  0.00     0.167 HD
BRANCH  11  16
HETATM   16  C   UNK N   1      21.157  19.400   3.685  0.00  0.00     0.267 C 
HETATM   17  O   UNK N   1      20.786  20.561   3.601  0.00  0.00    -0.266 OA
HETATM   18  N   UNK N   1      20.268  18.403   3.504  0.00  0.00    -0.365 N 
HETATM   19  H   UNK N   1      19.446  18.478   2.969  0.00  0.00     0.159 HD
HETATM   20  H   UNK N   1      20.455  17.539   3.937  0.00  0.00     0.159 HD
ENDBRANCH  11  16
ENDBRANCH   7   8
ENDBRANCH   6   7
BRANCH   1  21
HETATM   21  O   UNK N   1      27.289  20.598   5.801  0.00  0.00    -0.353 OA
HETATM   22  C   UNK N   1      26.795  21.711   6.441  0.00  0.00     0.210 C 
ENDBRANCH   1  21
BRANCH   3  23
HETATM   23  C   UNK N   1      29.458  18.260   9.484  0.00  0.00     0.152 C 
BRANCH  23  24
HETATM   24  N   UNK N   1      30.496  17.254   9.390  0.00  0.00    -0.417 N 
HETATM   25  H   UNK N   1      30.485  16.310   9.777  0.00  0.00     0.153 HD
BRANCH  24  26
HETATM   26  C   UNK N   1      31.557  17.885   8.624  0.00  0.00     0.114 C 
BRANCH  26  27
HETATM   27  C   UNK N   1      32.161  16.924   7.616  0.00  0.00     0.024 C 
BRANCH  27  28
HETATM   28  C   UNK N   1      31.687  17.143   6.181  0.00  0.00    -0.009 C 
HETATM   29  C   UNK N   1      30.925  15.896   5.739  0.00  0.00     0.031 C 
HETATM   30  C   UNK N   1      30.568  16.030   4.258  0.00  0.00     0.168 C 
HETATM   31  O   UNK N   1      31.740  16.177   3.494  0.00  0.00    -0.391 OA
HETATM   32  C   UNK N   1      32.250  17.454   3.787  0.00  0.00     0.168 C 
HETATM   33  C   UNK N   1      32.826  17.441   5.197  0.00  0.00     0.031 C 
ENDBRANCH  27  28
ENDBRANCH  26  27
ENDBRANCH  24  26
ENDBRANCH  23  24
ENDBRANCH   3  23
TORSDOF 9
ENDMDL
MODEL 4
REMARK VINA RESULT:      -6.6      8.221     13.436
REMARK  9 active torsions:
REMARK  status: ('A' for Active; 'I' for Inactive)
REMARK    1  A    between atoms: O_2  and  C_3 
REMARK    2  A    between atoms: C_5  and  C_21 
REMARK    3  A    between atoms: C_8  and  O_9 
REMARK    4  A    between atoms: O_9  and  C_10 
REMARK    5  A    between atoms: C_14  and  C_18 
REMARK       I    between atoms: C_18  and  N_20 
REMARK    6  A    between atoms: C_21  and  N_22 
REMARK    7  A    between atoms: N_22  and  C_23 
REMARK    8  A    between atoms: C_23  and  C_24 
REMARK    9  A    between atoms: C_24  and  C_25 
ROOT
HETATM    1  C   UNK N   1      34.850  10.944  16.090  0.00  0.00     0.102 A 
HETATM    2  C   UNK N   1      35.201  10.332  17.299  0.00  0.00     0.048 A 
HETATM    3  C   UNK N   1      35.433  11.090  18.456  0.00  0.00    -0.038 A 
HETATM    4  C   UNK N   1      35.340  12.470  18.412  0.00  0.00     0.012 A 
HETATM    5  C   UNK N   1      34.969  13.092  17.233  0.00  0.00     0.041 A 
HETATM    6  C   UNK N   1      34.686  12.354  16.065  0.00  0.00     0.111 A 
ENDROOT
BRANCH   6   7
HETATM    7  O   UNK N   1      34.243  13.002  14.948  0.00  0.00    -0.290 OA
BRANCH   7   8
HETATM    8  C   UNK N   1      35.009  13.181  13.835  0.00  0.00     0.163 A 
HETATM    9  C   UNK N   1      36.054  14.119  13.820  0.00  0.00     0.145 A 
HETATM   10  N   UNK N   1      36.855  14.232  12.739  0.00  0.00    -0.356 N 
HETATM   11  C   UNK N   1      36.657  13.458  11.641  0.00  0.00     0.116 A 
ATOM     12  HN  UNK N   1      37.618  14.909  12.747  1.00  0.00     0.165 HD
HETATM   13  C   UNK N   1      35.580  12.559  11.623  0.00  0.00     0.125 A 
HETATM   14  N   UNK N   1      34.776  12.441  12.717  0.00  0.00    -0.343 N 
ATOM     15  HN  UNK N   1      33.990  11.791  12.698  1.00  0.00     0.167 HD
BRANCH  11  16
HETATM   16  C   UNK N   1      37.599  13.560  10.516  0.00  0.00     0.267 C 
HETATM   17  O   UNK N   1      37.207  13.910   9.412  0.00  0.00    -0.266 OA
HETATM   18  N   UNK N   1      38.895  13.231  10.688  0.00  0.00    -0.365 N 
HETATM   19  H   UNK N   1      39.635  13.571  10.136  0.00  0.00     0.159 HD
HETATM   20  H   UNK N   1      39.116  12.608  11.417  0.00  0.00     0.159 HD
ENDBRANCH  11  16
ENDBRANCH   7   8
ENDBRANCH   6   7
BRANCH   1  21
HETATM   21  O   UNK N   1      34.663  10.142  15.010  0.00  0.00    -0.353 OA
HETATM   22  C   UNK N   1      35.599   9.276  14.495  0.00  0.00     0.210 C 
ENDBRANCH   1  21
BRANCH   3  23
HETATM   23  C   UNK N   1      35.753  10.434  19.750  0.00  0.00     0.152 C 
BRANCH  23  24
HETATM   24  N   UNK N   1      34.998  11.048  20.824  0.00  0.00    -0.417 N 
HETATM   25  H   UNK N   1      35.213  11.914  21.319  0.00  0.00     0.153 HD
BRANCH  24  26
HETATM   26  C   UNK N   1      33.870  10.158  21.041  0.00  0.00     0.114 C 
BRANCH  26  27
HETATM   27  C   UNK N   1      34.192   8.739  20.609  0.00  0.00     0.024 C 
BRANCH  27  28
HETATM   28  C   UNK N   1      33.003   7.977  20.028  0.00  0.00    -0.009 C 
HETATM   29  C   UNK N   1      31.724   8.636  20.537  0.00  0.00     0.031 C 
HETATM   30  C   UNK N   1      30.523   7.802  20.089  0.00  0.00     0.168 C 
HETATM   31  O   UNK N   1      30.629   6.496  20.599  0.00  0.00    -0.391 OA
HETATM   32  C   UNK N   1      31.685   5.881  19.903  0.00  0.00     0.168 C 
HETATM   33  C   UNK N   1      33.001   6.483  20.378  0.00  0.00     0.031 C 
ENDBRANCH  27  28
ENDBRANCH  26  27
ENDBRANCH  24  26
ENDBRANCH  23  24
ENDBRANCH   3  23
TORSDOF 9
ENDMDL
MODEL 5
REMARK VINA RESULT:      -6.6      1.187      2.156
REMARK  9 active torsions:
REMARK  status: ('A' for Active; 'I' for Inactive)
REMARK    1  A    between atoms: O_2  and  C_3 
REMARK    2  A    between atoms: C_5  and  C_21 
REMARK    3  A    between atoms: C_8  and  O_9 
REMARK    4  A    between atoms: O_9  and  C_10 
REMARK    5  A    between atoms: C_14  and  C_18 
REMARK       I    between atoms: C_18  and  N_20 
REMARK    6  A    between atoms: C_21  and  N_22 
REMARK    7  A    between atoms: N_22  and  C_23 
REMARK    8  A    between atoms: C_23  and  C_24 
REMARK    9  A    between atoms: C_24  and  C_25 
ROOT
HETATM    1  C   UNK N   1      33.509  16.550   6.911  0.00  0.00     0.102 A 
HETATM    2  C   UNK N   1      32.606  16.265   5.881  0.00  0.00     0.048 A 
HETATM    3  C   UNK N   1      31.223  16.402   6.069  0.00  0.00    -0.038 A 
HETATM    4  C   UNK N   1      30.725  16.804   7.297  0.00  0.00     0.012 A 
HETATM    5  C   UNK N   1      31.604  17.116   8.319  0.00  0.00     0.041 A 
HETATM    6  C   UNK N   1      33.000  17.030   8.146  0.00  0.00     0.111 A 
ENDROOT
BRANCH   6   7
HETATM    7  O   UNK N   1      33.831  17.426   9.155  0.00  0.00    -0.290 OA
BRANCH   7   8
HETATM    8  C   UNK N   1      34.468  16.553   9.985  0.00  0.00     0.163 A 
HETATM    9  C   UNK N   1      35.787  16.787  10.408  0.00  0.00     0.145 A 
HETATM   10  N   UNK N   1      36.379  15.956  11.291  0.00  0.00    -0.356 N 
HETATM   11  C   UNK N   1      35.723  14.871  11.775  0.00  0.00     0.116 A 
ATOM     12  HN  UNK N   1      37.333  16.147  11.599  1.00  0.00     0.165 HD
HETATM   13  C   UNK N   1      34.426  14.595  11.316  0.00  0.00     0.125 A 
HETATM   14  N   UNK N   1      33.826  15.438  10.429  0.00  0.00    -0.343 N 
ATOM     15  HN  UNK N   1      32.886  15.230  10.092  1.00  0.00     0.167 HD
BRANCH  11  16
HETATM   16  C   UNK N   1      36.377  14.035  12.794  0.00  0.00     0.267 C 
HETATM   17  O   UNK N   1      36.573  12.847  12.584  0.00  0.00    -0.266 OA
HETATM   18  N   UNK N   1      36.731  14.570  13.980  0.00  0.00    -0.365 N 
HETATM   19  H   UNK N   1      37.441  14.216  14.562  0.00  0.00     0.159 HD
HETATM   20  H   UNK N   1      36.244  15.369  14.285  0.00  0.00     0.159 HD
ENDBRANCH  11  16
ENDBRANCH   7   8
ENDBRANCH   6   7
BRANCH   1  21
HETATM   21  O   UNK N   1      34.831  16.371   6.656  0.00  0.00    -0.353 OA
HETATM   22  C   UNK N   1      35.425  15.167   6.359  0.00  0.00     0.210 C 
ENDBRANCH   1  21
BRANCH   3  23
HETATM   23  C   UNK N   1      30.270  16.151   4.957  0.00  0.00     0.152 C 
BRANCH  23  24
HETATM   24  N   UNK N   1      30.137  17.335   4.131  0.00  0.00    -0.417 N 
HETATM   25  H   UNK N   1      30.855  18.028   3.919  0.00  0.00     0.153 HD
BRANCH  24  26
HETATM   26  C   UNK N   1      28.758  17.317   3.675  0.00  0.00     0.114 C 
BRANCH  26  27
HETATM   27  C   UNK N   1      27.794  17.130   4.832  0.00  0.00     0.024 C 
BRANCH  27  28
HETATM   28  C   UNK N   1      27.151  18.424   5.326  0.00  0.00    -0.009 C 
HETATM   29  C   UNK N   1      27.124  19.414   4.165  0.00  0.00     0.031 C 
HETATM   30  C   UNK N   1      26.619  20.764   4.673  0.00  0.00     0.168 C 
HETATM   31  O   UNK N   1      27.464  21.238   5.693  0.00  0.00    -0.391 OA
HETATM   32  C   UNK N   1      27.248  20.409   6.808  0.00  0.00     0.168 C 
HETATM   33  C   UNK N   1      27.868  19.045   6.532  0.00  0.00     0.031 C 
ENDBRANCH  27  28
ENDBRANCH  26  27
ENDBRANCH  24  26
ENDBRANCH  23  24
ENDBRANCH   3  23
TORSDOF 9
ENDMDL
MODEL 6
REMARK VINA RESULT:      -6.6      4.156     10.554
REMARK  9 active torsions:
REMARK  status: ('A' for Active; 'I' for Inactive)
REMARK    1  A    between atoms: O_2  and  C_3 
REMARK    2  A    between atoms: C_5  and  C_21 
REMARK    3  A    between atoms: C_8  and  O_9 
REMARK    4  A    between atoms: O_9  and  C_10 
REMARK    5  A    between atoms: C_14  and  C_18 
REMARK       I    between atoms: C_18  and  N_20 
REMARK    6  A    between atoms: C_21  and  N_22 
REMARK    7  A    between atoms: N_22  and  C_23 
REMARK    8  A    between atoms: C_23  and  C_24 
REMARK    9  A    between atoms: C_24  and  C_25 
ROOT
HETATM    1  C   UNK N   1      27.535  18.370   4.975  0.00  0.00     0.102 A 
HETATM    2  C   UNK N   1      28.659  17.800   4.368  0.00  0.00     0.048 A 
HETATM    3  C   UNK N   1      28.538  16.704   3.501  0.00  0.00    -0.038 A 
HETATM    4  C   UNK N   1      27.294  16.151   3.249  0.00  0.00     0.012 A 
HETATM    5  C   UNK N   1      26.168  16.718   3.819  0.00  0.00     0.041 A 
HETATM    6  C   UNK N   1      26.253  17.847   4.660  0.00  0.00     0.111 A 
ENDROOT
BRANCH   6   7
HETATM    7  O   UNK N   1      25.110  18.423   5.133  0.00  0.00    -0.290 OA
BRANCH   7   8
HETATM    8  C   UNK N   1      24.108  18.870   4.325  0.00  0.00     0.163 A 
HETATM    9  C   UNK N   1      22.863  18.222   4.290  0.00  0.00     0.145 A 
HETATM   10  N   UNK N   1      21.854  18.719   3.544  0.00  0.00    -0.356 N 
HETATM   11  C   UNK N   1      22.025  19.842   2.801  0.00  0.00     0.116 A 
ATOM     12  HN  UNK N   1      20.951  18.244   3.539  1.00  0.00     0.165 HD
HETATM   13  C   UNK N   1      23.281  20.466   2.783  0.00  0.00     0.125 A 
HETATM   14  N   UNK N   1      24.298  19.966   3.541  0.00  0.00    -0.343 N 
ATOM     15  HN  UNK N   1      25.212  20.419   3.520  1.00  0.00     0.167 HD
BRANCH  11  16
HETATM   16  C   UNK N   1      20.877  20.393   2.064  0.00  0.00     0.267 C 
HETATM   17  O   UNK N   1      20.934  21.515   1.582  0.00  0.00    -0.266 OA
HETATM   18  N   UNK N   1      19.741  19.676   1.948  0.00  0.00    -0.365 N 
HETATM   19  H   UNK N   1      19.079  19.791   1.229  0.00  0.00     0.159 HD
HETATM   20  H   UNK N   1      19.562  18.990   2.631  0.00  0.00     0.159 HD
ENDBRANCH  11  16
ENDBRANCH   7   8
ENDBRANCH   6   7
BRANCH   1  21
HETATM   21  O   UNK N   1      27.738  19.415   5.818  0.00  0.00    -0.353 OA
HETATM   22  C   UNK N   1      27.597  20.742   5.482  0.00  0.00     0.210 C 
ENDBRANCH   1  21
BRANCH   3  23
HETATM   23  C   UNK N   1      29.727  16.134   2.816  0.00  0.00     0.152 C 
BRANCH  23  24
HETATM   24  N   UNK N   1      30.812  17.095   2.810  0.00  0.00    -0.417 N 
HETATM   25  H   UNK N   1      30.816  18.025   2.391  0.00  0.00     0.153 HD
BRANCH  24  26
HETATM   26  C   UNK N   1      31.890  16.443   3.532  0.00  0.00     0.114 C 
BRANCH  26  27
HETATM   27  C   UNK N   1      32.620  17.417   4.439  0.00  0.00     0.024 C 
BRANCH  27  28
HETATM   28  C   UNK N   1      32.767  16.939   5.882  0.00  0.00    -0.009 C 
HETATM   29  C   UNK N   1      31.410  17.073   6.566  0.00  0.00     0.031 C 
HETATM   30  C   UNK N   1      31.566  16.740   8.050  0.00  0.00     0.168 C 
HETATM   31  O   UNK N   1      32.494  17.615   8.642  0.00  0.00    -0.391 OA
HETATM   32  C   UNK N   1      33.756  17.263   8.132  0.00  0.00     0.168 C 
HETATM   33  C   UNK N   1      33.835  17.703   6.676  0.00  0.00     0.031 C 
ENDBRANCH  27  28
ENDBRANCH  26  27
ENDBRANCH  24  26
ENDBRANCH  23  24
ENDBRANCH   3  23
TORSDOF 9
ENDMDL
MODEL 7
REMARK VINA RESULT:      -6.6      4.397     10.978
REMARK  9 active torsions:
REMARK  status: ('A' for Active; 'I' for Inactive)
REMARK    1  A    between atoms: O_2  and  C_3 
REMARK    2  A    between atoms: C_5  and  C_21 
REMARK    3  A    between atoms: C_8  and  O_9 
REMARK    4  A    between atoms: O_9  and  C_10 
REMARK    5  A    between atoms: C_14  and  C_18 
REMARK       I    between atoms: C_18  and  N_20 
REMARK    6  A    between atoms: C_21  and  N_22 
REMARK    7  A    between atoms: N_22  and  C_23 
REMARK    8  A    between atoms: C_23  and  C_24 
REMARK    9  A    between atoms: C_24  and  C_25 
ROOT
HETATM    1  C   UNK N   1      35.293  12.586  12.239  0.00  0.00     0.102 A 
HETATM    2  C   UNK N   1      34.682  11.978  13.341  0.00  0.00     0.048 A 
HETATM    3  C   UNK N   1      34.922  12.434  14.646  0.00  0.00    -0.038 A 
HETATM    4  C   UNK N   1      35.793  13.488  14.865  0.00  0.00     0.012 A 
HETATM    5  C   UNK N   1      36.385  14.118  13.785  0.00  0.00     0.041 A 
HETATM    6  C   UNK N   1      36.129  13.711  12.459  0.00  0.00     0.111 A 
ENDROOT
BRANCH   6   7
HETATM    7  O   UNK N   1      36.669  14.414  11.421  0.00  0.00    -0.290 OA
BRANCH   7   8
HETATM    8  C   UNK N   1      35.931  15.195  10.583  0.00  0.00     0.163 A 
HETATM    9  C   UNK N   1      35.490  16.468  10.981  0.00  0.00     0.145 A 
HETATM   10  N   UNK N   1      34.827  17.263  10.116  0.00  0.00    -0.356 N 
HETATM   11  C   UNK N   1      34.556  16.846   8.853  0.00  0.00     0.116 A 
ATOM     12  HN  UNK N   1      34.524  18.191  10.415  1.00  0.00     0.165 HD
HETATM   13  C   UNK N   1      34.940  15.554   8.463  0.00  0.00     0.125 A 
HETATM   14  N   UNK N   1      35.616  14.754   9.335  0.00  0.00    -0.343 N 
ATOM     15  HN  UNK N   1      35.888  13.813   9.050  1.00  0.00     0.167 HD
BRANCH  11  16
HETATM   16  C   UNK N   1      33.899  17.773   7.918  0.00  0.00     0.267 C 
HETATM   17  O   UNK N   1      34.509  18.213   6.955  0.00  0.00    -0.266 OA
HETATM   18  N   UNK N   1      32.630  18.171   8.142  0.00  0.00    -0.365 N 
HETATM   19  H   UNK N   1      32.015  18.491   7.444  0.00  0.00     0.159 HD
HETATM   20  H   UNK N   1      32.297  18.139   9.068  0.00  0.00     0.159 HD
ENDBRANCH  11  16
ENDBRANCH   7   8
ENDBRANCH   6   7
BRANCH   1  21
HETATM   21  O   UNK N   1      35.025  12.072  11.010  0.00  0.00    -0.353 OA
HETATM   22  C   UNK N   1      34.274  10.945  10.769  0.00  0.00     0.210 C 
ENDBRANCH   1  21
BRANCH   3  23
HETATM   23  C   UNK N   1      34.231  11.822  15.811  0.00  0.00     0.152 C 
BRANCH  23  24
HETATM   24  N   UNK N   1      35.148  11.687  16.925  0.00  0.00    -0.417 N 
HETATM   25  H   UNK N   1      35.548  12.433  17.494  0.00  0.00     0.153 HD
BRANCH  24  26
HETATM   26  C   UNK N   1      35.371  10.257  17.052  0.00  0.00     0.114 C 
BRANCH  26  27
HETATM   27  C   UNK N   1      36.831   9.903  16.833  0.00  0.00     0.024 C 
BRANCH  27  28
HETATM   28  C   UNK N   1      37.118   9.225  15.496  0.00  0.00    -0.009 C 
HETATM   29  C   UNK N   1      37.832  10.231  14.598  0.00  0.00     0.031 C 
HETATM   30  C   UNK N   1      37.998   9.625  13.204  0.00  0.00     0.168 C 
HETATM   31  O   UNK N   1      36.738   9.306  12.667  0.00  0.00    -0.391 OA
HETATM   32  C   UNK N   1      36.255   8.211  13.404  0.00  0.00     0.168 C 
HETATM   33  C   UNK N   1      35.861   8.692  14.795  0.00  0.00     0.031 C 
ENDBRANCH  27  28
ENDBRANCH  26  27
ENDBRANCH  24  26
ENDBRANCH  23  24
ENDBRANCH   3  23
TORSDOF 9
ENDMDL
MODEL 8
REMARK VINA RESULT:      -6.4     14.815     18.198
REMARK  9 active torsions:
REMARK  status: ('A' for Active; 'I' for Inactive)
REMARK    1  A    between atoms: O_2  and  C_3 
REMARK    2  A    between atoms: C_5  and  C_21 
REMARK    3  A    between atoms: C_8  and  O_9 
REMARK    4  A    between atoms: O_9  and  C_10 
REMARK    5  A    between atoms: C_14  and  C_18 
REMARK       I    between atoms: C_18  and  N_20 
REMARK    6  A    between atoms: C_21  and  N_22 
REMARK    7  A    between atoms: N_22  and  C_23 
REMARK    8  A    between atoms: C_23  and  C_24 
REMARK    9  A    between atoms: C_24  and  C_25 
ROOT
HETATM    1  C   UNK N   1      26.280  25.274  -3.969  0.00  0.00     0.102 A 
HETATM    2  C   UNK N   1      26.495  26.549  -3.436  0.00  0.00     0.048 A 
HETATM    3  C   UNK N   1      26.031  27.698  -4.093  0.00  0.00    -0.038 A 
HETATM    4  C   UNK N   1      25.366  27.587  -5.302  0.00  0.00     0.012 A 
HETATM    5  C   UNK N   1      25.121  26.333  -5.832  0.00  0.00     0.041 A 
HETATM    6  C   UNK N   1      25.536  25.157  -5.173  0.00  0.00     0.111 A 
ENDROOT
BRANCH   6   7
HETATM    7  O   UNK N   1      25.200  23.939  -5.690  0.00  0.00    -0.290 OA
BRANCH   7   8
HETATM    8  C   UNK N   1      25.958  23.285  -6.614  0.00  0.00     0.163 A 
HETATM    9  C   UNK N   1      25.404  22.855  -7.831  0.00  0.00     0.145 A 
HETATM   10  N   UNK N   1      26.183  22.278  -8.770  0.00  0.00    -0.356 N 
HETATM   11  C   UNK N   1      27.509  22.084  -8.554  0.00  0.00     0.116 A 
ATOM     12  HN  UNK N   1      25.768  21.982  -9.655  1.00  0.00     0.165 HD
HETATM   13  C   UNK N   1      28.061  22.457  -7.320  0.00  0.00     0.125 A 
HETATM   14  N   UNK N   1      27.276  23.046  -6.374  0.00  0.00    -0.343 N 
ATOM     15  HN  UNK N   1      27.680  23.309  -5.475  1.00  0.00     0.167 HD
BRANCH  11  16
HETATM   16  C   UNK N   1      28.335  21.522  -9.633  0.00  0.00     0.267 C 
HETATM   17  O   UNK N   1      29.554  21.597  -9.581  0.00  0.00    -0.266 OA
HETATM   18  N   UNK N   1      27.749  20.953 -10.706  0.00  0.00    -0.365 N 
HETATM   19  H   UNK N   1      28.174  20.279 -11.282  0.00  0.00     0.159 HD
HETATM   20  H   UNK N   1      26.831  21.232 -10.928  0.00  0.00     0.159 HD
ENDBRANCH  11  16
ENDBRANCH   7   8
ENDBRANCH   6   7
BRANCH   1  21
HETATM   21  O   UNK N   1      26.778  24.213  -3.284  0.00  0.00    -0.353 OA
HETATM   22  C   UNK N   1      28.114  23.910  -3.155  0.00  0.00     0.210 C 
ENDBRANCH   1  21
BRANCH   3  23
HETATM   23  C   UNK N   1      26.214  29.048  -3.497  0.00  0.00     0.152 C 
BRANCH  23  24
HETATM   24  N   UNK N   1      26.586  30.003  -4.521  0.00  0.00    -0.417 N 
HETATM   25  H   UNK N   1      25.964  30.560  -5.108  0.00  0.00     0.153 HD
BRANCH  24  26
HETATM   26  C   UNK N   1      28.038  29.992  -4.530  0.00  0.00     0.114 C 
BRANCH  26  27
HETATM   27  C   UNK N   1      28.585  30.021  -5.945  0.00  0.00     0.024 C 
BRANCH  27  28
HETATM   28  C   UNK N   1      29.087  28.670  -6.451  0.00  0.00    -0.009 C 
HETATM   29  C   UNK N   1      28.045  28.108  -7.414  0.00  0.00     0.031 C 
HETATM   30  C   UNK N   1      28.456  26.692  -7.819  0.00  0.00     0.168 C 
HETATM   31  O   UNK N   1      28.550  25.875  -6.678  0.00  0.00    -0.391 OA
HETATM   32  C   UNK N   1      29.681  26.313  -5.967  0.00  0.00     0.168 C 
HETATM   33  C   UNK N   1      29.368  27.661  -5.330  0.00  0.00     0.031 C 
ENDBRANCH  27  28
ENDBRANCH  26  27
ENDBRANCH  24  26
ENDBRANCH  23  24
ENDBRANCH   3  23
TORSDOF 9
ENDMDL
MODEL 9
REMARK VINA RESULT:      -6.3      1.978      2.783
REMARK  9 active torsions:
REMARK  status: ('A' for Active; 'I' for Inactive)
REMARK    1  A    between atoms: O_2  and  C_3 
REMARK    2  A    between atoms: C_5  and  C_21 
REMARK    3  A    between atoms: C_8  and  O_9 
REMARK    4  A    between atoms: O_9  and  C_10 
REMARK    5  A    between atoms: C_14  and  C_18 
REMARK       I    between atoms: C_18  and  N_20 
REMARK    6  A    between atoms: C_21  and  N_22 
REMARK    7  A    between atoms: N_22  and  C_23 
REMARK    8  A    between atoms: C_23  and  C_24 
REMARK    9  A    between atoms: C_24  and  C_25 
ROOT
HETATM    1  C   UNK N   1      33.651  16.694   6.927  0.00  0.00     0.102 A 
HETATM    2  C   UNK N   1      32.466  17.219   6.400  0.00  0.00     0.048 A 
HETATM    3  C   UNK N   1      31.404  16.382   6.028  0.00  0.00    -0.038 A 
HETATM    4  C   UNK N   1      31.522  15.009   6.160  0.00  0.00     0.012 A 
HETATM    5  C   UNK N   1      32.676  14.474   6.704  0.00  0.00     0.041 A 
HETATM    6  C   UNK N   1      33.743  15.292   7.128  0.00  0.00     0.111 A 
ENDROOT
BRANCH   6   7
HETATM    7  O   UNK N   1      34.827  14.727   7.736  0.00  0.00    -0.290 OA
BRANCH   7   8
HETATM    8  C   UNK N   1      34.946  14.605   9.088  0.00  0.00     0.163 A 
HETATM    9  C   UNK N   1      34.610  13.407   9.739  0.00  0.00     0.145 A 
HETATM   10  N   UNK N   1      34.806  13.273  11.068  0.00  0.00    -0.356 N 
HETATM   11  C   UNK N   1      35.313  14.295  11.804  0.00  0.00     0.116 A 
ATOM     12  HN  UNK N   1      34.570  12.392  11.524  1.00  0.00     0.165 HD
HETATM   13  C   UNK N   1      35.598  15.516  11.174  0.00  0.00     0.125 A 
HETATM   14  N   UNK N   1      35.406  15.648   9.831  0.00  0.00    -0.343 N 
ATOM     15  HN  UNK N   1      35.608  16.540   9.379  1.00  0.00     0.167 HD
BRANCH  11  16
HETATM   16  C   UNK N   1      35.583  14.080  13.234  0.00  0.00     0.267 C 
HETATM   17  O   UNK N   1      34.779  13.477  13.930  0.00  0.00    -0.266 OA
HETATM   18  N   UNK N   1      36.703  14.581  13.793  0.00  0.00    -0.365 N 
HETATM   19  H   UNK N   1      37.128  14.225  14.605  0.00  0.00     0.159 HD
HETATM   20  H   UNK N   1      37.123  15.358  13.357  0.00  0.00     0.159 HD
ENDBRANCH  11  16
ENDBRANCH   7   8
ENDBRANCH   6   7
BRANCH   1  21
HETATM   21  O   UNK N   1      34.641  17.569   7.242  0.00  0.00    -0.353 OA
HETATM   22  C   UNK N   1      34.551  18.557   8.195  0.00  0.00     0.210 C 
ENDBRANCH   1  21
BRANCH   3  23
HETATM   23  C   UNK N   1      30.127  16.946   5.518  0.00  0.00     0.152 C 
BRANCH  23  24
HETATM   24  N   UNK N   1      29.174  17.092   6.601  0.00  0.00    -0.417 N 
HETATM   25  H   UNK N   1      29.038  16.469   7.397  0.00  0.00     0.153 HD
BRANCH  24  26
HETATM   26  C   UNK N   1      28.456  18.318   6.301  0.00  0.00     0.114 C 
BRANCH  26  27
HETATM   27  C   UNK N   1      28.559  18.675   4.829  0.00  0.00     0.024 C 
BRANCH  27  28
HETATM   28  C   UNK N   1      27.215  18.752   4.108  0.00  0.00    -0.009 C 
HETATM   29  C   UNK N   1      26.983  20.202   3.692  0.00  0.00     0.031 C 
HETATM   30  C   UNK N   1      25.580  20.332   3.100  0.00  0.00     0.168 C 
HETATM   31  O   UNK N   1      24.620  19.942   4.051  0.00  0.00    -0.391 OA
HETATM   32  C   UNK N   1      24.746  18.549   4.198  0.00  0.00     0.168 C 
HETATM   33  C   UNK N   1      26.036  18.251   4.951  0.00  0.00     0.031 C 
ENDBRANCH  27  28
ENDBRANCH  26  27
ENDBRANCH  24  26
ENDBRANCH  23  24
ENDBRANCH   3  23
TORSDOF 9
ENDMDL
