MODEL 1
REMARK VINA RESULT:      -9.0      0.000      0.000
REMARK  9 active torsions:
REMARK  status: ('A' for Active; 'I' for Inactive)
REMARK       I    between atoms: C_1  and  N_17 
REMARK    1  A    between atoms: C_8  and  C_1 
REMARK    2  A    between atoms: N_21  and  C_7 
REMARK    3  A    between atoms: C_12  and  C_9 
REMARK    4  A    between atoms: O_16  and  C_9 
REMARK    5  A    between atoms: C_15  and  C_10 
REMARK    6  A    between atoms: O_18  and  C_10 
REMARK    7  A    between atoms: C_14  and  C_12 
REMARK    8  A    between atoms: C_12  and  N_17 
REMARK    9  A    between atoms: C_15  and  C_14 
REMARK       I    between atoms: N_33  and  C_30 
ROOT
HETATM    1  C   UNK N   1      23.953  18.798   4.396  0.00  0.00     0.019 A 
HETATM    2  C   UNK N   1      25.537  20.273   3.318  0.00  0.00     0.019 A 
HETATM    3  C   UNK N   1      24.975  18.103   4.980  0.00  0.00     0.030 A 
HETATM    4  C   UNK N   1      26.594  19.536   3.893  0.00  0.00     0.030 A 
HETATM    5  C   UNK N   1      26.305  18.444   4.737  0.00  0.00     0.031 A 
HETATM    6  C   UNK N   1      24.207  19.883   3.563  0.00  0.00     0.032 A 
ENDROOT
BRANCH   5   7
HETATM    7  N   UNK N   1      27.314  17.621   5.304  0.00  0.00    -0.362 N 
HETATM    8  C   UNK N   1      28.337  17.111   4.422  0.00  0.00     0.151 C 
HETATM    9  C   UNK N   1      29.553  17.805   4.961  0.00  0.00     0.122 A 
HETATM   10  C   UNK N   1      30.842  17.158   4.461  0.00  0.00     0.148 A 
HETATM   11  N   UNK N   1      29.273  17.792   6.379  0.00  0.00    -0.349 N 
HETATM   12  N   UNK N   1      31.634  16.517   5.479  0.00  0.00    -0.372 N 
HETATM   13  C   UNK N   1      31.313  16.533   6.851  0.00  0.00     0.149 A 
HETATM   14  H   UNK N   1      32.448  16.039   5.200  0.00  0.00     0.161 HD
HETATM   15  C   UNK N   1      30.151  17.165   7.311  0.00  0.00     0.146 A 
HETATM   16  N   UNK N   1      32.136  15.899   7.723  0.00  0.00    -0.175 N 
HETATM   17  C   UNK N   1      29.884  17.128   8.694  0.00  0.00     0.290 A 
HETATM   18  N   UNK N   1      30.752  16.478   9.533  0.00  0.00    -0.154 N 
HETATM   19  O   UNK N   1      28.901  17.673   9.160  0.00  0.00    -0.265 OA
HETATM   20  C   UNK N   1      31.862  15.866   9.049  0.00  0.00     0.680 A 
HETATM   21  H   UNK N   1      30.567  16.454  10.499  0.00  0.00     0.187 HD
HETATM   22  N   UNK N   1      32.731  15.189   9.926  0.00  0.00    -0.234 N 
HETATM   23  H   UNK N   1      32.478  15.050  10.866  0.00  0.00     0.174 HD
HETATM   24  H   UNK N   1      33.596  14.852   9.596  0.00  0.00     0.174 HD
ATOM     25  HN  UNK N   1      32.976  15.438   7.374  1.00  0.00     0.186 HD
HETATM   26  C   UNK N   1      27.849  17.895   6.614  0.00  0.00     0.250 C 
ENDBRANCH   5   7
BRANCH   6  27
HETATM   27  C   UNK N   1      23.029  20.565   3.015  0.00  0.00     0.252 C 
HETATM   28  N   UNK N   1      21.918  19.802   2.847  0.00  0.00    -0.343 N 
HETATM   29  H   UNK N   1      22.054  18.845   3.032  0.00  0.00     0.163 HD
HETATM   30  O   UNK N   1      23.037  21.761   2.774  0.00  0.00    -0.268 OA
BRANCH  28  31
HETATM   31  C   UNK N   1      20.573  20.138   2.448  0.00  0.00     0.183 C 
BRANCH  31  32
HETATM   32  C   UNK N   1      20.684  20.820   1.102  0.00  0.00     0.163 C 
HETATM   33  O   UNK N   1      20.916  20.169   0.091  0.00  0.00    -0.648 OA
BRANCH  32  34
HETATM   34  O   UNK N   1      20.524  22.151   1.004  0.00  0.00    -0.775 OA
HETATM   35  H   UNK N   1      20.004  22.607   1.636  0.00  0.00     0.167 HD
ENDBRANCH  32  34
ENDBRANCH  31  32
BRANCH  31  36
HETATM   36  C   UNK N   1      19.706  18.902   2.303  0.00  0.00     0.046 C 
BRANCH  36  37
HETATM   37  C   UNK N   1      20.588  17.667   2.274  0.00  0.00     0.112 C 
BRANCH  37  38
HETATM   38  C   UNK N   1      20.282  16.855   1.063  0.00  0.00     0.139 C 
HETATM   39  O   UNK N   1      20.052  15.662   1.176  0.00  0.00    -0.650 OA
BRANCH  38  40
HETATM   40  O   UNK N   1      20.263  17.431  -0.153  0.00  0.00    -0.776 OA
HETATM   41  H   UNK N   1      20.776  17.625  -0.912  0.00  0.00     0.167 HD
ENDBRANCH  38  40
ENDBRANCH  37  38
ENDBRANCH  36  37
ENDBRANCH  31  36
ENDBRANCH  28  31
ENDBRANCH   6  27
TORSDOF 9
ENDMDL
MODEL 2
REMARK VINA RESULT:      -8.1      3.835      7.277
REMARK  9 active torsions:
REMARK  status: ('A' for Active; 'I' for Inactive)
REMARK       I    between atoms: C_1  and  N_17 
REMARK    1  A    between atoms: C_8  and  C_1 
REMARK    2  A    between atoms: N_21  and  C_7 
REMARK    3  A    between atoms: C_12  and  C_9 
REMARK    4  A    between atoms: O_16  and  C_9 
REMARK    5  A    between atoms: C_15  and  C_10 
REMARK    6  A    between atoms: O_18  and  C_10 
REMARK    7  A    between atoms: C_14  and  C_12 
REMARK    8  A    between atoms: C_12  and  N_17 
REMARK    9  A    between atoms: C_15  and  C_14 
REMARK       I    between atoms: N_33  and  C_30 
ROOT
HETATM    1  C   UNK N   1      30.255  17.638   8.083  0.00  0.00     0.019 A 
HETATM    2  C   UNK N   1      30.587  17.078   5.755  0.00  0.00     0.019 A 
HETATM    3  C   UNK N   1      31.571  17.379   8.349  0.00  0.00     0.030 A 
HETATM    4  C   UNK N   1      31.938  16.778   6.033  0.00  0.00     0.030 A 
HETATM    5  C   UNK N   1      32.432  16.938   7.345  0.00  0.00     0.031 A 
HETATM    6  C   UNK N   1      29.741  17.494   6.799  0.00  0.00     0.032 A 
ENDROOT
BRANCH   5   7
HETATM    7  N   UNK N   1      33.762  16.601   7.713  0.00  0.00    -0.362 N 
HETATM    8  C   UNK N   1      34.321  17.251   8.875  0.00  0.00     0.151 C 
HETATM    9  C   UNK N   1      34.491  16.084   9.802  0.00  0.00     0.122 A 
HETATM   10  C   UNK N   1      35.419  16.417  10.967  0.00  0.00     0.148 A 
HETATM   11  N   UNK N   1      34.886  15.049   8.874  0.00  0.00    -0.349 N 
HETATM   12  N   UNK N   1      36.665  15.695  10.978  0.00  0.00    -0.372 N 
HETATM   13  C   UNK N   1      37.001  14.694  10.045  0.00  0.00     0.149 A 
HETATM   14  H   UNK N   1      37.321  15.913  11.680  0.00  0.00     0.161 HD
HETATM   15  C   UNK N   1      36.129  14.360   9.002  0.00  0.00     0.146 A 
HETATM   16  N   UNK N   1      38.202  14.074  10.154  0.00  0.00    -0.175 N 
HETATM   17  C   UNK N   1      36.536  13.362   8.095  0.00  0.00     0.290 A 
HETATM   18  N   UNK N   1      37.759  12.762   8.255  0.00  0.00    -0.154 N 
HETATM   19  O   UNK N   1      35.817  13.013   7.178  0.00  0.00    -0.265 OA
HETATM   20  C   UNK N   1      38.583  13.121   9.271  0.00  0.00     0.680 A 
HETATM   21  H   UNK N   1      38.043  12.063   7.623  0.00  0.00     0.187 HD
HETATM   22  N   UNK N   1      39.842  12.505   9.406  0.00  0.00    -0.234 N 
HETATM   23  H   UNK N   1      40.181  11.907   8.702  0.00  0.00     0.174 HD
HETATM   24  H   UNK N   1      40.387  12.674  10.210  0.00  0.00     0.174 HD
ATOM     25  HN  UNK N   1      38.831  14.331  10.915  1.00  0.00     0.186 HD
HETATM   26  C   UNK N   1      34.248  15.250   7.590  0.00  0.00     0.250 C 
ENDBRANCH   5   7
BRANCH   6  27
HETATM   27  C   UNK N   1      28.321  17.825   6.633  0.00  0.00     0.252 C 
HETATM   28  N   UNK N   1      28.043  19.082   6.201  0.00  0.00    -0.343 N 
HETATM   29  H   UNK N   1      28.831  19.667   6.130  0.00  0.00     0.163 HD
HETATM   30  O   UNK N   1      27.445  16.997   6.825  0.00  0.00    -0.268 OA
BRANCH  28  31
HETATM   31  C   UNK N   1      26.803  19.717   5.827  0.00  0.00     0.183 C 
BRANCH  31  32
HETATM   32  C   UNK N   1      26.659  20.933   6.717  0.00  0.00     0.163 C 
HETATM   33  O   UNK N   1      27.033  22.034   6.332  0.00  0.00    -0.648 OA
BRANCH  32  34
HETATM   34  O   UNK N   1      26.112  20.814   7.939  0.00  0.00    -0.775 OA
HETATM   35  H   UNK N   1      26.613  20.450   8.642  0.00  0.00     0.167 HD
ENDBRANCH  32  34
ENDBRANCH  31  32
BRANCH  31  36
HETATM   36  C   UNK N   1      26.820  20.167   4.378  0.00  0.00     0.046 C 
BRANCH  36  37
HETATM   37  C   UNK N   1      25.801  19.367   3.589  0.00  0.00     0.112 C 
BRANCH  37  38
HETATM   38  C   UNK N   1      24.820  20.288   2.948  0.00  0.00     0.139 C 
HETATM   39  O   UNK N   1      25.141  20.920   1.955  0.00  0.00    -0.650 OA
BRANCH  38  40
HETATM   40  O   UNK N   1      23.584  20.426   3.462  0.00  0.00    -0.776 OA
HETATM   41  H   UNK N   1      22.999  21.019   3.890  0.00  0.00     0.167 HD
ENDBRANCH  38  40
ENDBRANCH  37  38
ENDBRANCH  36  37
ENDBRANCH  31  36
ENDBRANCH  28  31
ENDBRANCH   6  27
TORSDOF 9
ENDMDL
MODEL 3
REMARK VINA RESULT:      -7.9      2.167      2.527
REMARK  9 active torsions:
REMARK  status: ('A' for Active; 'I' for Inactive)
REMARK       I    between atoms: C_1  and  N_17 
REMARK    1  A    between atoms: C_8  and  C_1 
REMARK    2  A    between atoms: N_21  and  C_7 
REMARK    3  A    between atoms: C_12  and  C_9 
REMARK    4  A    between atoms: O_16  and  C_9 
REMARK    5  A    between atoms: C_15  and  C_10 
REMARK    6  A    between atoms: O_18  and  C_10 
REMARK    7  A    between atoms: C_14  and  C_12 
REMARK    8  A    between atoms: C_12  and  N_17 
REMARK    9  A    between atoms: C_15  and  C_14 
REMARK       I    between atoms: N_33  and  C_30 
ROOT
HETATM    1  C   UNK N   1      24.221  18.734   4.301  0.00  0.00     0.019 A 
HETATM    2  C   UNK N   1      25.723  20.336   3.289  0.00  0.00     0.019 A 
HETATM    3  C   UNK N   1      25.280  18.059   4.840  0.00  0.00     0.030 A 
HETATM    4  C   UNK N   1      26.819  19.620   3.816  0.00  0.00     0.030 A 
HETATM    5  C   UNK N   1      26.590  18.473   4.605  0.00  0.00     0.031 A 
HETATM    6  C   UNK N   1      24.416  19.871   3.524  0.00  0.00     0.032 A 
ENDROOT
BRANCH   5   7
HETATM    7  N   UNK N   1      27.642  17.670   5.121  0.00  0.00    -0.362 N 
HETATM    8  C   UNK N   1      27.339  16.298   5.449  0.00  0.00     0.151 C 
HETATM    9  C   UNK N   1      28.185  15.569   4.449  0.00  0.00     0.122 A 
HETATM   10  C   UNK N   1      28.356  14.097   4.817  0.00  0.00     0.148 A 
HETATM   11  N   UNK N   1      29.356  16.414   4.408  0.00  0.00    -0.349 N 
HETATM   12  N   UNK N   1      29.697  13.709   5.169  0.00  0.00    -0.372 N 
HETATM   13  C   UNK N   1      30.805  14.578   5.114  0.00  0.00     0.149 A 
HETATM   14  H   UNK N   1      29.850  12.783   5.465  0.00  0.00     0.161 HD
HETATM   15  C   UNK N   1      30.653  15.917   4.734  0.00  0.00     0.146 A 
HETATM   16  N   UNK N   1      32.027  14.103   5.464  0.00  0.00    -0.175 N 
HETATM   17  C   UNK N   1      31.801  16.733   4.717  0.00  0.00     0.290 A 
HETATM   18  N   UNK N   1      33.013  16.201   5.075  0.00  0.00    -0.154 N 
HETATM   19  O   UNK N   1      31.739  17.901   4.380  0.00  0.00    -0.265 OA
HETATM   20  C   UNK N   1      33.121  14.902   5.449  0.00  0.00     0.680 A 
HETATM   21  H   UNK N   1      33.816  16.770   5.061  0.00  0.00     0.187 HD
HETATM   22  N   UNK N   1      34.372  14.380   5.830  0.00  0.00    -0.234 N 
HETATM   23  H   UNK N   1      35.145  14.978   5.945  0.00  0.00     0.174 HD
HETATM   24  H   UNK N   1      34.474  13.412   5.982  0.00  0.00     0.174 HD
ATOM     25  HN  UNK N   1      32.123  13.127   5.744  1.00  0.00     0.186 HD
HETATM   26  C   UNK N   1      28.988  17.798   4.621  0.00  0.00     0.250 C 
ENDBRANCH   5   7
BRANCH   6  27
HETATM   27  C   UNK N   1      23.201  20.524   3.022  0.00  0.00     0.252 C 
HETATM   28  N   UNK N   1      22.160  19.706   2.722  0.00  0.00    -0.343 N 
HETATM   29  H   UNK N   1      22.367  18.747   2.793  0.00  0.00     0.163 HD
HETATM   30  O   UNK N   1      23.120  21.738   2.930  0.00  0.00    -0.268 OA
BRANCH  28  31
HETATM   31  C   UNK N   1      20.803  19.986   2.319  0.00  0.00     0.183 C 
BRANCH  31  32
HETATM   32  C   UNK N   1      20.802  20.005   0.806  0.00  0.00     0.163 C 
HETATM   33  O   UNK N   1      21.132  21.015   0.196  0.00  0.00    -0.648 OA
BRANCH  32  34
HETATM   34  O   UNK N   1      20.442  18.909   0.118  0.00  0.00    -0.775 OA
HETATM   35  H   UNK N   1      20.624  18.852  -0.800  0.00  0.00     0.167 HD
ENDBRANCH  32  34
ENDBRANCH  31  32
BRANCH  31  36
HETATM   36  C   UNK N   1      19.844  18.913   2.799  0.00  0.00     0.046 C 
BRANCH  36  37
HETATM   37  C   UNK N   1      20.629  17.782   3.437  0.00  0.00     0.112 C 
BRANCH  37  38
HETATM   38  C   UNK N   1      20.341  16.503   2.727  0.00  0.00     0.139 C 
HETATM   39  O   UNK N   1      20.810  15.458   3.148  0.00  0.00    -0.650 OA
BRANCH  38  40
HETATM   40  O   UNK N   1      19.570  16.497   1.625  0.00  0.00    -0.776 OA
HETATM   41  H   UNK N   1      18.694  16.595   1.307  0.00  0.00     0.167 HD
ENDBRANCH  38  40
ENDBRANCH  37  38
ENDBRANCH  36  37
ENDBRANCH  31  36
ENDBRANCH  28  31
ENDBRANCH   6  27
TORSDOF 9
ENDMDL
MODEL 4
REMARK VINA RESULT:      -7.8      2.160      3.040
REMARK  9 active torsions:
REMARK  status: ('A' for Active; 'I' for Inactive)
REMARK       I    between atoms: C_1  and  N_17 
REMARK    1  A    between atoms: C_8  and  C_1 
REMARK    2  A    between atoms: N_21  and  C_7 
REMARK    3  A    between atoms: C_12  and  C_9 
REMARK    4  A    between atoms: O_16  and  C_9 
REMARK    5  A    between atoms: C_15  and  C_10 
REMARK    6  A    between atoms: O_18  and  C_10 
REMARK    7  A    between atoms: C_14  and  C_12 
REMARK    8  A    between atoms: C_12  and  N_17 
REMARK    9  A    between atoms: C_15  and  C_14 
REMARK       I    between atoms: N_33  and  C_30 
ROOT
HETATM    1  C   UNK N   1      25.040  20.481   4.230  0.00  0.00     0.019 A 
HETATM    2  C   UNK N   1      24.806  18.078   4.097  0.00  0.00     0.019 A 
HETATM    3  C   UNK N   1      26.273  20.344   4.805  0.00  0.00     0.030 A 
HETATM    4  C   UNK N   1      26.063  17.935   4.722  0.00  0.00     0.030 A 
HETATM    5  C   UNK N   1      26.803  19.083   5.072  0.00  0.00     0.031 A 
HETATM    6  C   UNK N   1      24.289  19.367   3.868  0.00  0.00     0.032 A 
ENDROOT
BRANCH   5   7
HETATM    7  N   UNK N   1      28.048  19.018   5.754  0.00  0.00    -0.362 N 
HETATM    8  C   UNK N   1      28.084  19.471   7.125  0.00  0.00     0.151 C 
HETATM    9  C   UNK N   1      28.397  18.191   7.842  0.00  0.00     0.122 A 
HETATM   10  C   UNK N   1      28.873  18.444   9.270  0.00  0.00     0.148 A 
HETATM   11  N   UNK N   1      29.305  17.565   6.907  0.00  0.00    -0.349 N 
HETATM   12  N   UNK N   1      30.245  18.089   9.525  0.00  0.00    -0.372 N 
HETATM   13  C   UNK N   1      31.089  17.481   8.574  0.00  0.00     0.149 A 
HETATM   14  H   UNK N   1      30.616  18.282  10.417  0.00  0.00     0.161 HD
HETATM   15  C   UNK N   1      30.636  17.211   7.277  0.00  0.00     0.146 A 
HETATM   16  N   UNK N   1      32.365  17.185   8.926  0.00  0.00    -0.175 N 
HETATM   17  C   UNK N   1      31.539  16.617   6.373  0.00  0.00     0.290 A 
HETATM   18  N   UNK N   1      32.816  16.334   6.783  0.00  0.00    -0.154 N 
HETATM   19  O   UNK N   1      31.202  16.341   5.237  0.00  0.00    -0.265 OA
HETATM   20  C   UNK N   1      33.224  16.621   8.044  0.00  0.00     0.680 A 
HETATM   21  H   UNK N   1      33.447  15.917   6.152  0.00  0.00     0.187 HD
HETATM   22  N   UNK N   1      34.545  16.337   8.439  0.00  0.00    -0.234 N 
HETATM   23  H   UNK N   1      35.210  16.047   7.774  0.00  0.00     0.174 HD
HETATM   24  H   UNK N   1      34.806  16.430   9.384  0.00  0.00     0.174 HD
ATOM     25  HN  UNK N   1      32.684  17.392   9.873  1.00  0.00     0.186 HD
HETATM   26  C   UNK N   1      28.952  17.916   5.548  0.00  0.00     0.250 C 
ENDBRANCH   5   7
BRANCH   6  27
HETATM   27  C   UNK N   1      22.994  19.641   3.236  0.00  0.00     0.252 C 
HETATM   28  N   UNK N   1      22.016  18.723   3.446  0.00  0.00    -0.343 N 
HETATM   29  H   UNK N   1      22.314  17.921   3.933  0.00  0.00     0.163 HD
HETATM   30  O   UNK N   1      22.797  20.664   2.601  0.00  0.00    -0.268 OA
BRANCH  28  31
HETATM   31  C   UNK N   1      20.619  18.707   3.087  0.00  0.00     0.183 C 
BRANCH  31  32
HETATM   32  C   UNK N   1      20.562  18.423   1.602  0.00  0.00     0.163 C 
HETATM   33  O   UNK N   1      20.419  17.278   1.192  0.00  0.00    -0.648 OA
BRANCH  32  34
HETATM   34  O   UNK N   1      20.663  19.430   0.718  0.00  0.00    -0.775 OA
HETATM   35  H   UNK N   1      19.960  20.043   0.625  0.00  0.00     0.167 HD
ENDBRANCH  32  34
ENDBRANCH  31  32
BRANCH  31  36
HETATM   36  C   UNK N   1      19.864  17.618   3.826  0.00  0.00     0.046 C 
BRANCH  36  37
HETATM   37  C   UNK N   1      20.837  16.802   4.657  0.00  0.00     0.112 C 
BRANCH  37  38
HETATM   38  C   UNK N   1      20.755  17.219   6.085  0.00  0.00     0.139 C 
HETATM   39  O   UNK N   1      19.985  16.647   6.840  0.00  0.00    -0.650 OA
BRANCH  38  40
HETATM   40  O   UNK N   1      21.525  18.222   6.544  0.00  0.00    -0.776 OA
HETATM   41  H   UNK N   1      22.356  18.645   6.459  0.00  0.00     0.167 HD
ENDBRANCH  38  40
ENDBRANCH  37  38
ENDBRANCH  36  37
ENDBRANCH  31  36
ENDBRANCH  28  31
ENDBRANCH   6  27
TORSDOF 9
ENDMDL
MODEL 5
REMARK VINA RESULT:      -7.7      3.983     12.072
REMARK  9 active torsions:
REMARK  status: ('A' for Active; 'I' for Inactive)
REMARK       I    between atoms: C_1  and  N_17 
REMARK    1  A    between atoms: C_8  and  C_1 
REMARK    2  A    between atoms: N_21  and  C_7 
REMARK    3  A    between atoms: C_12  and  C_9 
REMARK    4  A    between atoms: O_16  and  C_9 
REMARK    5  A    between atoms: C_15  and  C_10 
REMARK    6  A    between atoms: O_18  and  C_10 
REMARK    7  A    between atoms: C_14  and  C_12 
REMARK    8  A    between atoms: C_12  and  N_17 
REMARK    9  A    between atoms: C_15  and  C_14 
REMARK       I    between atoms: N_33  and  C_30 
ROOT
HETATM    1  C   UNK N   1      31.110  15.966   6.822  0.00  0.00     0.019 A 
HETATM    2  C   UNK N   1      31.266  17.491   8.692  0.00  0.00     0.019 A 
HETATM    3  C   UNK N   1      29.894  16.488   6.480  0.00  0.00     0.030 A 
HETATM    4  C   UNK N   1      29.995  18.007   8.360  0.00  0.00     0.030 A 
HETATM    5  C   UNK N   1      29.308  17.501   7.237  0.00  0.00     0.031 A 
HETATM    6  C   UNK N   1      31.813  16.450   7.921  0.00  0.00     0.032 A 
ENDROOT
BRANCH   5   7
HETATM    7  N   UNK N   1      28.003  17.929   6.876  0.00  0.00    -0.362 N 
HETATM    8  C   UNK N   1      27.828  19.316   6.517  0.00  0.00     0.151 C 
HETATM    9  C   UNK N   1      27.452  19.194   5.070  0.00  0.00     0.122 A 
HETATM   10  C   UNK N   1      26.835  20.483   4.534  0.00  0.00     0.148 A 
HETATM   11  N   UNK N   1      26.644  17.995   5.095  0.00  0.00    -0.349 N 
HETATM   12  N   UNK N   1      25.447  20.386   4.166  0.00  0.00    -0.372 N 
HETATM   13  C   UNK N   1      24.704  19.189   4.212  0.00  0.00     0.149 A 
HETATM   14  H   UNK N   1      24.988  21.203   3.865  0.00  0.00     0.161 HD
HETATM   15  C   UNK N   1      25.285  17.997   4.664  0.00  0.00     0.146 A 
HETATM   16  N   UNK N   1      23.401  19.212   3.836  0.00  0.00    -0.175 N 
HETATM   17  C   UNK N   1      24.479  16.842   4.698  0.00  0.00     0.290 A 
HETATM   18  N   UNK N   1      23.169  16.920   4.302  0.00  0.00    -0.154 N 
HETATM   19  O   UNK N   1      24.929  15.772   5.064  0.00  0.00    -0.265 OA
HETATM   20  C   UNK N   1      22.637  18.095   3.882  0.00  0.00     0.680 A 
HETATM   21  H   UNK N   1      22.606  16.113   4.325  0.00  0.00     0.187 HD
HETATM   22  N   UNK N   1      21.284  18.157   3.496  0.00  0.00    -0.234 N 
HETATM   23  H   UNK N   1      20.690  17.387   3.645  0.00  0.00     0.174 HD
HETATM   24  H   UNK N   1      20.931  18.975   3.076  0.00  0.00     0.174 HD
ATOM     25  HN  UNK N   1      22.988  20.088   3.514  1.00  0.00     0.186 HD
HETATM   26  C   UNK N   1      27.128  17.081   6.107  0.00  0.00     0.250 C 
ENDBRANCH   5   7
BRANCH   6  27
HETATM   27  C   UNK N   1      33.119  15.828   8.174  0.00  0.00     0.252 C 
HETATM   28  N   UNK N   1      33.585  15.905   9.447  0.00  0.00    -0.343 N 
HETATM   29  H   UNK N   1      33.028  16.452  10.047  0.00  0.00     0.163 HD
HETATM   30  O   UNK N   1      33.723  15.233   7.297  0.00  0.00    -0.268 OA
BRANCH  28  31
HETATM   31  C   UNK N   1      34.746  15.332  10.081  0.00  0.00     0.183 C 
BRANCH  31  32
HETATM   32  C   UNK N   1      35.689  16.480  10.367  0.00  0.00     0.163 C 
HETATM   33  O   UNK N   1      35.355  17.634  10.130  0.00  0.00    -0.648 OA
BRANCH  32  34
HETATM   34  O   UNK N   1      36.904  16.241  10.890  0.00  0.00    -0.775 OA
HETATM   35  H   UNK N   1      37.634  16.771  10.637  0.00  0.00     0.167 HD
ENDBRANCH  32  34
ENDBRANCH  31  32
BRANCH  31  36
HETATM   36  C   UNK N   1      34.390  14.650  11.389  0.00  0.00     0.046 C 
BRANCH  36  37
HETATM   37  C   UNK N   1      35.011  13.266  11.424  0.00  0.00     0.112 C 
BRANCH  37  38
HETATM   38  C   UNK N   1      36.084  13.218  12.457  0.00  0.00     0.139 C 
HETATM   39  O   UNK N   1      35.823  12.829  13.584  0.00  0.00    -0.650 OA
BRANCH  38  40
HETATM   40  O   UNK N   1      37.336  13.604  12.152  0.00  0.00    -0.776 OA
HETATM   41  H   UNK N   1      37.948  13.725  11.452  0.00  0.00     0.167 HD
ENDBRANCH  38  40
ENDBRANCH  37  38
ENDBRANCH  36  37
ENDBRANCH  31  36
ENDBRANCH  28  31
ENDBRANCH   6  27
TORSDOF 9
ENDMDL
MODEL 6
REMARK VINA RESULT:      -7.7      2.025      3.606
REMARK  9 active torsions:
REMARK  status: ('A' for Active; 'I' for Inactive)
REMARK       I    between atoms: C_1  and  N_17 
REMARK    1  A    between atoms: C_8  and  C_1 
REMARK    2  A    between atoms: N_21  and  C_7 
REMARK    3  A    between atoms: C_12  and  C_9 
REMARK    4  A    between atoms: O_16  and  C_9 
REMARK    5  A    between atoms: C_15  and  C_10 
REMARK    6  A    between atoms: O_18  and  C_10 
REMARK    7  A    between atoms: C_14  and  C_12 
REMARK    8  A    between atoms: C_12  and  N_17 
REMARK    9  A    between atoms: C_15  and  C_14 
REMARK       I    between atoms: N_33  and  C_30 
ROOT
HETATM    1  C   UNK N   1      25.176  16.151   4.517  0.00  0.00     0.019 A 
HETATM    2  C   UNK N   1      24.504  18.440   4.124  0.00  0.00     0.019 A 
HETATM    3  C   UNK N   1      26.294  16.578   5.179  0.00  0.00     0.030 A 
HETATM    4  C   UNK N   1      25.675  18.882   4.776  0.00  0.00     0.030 A 
HETATM    5  C   UNK N   1      26.573  17.937   5.313  0.00  0.00     0.031 A 
HETATM    6  C   UNK N   1      24.269  17.060   3.983  0.00  0.00     0.032 A 
ENDROOT
BRANCH   5   7
HETATM    7  N   UNK N   1      27.799  18.305   5.931  0.00  0.00    -0.362 N 
HETATM    8  C   UNK N   1      27.738  18.863   7.261  0.00  0.00     0.151 C 
HETATM    9  C   UNK N   1      28.442  17.801   8.051  0.00  0.00     0.122 A 
HETATM   10  C   UNK N   1      28.862  18.305   9.429  0.00  0.00     0.148 A 
HETATM   11  N   UNK N   1      29.469  17.396   7.118  0.00  0.00    -0.349 N 
HETATM   12  N   UNK N   1      30.284  18.398   9.636  0.00  0.00    -0.372 N 
HETATM   13  C   UNK N   1      31.243  17.990   8.688  0.00  0.00     0.149 A 
HETATM   14  H   UNK N   1      30.605  18.768  10.490  0.00  0.00     0.161 HD
HETATM   15  C   UNK N   1      30.855  17.487   7.440  0.00  0.00     0.146 A 
HETATM   16  N   UNK N   1      32.559  18.119   8.992  0.00  0.00    -0.175 N 
HETATM   17  C   UNK N   1      31.868  17.114   6.535  0.00  0.00     0.290 A 
HETATM   18  N   UNK N   1      33.183  17.259   6.894  0.00  0.00    -0.154 N 
HETATM   19  O   UNK N   1      31.596  16.654   5.441  0.00  0.00    -0.265 OA
HETATM   20  C   UNK N   1      33.521  17.762   8.107  0.00  0.00     0.680 A 
HETATM   21  H   UNK N   1      33.891  16.997   6.263  0.00  0.00     0.187 HD
HETATM   22  N   UNK N   1      34.878  17.920   8.451  0.00  0.00    -0.234 N 
HETATM   23  H   UNK N   1      35.580  17.785   7.774  0.00  0.00     0.174 HD
HETATM   24  H   UNK N   1      35.126  18.166   9.372  0.00  0.00     0.174 HD
ATOM     25  HN  UNK N   1      32.829  18.491   9.902  1.00  0.00     0.186 HD
HETATM   26  C   UNK N   1      28.987  17.508   5.757  0.00  0.00     0.250 C 
ENDBRANCH   5   7
BRANCH   6  27
HETATM   27  C   UNK N   1      23.095  16.482   3.318  0.00  0.00     0.252 C 
HETATM   28  N   UNK N   1      21.957  17.223   3.357  0.00  0.00    -0.343 N 
HETATM   29  H   UNK N   1      22.024  18.035   3.909  0.00  0.00     0.163 HD
HETATM   30  O   UNK N   1      23.157  15.420   2.722  0.00  0.00    -0.268 OA
BRANCH  28  31
HETATM   31  C   UNK N   1      20.668  17.037   2.737  0.00  0.00     0.183 C 
BRANCH  31  32
HETATM   32  C   UNK N   1      19.846  16.208   3.699  0.00  0.00     0.163 C 
HETATM   33  O   UNK N   1      20.132  15.036   3.913  0.00  0.00    -0.648 OA
BRANCH  32  34
HETATM   34  O   UNK N   1      18.795  16.754   4.334  0.00  0.00    -0.775 OA
HETATM   35  H   UNK N   1      18.930  17.263   5.110  0.00  0.00     0.167 HD
ENDBRANCH  32  34
ENDBRANCH  31  32
BRANCH  31  36
HETATM   36  C   UNK N   1      19.964  18.360   2.502  0.00  0.00     0.046 C 
BRANCH  36  37
HETATM   37  C   UNK N   1      20.992  19.474   2.432  0.00  0.00     0.112 C 
BRANCH  37  38
HETATM   38  C   UNK N   1      20.758  20.304   1.217  0.00  0.00     0.139 C 
HETATM   39  O   UNK N   1      20.694  21.519   1.315  0.00  0.00    -0.650 OA
BRANCH  38  40
HETATM   40  O   UNK N   1      20.613  19.719   0.014  0.00  0.00    -0.776 OA
HETATM   41  H   UNK N   1      20.618  18.900  -0.441  0.00  0.00     0.167 HD
ENDBRANCH  38  40
ENDBRANCH  37  38
ENDBRANCH  36  37
ENDBRANCH  31  36
ENDBRANCH  28  31
ENDBRANCH   6  27
TORSDOF 9
ENDMDL
MODEL 7
REMARK VINA RESULT:      -7.6      5.453     12.481
REMARK  9 active torsions:
REMARK  status: ('A' for Active; 'I' for Inactive)
REMARK       I    between atoms: C_1  and  N_17 
REMARK    1  A    between atoms: C_8  and  C_1 
REMARK    2  A    between atoms: N_21  and  C_7 
REMARK    3  A    between atoms: C_12  and  C_9 
REMARK    4  A    between atoms: O_16  and  C_9 
REMARK    5  A    between atoms: C_15  and  C_10 
REMARK    6  A    between atoms: O_18  and  C_10 
REMARK    7  A    between atoms: C_14  and  C_12 
REMARK    8  A    between atoms: C_12  and  N_17 
REMARK    9  A    between atoms: C_15  and  C_14 
REMARK       I    between atoms: N_33  and  C_30 
ROOT
HETATM    1  C   UNK N   1      33.333  14.705  10.067  0.00  0.00     0.019 A 
HETATM    2  C   UNK N   1      35.012  16.441  10.188  0.00  0.00     0.019 A 
HETATM    3  C   UNK N   1      32.633  15.426   9.139  0.00  0.00     0.030 A 
HETATM    4  C   UNK N   1      34.274  17.201   9.256  0.00  0.00     0.030 A 
HETATM    5  C   UNK N   1      33.076  16.681   8.724  0.00  0.00     0.031 A 
HETATM    6  C   UNK N   1      34.520  15.190  10.605  0.00  0.00     0.032 A 
ENDROOT
BRANCH   5   7
HETATM    7  N   UNK N   1      32.250  17.411   7.827  0.00  0.00    -0.362 N 
HETATM    8  C   UNK N   1      32.555  17.328   6.418  0.00  0.00     0.151 C 
HETATM    9  C   UNK N   1      31.333  16.629   5.901  0.00  0.00     0.122 A 
HETATM   10  C   UNK N   1      31.210  16.751   4.384  0.00  0.00     0.148 A 
HETATM   11  N   UNK N   1      30.306  17.216   6.731  0.00  0.00    -0.349 N 
HETATM   12  N   UNK N   1      30.087  17.527   3.926  0.00  0.00    -0.372 N 
HETATM   13  C   UNK N   1      29.113  18.081   4.782  0.00  0.00     0.149 A 
HETATM   14  H   UNK N   1      29.993  17.681   2.958  0.00  0.00     0.161 HD
HETATM   15  C   UNK N   1      29.206  17.931   6.171  0.00  0.00     0.146 A 
HETATM   16  N   UNK N   1      28.093  18.791   4.239  0.00  0.00    -0.175 N 
HETATM   17  C   UNK N   1      28.206  18.524   6.966  0.00  0.00     0.290 A 
HETATM   18  N   UNK N   1      27.193  19.227   6.366  0.00  0.00    -0.154 N 
HETATM   19  O   UNK N   1      28.219  18.415   8.178  0.00  0.00    -0.265 OA
HETATM   20  C   UNK N   1      27.143  19.362   5.018  0.00  0.00     0.680 A 
HETATM   21  H   UNK N   1      26.494  19.640   6.922  0.00  0.00     0.187 HD
HETATM   22  N   UNK N   1      26.104  20.103   4.422  0.00  0.00    -0.234 N 
HETATM   23  H   UNK N   1      25.485  20.626   4.980  0.00  0.00     0.174 HD
HETATM   24  H   UNK N   1      25.997  20.099   3.443  0.00  0.00     0.174 HD
ATOM     25  HN  UNK N   1      28.041  18.898   3.226  1.00  0.00     0.186 HD
HETATM   26  C   UNK N   1      30.831  17.521   8.045  0.00  0.00     0.250 C 
ENDBRANCH   5   7
BRANCH   6  27
HETATM   27  C   UNK N   1      35.193  14.315  11.573  0.00  0.00     0.252 C 
HETATM   28  N   UNK N   1      34.692  13.059  11.698  0.00  0.00    -0.343 N 
HETATM   29  H   UNK N   1      33.869  12.901  11.182  0.00  0.00     0.163 HD
HETATM   30  O   UNK N   1      36.178  14.685  12.191  0.00  0.00    -0.268 OA
BRANCH  28  31
HETATM   31  C   UNK N   1      35.146  11.914  12.447  0.00  0.00     0.183 C 
BRANCH  31  32
HETATM   32  C   UNK N   1      34.513  12.020  13.817  0.00  0.00     0.163 C 
HETATM   33  O   UNK N   1      33.800  11.121  14.245  0.00  0.00    -0.648 OA
BRANCH  32  34
HETATM   34  O   UNK N   1      34.733  13.104  14.580  0.00  0.00    -0.775 OA
HETATM   35  H   UNK N   1      35.581  13.505  14.591  0.00  0.00     0.167 HD
ENDBRANCH  32  34
ENDBRANCH  31  32
BRANCH  31  36
HETATM   36  C   UNK N   1      34.707  10.613  11.802  0.00  0.00     0.046 C 
BRANCH  36  37
HETATM   37  C   UNK N   1      34.252  10.882  10.379  0.00  0.00     0.112 C 
BRANCH  37  38
HETATM   38  C   UNK N   1      32.921  10.254  10.146  0.00  0.00     0.139 C 
HETATM   39  O   UNK N   1      32.707   9.121  10.546  0.00  0.00    -0.650 OA
BRANCH  38  40
HETATM   40  O   UNK N   1      31.957  10.929   9.494  0.00  0.00    -0.776 OA
HETATM   41  H   UNK N   1      31.780  11.676   8.958  0.00  0.00     0.167 HD
ENDBRANCH  38  40
ENDBRANCH  37  38
ENDBRANCH  36  37
ENDBRANCH  31  36
ENDBRANCH  28  31
ENDBRANCH   6  27
TORSDOF 9
ENDMDL
MODEL 8
REMARK VINA RESULT:      -7.6      1.519      2.359
REMARK  9 active torsions:
REMARK  status: ('A' for Active; 'I' for Inactive)
REMARK       I    between atoms: C_1  and  N_17 
REMARK    1  A    between atoms: C_8  and  C_1 
REMARK    2  A    between atoms: N_21  and  C_7 
REMARK    3  A    between atoms: C_12  and  C_9 
REMARK    4  A    between atoms: O_16  and  C_9 
REMARK    5  A    between atoms: C_15  and  C_10 
REMARK    6  A    between atoms: O_18  and  C_10 
REMARK    7  A    between atoms: C_14  and  C_12 
REMARK    8  A    between atoms: C_12  and  N_17 
REMARK    9  A    between atoms: C_15  and  C_14 
REMARK       I    between atoms: N_33  and  C_30 
ROOT
HETATM    1  C   UNK N   1      24.638  18.819   4.811  0.00  0.00     0.019 A 
HETATM    2  C   UNK N   1      25.663  20.456   3.355  0.00  0.00     0.019 A 
HETATM    3  C   UNK N   1      25.808  18.684   5.506  0.00  0.00     0.030 A 
HETATM    4  C   UNK N   1      26.880  20.292   4.050  0.00  0.00     0.030 A 
HETATM    5  C   UNK N   1      26.947  19.400   5.140  0.00  0.00     0.031 A 
HETATM    6  C   UNK N   1      24.541  19.696   3.735  0.00  0.00     0.032 A 
ENDROOT
BRANCH   5   7
HETATM    7  N   UNK N   1      28.150  19.139   5.850  0.00  0.00    -0.362 N 
HETATM    8  C   UNK N   1      28.197  19.505   7.245  0.00  0.00     0.151 C 
HETATM    9  C   UNK N   1      28.323  18.157   7.891  0.00  0.00     0.122 A 
HETATM   10  C   UNK N   1      28.780  18.266   9.344  0.00  0.00     0.148 A 
HETATM   11  N   UNK N   1      29.177  17.476   6.944  0.00  0.00    -0.349 N 
HETATM   12  N   UNK N   1      30.088  17.726   9.613  0.00  0.00    -0.372 N 
HETATM   13  C   UNK N   1      30.880  17.072   8.649  0.00  0.00     0.149 A 
HETATM   14  H   UNK N   1      30.450  17.820  10.523  0.00  0.00     0.161 HD
HETATM   15  C   UNK N   1      30.441  16.936   7.326  0.00  0.00     0.146 A 
HETATM   16  N   UNK N   1      32.097  16.597   9.015  0.00  0.00    -0.175 N 
HETATM   17  C   UNK N   1      31.292  16.284   6.412  0.00  0.00     0.290 A 
HETATM   18  N   UNK N   1      32.509  15.819   6.836  0.00  0.00    -0.154 N 
HETATM   19  O   UNK N   1      30.961  16.118   5.252  0.00  0.00    -0.265 OA
HETATM   20  C   UNK N   1      32.907  15.979   8.122  0.00  0.00     0.680 A 
HETATM   21  H   UNK N   1      33.103  15.362   6.197  0.00  0.00     0.187 HD
HETATM   22  N   UNK N   1      34.169  15.509   8.533  0.00  0.00    -0.234 N 
HETATM   23  H   UNK N   1      34.815  15.175   7.869  0.00  0.00     0.174 HD
HETATM   24  H   UNK N   1      34.408  15.514   9.489  0.00  0.00     0.174 HD
ATOM     25  HN  UNK N   1      32.408  16.708   9.980  1.00  0.00     0.186 HD
HETATM   26  C   UNK N   1      28.916  17.945   5.600  0.00  0.00     0.250 C 
ENDBRANCH   5   7
BRANCH   6  27
HETATM   27  C   UNK N   1      23.228  19.773   3.084  0.00  0.00     0.252 C 
HETATM   28  N   UNK N   1      22.269  18.941   3.566  0.00  0.00    -0.343 N 
HETATM   29  H   UNK N   1      22.589  18.309   4.249  0.00  0.00     0.163 HD
HETATM   30  O   UNK N   1      23.002  20.577   2.195  0.00  0.00    -0.268 OA
BRANCH  28  31
HETATM   31  C   UNK N   1      20.865  18.815   3.260  0.00  0.00     0.183 C 
BRANCH  31  32
HETATM   32  C   UNK N   1      20.369  20.209   2.945  0.00  0.00     0.163 C 
HETATM   33  O   UNK N   1      20.125  21.002   3.845  0.00  0.00    -0.648 OA
BRANCH  32  34
HETATM   34  O   UNK N   1      20.196  20.591   1.668  0.00  0.00    -0.775 OA
HETATM   35  H   UNK N   1      20.851  20.393   1.027  0.00  0.00     0.167 HD
ENDBRANCH  32  34
ENDBRANCH  31  32
BRANCH  31  36
HETATM   36  C   UNK N   1      20.633  17.924   2.054  0.00  0.00     0.046 C 
BRANCH  36  37
HETATM   37  C   UNK N   1      20.421  16.494   2.514  0.00  0.00     0.112 C 
BRANCH  37  38
HETATM   38  C   UNK N   1      19.940  15.662   1.376  0.00  0.00     0.139 C 
HETATM   39  O   UNK N   1      20.407  15.831   0.262  0.00  0.00    -0.650 OA
BRANCH  38  40
HETATM   40  O   UNK N   1      18.992  14.727   1.572  0.00  0.00    -0.776 OA
HETATM   41  H   UNK N   1      18.391  14.149   1.145  0.00  0.00     0.167 HD
ENDBRANCH  38  40
ENDBRANCH  37  38
ENDBRANCH  36  37
ENDBRANCH  31  36
ENDBRANCH  28  31
ENDBRANCH   6  27
TORSDOF 9
ENDMDL
MODEL 9
REMARK VINA RESULT:      -7.5      2.892      4.875
REMARK  9 active torsions:
REMARK  status: ('A' for Active; 'I' for Inactive)
REMARK       I    between atoms: C_1  and  N_17 
REMARK    1  A    between atoms: C_8  and  C_1 
REMARK    2  A    between atoms: N_21  and  C_7 
REMARK    3  A    between atoms: C_12  and  C_9 
REMARK    4  A    between atoms: O_16  and  C_9 
REMARK    5  A    between atoms: C_15  and  C_10 
REMARK    6  A    between atoms: O_18  and  C_10 
REMARK    7  A    between atoms: C_14  and  C_12 
REMARK    8  A    between atoms: C_12  and  N_17 
REMARK    9  A    between atoms: C_15  and  C_14 
REMARK       I    between atoms: N_33  and  C_30 
ROOT
HETATM    1  C   UNK N   1      28.335  18.746   7.505  0.00  0.00     0.019 A 
HETATM    2  C   UNK N   1      28.780  18.085   5.222  0.00  0.00     0.019 A 
HETATM    3  C   UNK N   1      29.380  17.982   7.945  0.00  0.00     0.030 A 
HETATM    4  C   UNK N   1      29.837  17.269   5.678  0.00  0.00     0.030 A 
HETATM    5  C   UNK N   1      30.141  17.226   7.055  0.00  0.00     0.031 A 
HETATM    6  C   UNK N   1      28.016  18.813   6.152  0.00  0.00     0.032 A 
ENDROOT
BRANCH   5   7
HETATM    7  N   UNK N   1      31.151  16.385   7.595  0.00  0.00    -0.362 N 
HETATM    8  C   UNK N   1      31.491  15.190   6.859  0.00  0.00     0.151 C 
HETATM    9  C   UNK N   1      32.905  15.491   6.461  0.00  0.00     0.122 A 
HETATM   10  C   UNK N   1      33.643  14.236   6.001  0.00  0.00     0.148 A 
HETATM   11  N   UNK N   1      33.382  16.184   7.637  0.00  0.00    -0.349 N 
HETATM   12  N   UNK N   1      34.725  13.819   6.854  0.00  0.00    -0.372 N 
HETATM   13  C   UNK N   1      35.148  14.534   7.992  0.00  0.00     0.149 A 
HETATM   14  H   UNK N   1      35.199  12.986   6.629  0.00  0.00     0.161 HD
HETATM   15  C   UNK N   1      34.497  15.708   8.389  0.00  0.00     0.146 A 
HETATM   16  N   UNK N   1      36.184  14.049   8.722  0.00  0.00    -0.175 N 
HETATM   17  C   UNK N   1      34.962  16.362   9.547  0.00  0.00     0.290 A 
HETATM   18  N   UNK N   1      36.017  15.832  10.244  0.00  0.00    -0.154 N 
HETATM   19  O   UNK N   1      34.451  17.396   9.934  0.00  0.00    -0.265 OA
HETATM   20  C   UNK N   1      36.616  14.686   9.837  0.00  0.00     0.680 A 
HETATM   21  H   UNK N   1      36.344  16.290  11.052  0.00  0.00     0.187 HD
HETATM   22  N   UNK N   1      37.687  14.149  10.577  0.00  0.00    -0.234 N 
HETATM   23  H   UNK N   1      37.925  14.530  11.453  0.00  0.00     0.174 HD
HETATM   24  H   UNK N   1      38.200  13.389  10.217  0.00  0.00     0.174 HD
ATOM     25  HN  UNK N   1      36.647  13.190   8.425  1.00  0.00     0.186 HD
HETATM   26  C   UNK N   1      32.309  16.939   8.248  0.00  0.00     0.250 C 
ENDBRANCH   5   7
BRANCH   6  27
HETATM   27  C   UNK N   1      26.891  19.686   5.799  0.00  0.00     0.252 C 
HETATM   28  N   UNK N   1      26.056  19.228   4.831  0.00  0.00    -0.343 N 
HETATM   29  H   UNK N   1      26.351  18.391   4.407  0.00  0.00     0.163 HD
HETATM   30  O   UNK N   1      26.692  20.740   6.382  0.00  0.00    -0.268 OA
BRANCH  28  31
HETATM   31  C   UNK N   1      24.814  19.744   4.310  0.00  0.00     0.183 C 
BRANCH  31  32
HETATM   32  C   UNK N   1      25.160  20.497   3.044  0.00  0.00     0.163 C 
HETATM   33  O   UNK N   1      26.326  20.754   2.772  0.00  0.00    -0.648 OA
BRANCH  32  34
HETATM   34  O   UNK N   1      24.187  20.885   2.202  0.00  0.00    -0.775 OA
HETATM   35  H   UNK N   1      23.393  20.390   2.145  0.00  0.00     0.167 HD
ENDBRANCH  32  34
ENDBRANCH  31  32
BRANCH  31  36
HETATM   36  C   UNK N   1      23.843  18.629   3.970  0.00  0.00     0.046 C 
BRANCH  36  37
HETATM   37  C   UNK N   1      23.310  18.015   5.252  0.00  0.00     0.112 C 
BRANCH  37  38
HETATM   38  C   UNK N   1      21.893  18.425   5.459  0.00  0.00     0.139 C 
HETATM   39  O   UNK N   1      21.190  18.684   4.495  0.00  0.00    -0.650 OA
BRANCH  38  40
HETATM   40  O   UNK N   1      21.387  18.514   6.703  0.00  0.00    -0.776 OA
HETATM   41  H   UNK N   1      21.579  18.404   7.613  0.00  0.00     0.167 HD
ENDBRANCH  38  40
ENDBRANCH  37  38
ENDBRANCH  36  37
ENDBRANCH  31  36
ENDBRANCH  28  31
ENDBRANCH   6  27
TORSDOF 9
ENDMDL
