MODEL 1
REMARK VINA RESULT:      -5.2      0.000      0.000
REMARK  10 active torsions:
REMARK  status: ('A' for Active; 'I' for Inactive)
REMARK       I    between atoms: C_2  and  N_4 
REMARK    1  A    between atoms: C_5  and  N_4 
REMARK    2  A    between atoms: C_5  and  C_6 
REMARK    3  A    between atoms: C_5  and  C_8 
REMARK    4  A    between atoms: C_8  and  O_9 
REMARK    5  A    between atoms: C_8  and  C_10 
REMARK    6  A    between atoms: C_10  and  O_11 
REMARK    7  A    between atoms: C_10  and  C_12 
REMARK    8  A    between atoms: C_12  and  O_13 
REMARK    9  A    between atoms: C_12  and  C_14 
REMARK   10  A    between atoms: C_14  and  O_15 
ROOT
HETATM    1  C   UNK N   1      34.747  16.142   8.833  0.00  0.00     0.178 C 
ENDROOT
BRANCH   1   2
HETATM    2  C   UNK N   1      33.812  17.365   8.647  0.00  0.00     0.177 C 
BRANCH   2   3
HETATM    3  N   UNK N   1      32.704  16.951   7.806  0.00  0.00    -0.348 N 
HETATM    4  C   UNK N   1      31.435  17.412   7.944  0.00  0.00     0.214 C 
HETATM    5  C   UNK N   1      30.383  16.952   6.993  0.00  0.00     0.117 C 
HETATM    6  O   UNK N   1      31.144  18.193   8.834  0.00  0.00    -0.274 OA
HETATM    7  H   UNK N   1      32.885  16.297   7.091  0.00  0.00     0.163 HD
ENDBRANCH   2   3
BRANCH   2   8
HETATM    8  C   UNK N   1      34.494  18.550   8.011  0.00  0.00     0.258 C 
HETATM    9  O   UNK N   1      35.337  19.192   8.617  0.00  0.00    -0.305 OA
ENDBRANCH   2   8
ENDBRANCH   1   2
BRANCH   1  10
HETATM   10  O   UNK N   1      34.057  15.000   8.415  0.00  0.00    -0.390 OA
HETATM   11  H   UNK N   1      34.011  14.461   7.610  0.00  0.00     0.210 HD
ENDBRANCH   1  10
BRANCH   1  12
HETATM   12  C   UNK N   1      35.283  15.938  10.271  0.00  0.00     0.180 C 
BRANCH  12  13
HETATM   13  O   UNK N   1      35.078  17.090  11.038  0.00  0.00    -0.390 OA
HETATM   14  H   UNK N   1      35.272  18.020  11.236  0.00  0.00     0.210 HD
ENDBRANCH  12  13
BRANCH  12  15
HETATM   15  C   UNK N   1      34.642  14.714  10.964  0.00  0.00     0.173 C 
BRANCH  15  16
HETATM   16  O   UNK N   1      33.292  14.949  11.239  0.00  0.00    -0.391 OA
HETATM   17  H   UNK N   1      32.584  14.818  11.889  0.00  0.00     0.210 HD
ENDBRANCH  15  16
BRANCH  15  18
HETATM   18  C   UNK N   1      35.369  14.337  12.254  0.00  0.00     0.198 C 
BRANCH  18  19
HETATM   19  O   UNK N   1      36.462  15.170  12.493  0.00  0.00    -0.398 OA
HETATM   20  H   UNK N   1      37.375  15.175  12.823  0.00  0.00     0.209 HD
ENDBRANCH  18  19
ENDBRANCH  15  18
ENDBRANCH  12  15
ENDBRANCH   1  12
TORSDOF 10
ENDMDL
MODEL 2
REMARK VINA RESULT:      -5.2     14.921     16.232
REMARK  10 active torsions:
REMARK  status: ('A' for Active; 'I' for Inactive)
REMARK       I    between atoms: C_2  and  N_4 
REMARK    1  A    between atoms: C_5  and  N_4 
REMARK    2  A    between atoms: C_5  and  C_6 
REMARK    3  A    between atoms: C_5  and  C_8 
REMARK    4  A    between atoms: C_8  and  O_9 
REMARK    5  A    between atoms: C_8  and  C_10 
REMARK    6  A    between atoms: C_10  and  O_11 
REMARK    7  A    between atoms: C_10  and  C_12 
REMARK    8  A    between atoms: C_12  and  O_13 
REMARK    9  A    between atoms: C_12  and  C_14 
REMARK   10  A    between atoms: C_14  and  O_15 
ROOT
HETATM    1  C   UNK N   1      19.903  18.127   2.695  0.00  0.00     0.178 C 
ENDROOT
BRANCH   1   2
HETATM    2  C   UNK N   1      20.185  16.642   3.039  0.00  0.00     0.177 C 
BRANCH   2   3
HETATM    3  N   UNK N   1      19.381  15.821   2.151  0.00  0.00    -0.348 N 
HETATM    4  C   UNK N   1      19.872  15.182   1.059  0.00  0.00     0.214 C 
HETATM    5  C   UNK N   1      18.964  14.328   0.243  0.00  0.00     0.117 C 
HETATM    6  O   UNK N   1      21.042  15.299   0.736  0.00  0.00    -0.274 OA
HETATM    7  H   UNK N   1      18.422  15.722   2.355  0.00  0.00     0.163 HD
ENDBRANCH   2   3
BRANCH   2   8
HETATM    8  C   UNK N   1      19.858  16.284   4.467  0.00  0.00     0.258 C 
HETATM    9  O   UNK N   1      18.712  16.345   4.885  0.00  0.00    -0.305 OA
ENDBRANCH   2   8
ENDBRANCH   1   2
BRANCH   1  10
HETATM   10  O   UNK N   1      18.537  18.259   2.427  0.00  0.00    -0.390 OA
HETATM   11  H   UNK N   1      17.806  17.667   2.188  0.00  0.00     0.210 HD
ENDBRANCH   1  10
BRANCH   1  12
HETATM   12  C   UNK N   1      20.729  18.696   1.516  0.00  0.00     0.180 C 
BRANCH  12  13
HETATM   13  O   UNK N   1      20.156  18.327   0.294  0.00  0.00    -0.390 OA
HETATM   14  H   UNK N   1      20.053  18.449  -0.663  0.00  0.00     0.210 HD
ENDBRANCH  12  13
BRANCH  12  15
HETATM   15  C   UNK N   1      20.877  20.232   1.595  0.00  0.00     0.173 C 
BRANCH  15  16
HETATM   16  O   UNK N   1      21.497  20.732   0.447  0.00  0.00    -0.391 OA
HETATM   17  H   UNK N   1      22.247  21.252   0.116  0.00  0.00     0.210 HD
ENDBRANCH  15  16
BRANCH  15  18
HETATM   18  C   UNK N   1      21.660  20.673   2.831  0.00  0.00     0.198 C 
BRANCH  18  19
HETATM   19  O   UNK N   1      22.033  22.015   2.753  0.00  0.00    -0.398 OA
HETATM   20  H   UNK N   1      22.374  22.690   2.145  0.00  0.00     0.209 HD
ENDBRANCH  18  19
ENDBRANCH  15  18
ENDBRANCH  12  15
ENDBRANCH   1  12
TORSDOF 10
ENDMDL
MODEL 3
REMARK VINA RESULT:      -4.9      4.130      7.310
REMARK  10 active torsions:
REMARK  status: ('A' for Active; 'I' for Inactive)
REMARK       I    between atoms: C_2  and  N_4 
REMARK    1  A    between atoms: C_5  and  N_4 
REMARK    2  A    between atoms: C_5  and  C_6 
REMARK    3  A    between atoms: C_5  and  C_8 
REMARK    4  A    between atoms: C_8  and  O_9 
REMARK    5  A    between atoms: C_8  and  C_10 
REMARK    6  A    between atoms: C_10  and  O_11 
REMARK    7  A    between atoms: C_10  and  C_12 
REMARK    8  A    between atoms: C_12  and  O_13 
REMARK    9  A    between atoms: C_12  and  C_14 
REMARK   10  A    between atoms: C_14  and  O_15 
ROOT
HETATM    1  C   UNK N   1      36.631  13.362  13.037  0.00  0.00     0.178 C 
ENDROOT
BRANCH   1   2
HETATM    2  C   UNK N   1      36.578  12.271  14.137  0.00  0.00     0.177 C 
BRANCH   2   3
HETATM    3  N   UNK N   1      36.393  12.938  15.414  0.00  0.00    -0.348 N 
HETATM    4  C   UNK N   1      35.196  13.049  16.044  0.00  0.00     0.214 C 
HETATM    5  C   UNK N   1      35.130  13.715  17.375  0.00  0.00     0.117 C 
HETATM    6  O   UNK N   1      34.176  12.613  15.536  0.00  0.00    -0.274 OA
HETATM    7  H   UNK N   1      37.184  13.333  15.848  0.00  0.00     0.163 HD
ENDBRANCH   2   3
BRANCH   2   8
HETATM    8  C   UNK N   1      37.824  11.425  14.203  0.00  0.00     0.258 C 
HETATM    9  O   UNK N   1      37.767  10.238  14.486  0.00  0.00    -0.305 OA
ENDBRANCH   2   8
ENDBRANCH   1   2
BRANCH   1  10
HETATM   10  O   UNK N   1      36.787  14.603  13.663  0.00  0.00    -0.390 OA
HETATM   11  H   UNK N   1      37.506  15.242  13.787  0.00  0.00     0.210 HD
ENDBRANCH   1  10
BRANCH   1  12
HETATM   12  C   UNK N   1      35.406  13.399  12.091  0.00  0.00     0.180 C 
BRANCH  12  13
HETATM   13  O   UNK N   1      34.304  12.779  12.691  0.00  0.00    -0.390 OA
HETATM   14  H   UNK N   1      33.559  12.795  13.312  0.00  0.00     0.210 HD
ENDBRANCH  12  13
BRANCH  12  15
HETATM   15  C   UNK N   1      35.042  14.839  11.665  0.00  0.00     0.173 C 
BRANCH  15  16
HETATM   16  O   UNK N   1      33.683  14.936  11.351  0.00  0.00    -0.391 OA
HETATM   17  H   UNK N   1      32.960  15.553  11.154  0.00  0.00     0.210 HD
ENDBRANCH  15  16
BRANCH  15  18
HETATM   18  C   UNK N   1      35.876  15.317  10.476  0.00  0.00     0.198 C 
BRANCH  18  19
HETATM   19  O   UNK N   1      36.938  16.123  10.884  0.00  0.00    -0.398 OA
HETATM   20  H   UNK N   1      37.530  16.306  11.631  0.00  0.00     0.209 HD
ENDBRANCH  18  19
ENDBRANCH  15  18
ENDBRANCH  12  15
ENDBRANCH   1  12
TORSDOF 10
ENDMDL
MODEL 4
REMARK VINA RESULT:      -4.9      2.267      3.124
REMARK  10 active torsions:
REMARK  status: ('A' for Active; 'I' for Inactive)
REMARK       I    between atoms: C_2  and  N_4 
REMARK    1  A    between atoms: C_5  and  N_4 
REMARK    2  A    between atoms: C_5  and  C_6 
REMARK    3  A    between atoms: C_5  and  C_8 
REMARK    4  A    between atoms: C_8  and  O_9 
REMARK    5  A    between atoms: C_8  and  C_10 
REMARK    6  A    between atoms: C_10  and  O_11 
REMARK    7  A    between atoms: C_10  and  C_12 
REMARK    8  A    between atoms: C_12  and  O_13 
REMARK    9  A    between atoms: C_12  and  C_14 
REMARK   10  A    between atoms: C_14  and  O_15 
ROOT
HETATM    1  C   UNK N   1      35.343  16.483  10.807  0.00  0.00     0.178 C 
ENDROOT
BRANCH   1   2
HETATM    2  C   UNK N   1      34.645  16.447   9.423  0.00  0.00     0.177 C 
BRANCH   2   3
HETATM    3  N   UNK N   1      35.283  15.408   8.633  0.00  0.00    -0.348 N 
HETATM    4  C   UNK N   1      34.629  14.333   8.126  0.00  0.00     0.214 C 
HETATM    5  C   UNK N   1      35.375  13.351   7.290  0.00  0.00     0.117 C 
HETATM    6  O   UNK N   1      33.442  14.158   8.348  0.00  0.00    -0.274 OA
HETATM    7  H   UNK N   1      36.248  15.491   8.454  0.00  0.00     0.163 HD
ENDBRANCH   2   3
BRANCH   2   8
HETATM    8  C   UNK N   1      34.730  17.752   8.674  0.00  0.00     0.258 C 
HETATM    9  O   UNK N   1      35.413  18.675   9.090  0.00  0.00    -0.305 OA
ENDBRANCH   2   8
ENDBRANCH   1   2
BRANCH   1  10
HETATM   10  O   UNK N   1      36.719  16.340  10.604  0.00  0.00    -0.390 OA
HETATM   11  H   UNK N   1      37.530  16.642  11.043  0.00  0.00     0.210 HD
ENDBRANCH   1  10
BRANCH   1  12
HETATM   12  C   UNK N   1      34.845  15.423  11.820  0.00  0.00     0.180 C 
BRANCH  12  13
HETATM   13  O   UNK N   1      33.676  14.812  11.355  0.00  0.00    -0.390 OA
HETATM   14  H   UNK N   1      32.840  14.349  11.521  0.00  0.00     0.210 HD
ENDBRANCH  12  13
BRANCH  12  15
HETATM   15  C   UNK N   1      35.922  14.357  12.124  0.00  0.00     0.173 C 
BRANCH  15  16
HETATM   16  O   UNK N   1      36.076  13.485  11.043  0.00  0.00    -0.391 OA
HETATM   17  H   UNK N   1      36.723  13.036  10.476  0.00  0.00     0.210 HD
ENDBRANCH  15  16
BRANCH  15  18
HETATM   18  C   UNK N   1      35.600  13.555  13.385  0.00  0.00     0.198 C 
BRANCH  18  19
HETATM   19  O   UNK N   1      34.440  12.795  13.230  0.00  0.00    -0.398 OA
HETATM   20  H   UNK N   1      33.872  12.148  13.678  0.00  0.00     0.209 HD
ENDBRANCH  18  19
ENDBRANCH  15  18
ENDBRANCH  12  15
ENDBRANCH   1  12
TORSDOF 10
ENDMDL
MODEL 5
REMARK VINA RESULT:      -4.9      3.343      6.450
REMARK  10 active torsions:
REMARK  status: ('A' for Active; 'I' for Inactive)
REMARK       I    between atoms: C_2  and  N_4 
REMARK    1  A    between atoms: C_5  and  N_4 
REMARK    2  A    between atoms: C_5  and  C_6 
REMARK    3  A    between atoms: C_5  and  C_8 
REMARK    4  A    between atoms: C_8  and  O_9 
REMARK    5  A    between atoms: C_8  and  C_10 
REMARK    6  A    between atoms: C_10  and  O_11 
REMARK    7  A    between atoms: C_10  and  C_12 
REMARK    8  A    between atoms: C_12  and  O_13 
REMARK    9  A    between atoms: C_12  and  C_14 
REMARK   10  A    between atoms: C_14  and  O_15 
ROOT
HETATM    1  C   UNK N   1      36.357  13.988  12.481  0.00  0.00     0.178 C 
ENDROOT
BRANCH   1   2
HETATM    2  C   UNK N   1      35.969  12.820  13.423  0.00  0.00     0.177 C 
BRANCH   2   3
HETATM    3  N   UNK N   1      34.916  12.059  12.774  0.00  0.00    -0.348 N 
HETATM    4  C   UNK N   1      34.933  10.709  12.634  0.00  0.00     0.214 C 
HETATM    5  C   UNK N   1      33.776  10.026  11.990  0.00  0.00     0.117 C 
HETATM    6  O   UNK N   1      35.881  10.049  13.026  0.00  0.00    -0.274 OA
HETATM    7  H   UNK N   1      34.143  12.553  12.415  0.00  0.00     0.163 HD
ENDBRANCH   2   3
BRANCH   2   8
HETATM    8  C   UNK N   1      35.481  13.276  14.775  0.00  0.00     0.258 C 
HETATM    9  O   UNK N   1      34.332  13.069  15.133  0.00  0.00    -0.305 OA
ENDBRANCH   2   8
ENDBRANCH   1   2
BRANCH   1  10
HETATM   10  O   UNK N   1      36.377  15.166  13.235  0.00  0.00    -0.390 OA
HETATM   11  H   UNK N   1      36.319  15.401  14.174  0.00  0.00     0.210 HD
ENDBRANCH   1  10
BRANCH   1  12
HETATM   12  C   UNK N   1      35.442  14.167  11.246  0.00  0.00     0.180 C 
BRANCH  12  13
HETATM   13  O   UNK N   1      34.144  14.505  11.644  0.00  0.00    -0.390 OA
HETATM   14  H   UNK N   1      33.269  14.252  11.979  0.00  0.00     0.210 HD
ENDBRANCH  12  13
BRANCH  12  15
HETATM   15  C   UNK N   1      35.991  15.225  10.262  0.00  0.00     0.173 C 
BRANCH  15  16
HETATM   16  O   UNK N   1      37.252  15.671  10.665  0.00  0.00    -0.391 OA
HETATM   17  H   UNK N   1      38.096  16.040  10.357  0.00  0.00     0.210 HD
ENDBRANCH  15  16
BRANCH  15  18
HETATM   18  C   UNK N   1      35.049  16.419  10.114  0.00  0.00     0.198 C 
BRANCH  18  19
HETATM   19  O   UNK N   1      34.994  17.179  11.283  0.00  0.00    -0.398 OA
HETATM   20  H   UNK N   1      35.334  17.987  11.699  0.00  0.00     0.209 HD
ENDBRANCH  18  19
ENDBRANCH  15  18
ENDBRANCH  12  15
ENDBRANCH   1  12
TORSDOF 10
ENDMDL
MODEL 6
REMARK VINA RESULT:      -4.8      2.216      3.188
REMARK  10 active torsions:
REMARK  status: ('A' for Active; 'I' for Inactive)
REMARK       I    between atoms: C_2  and  N_4 
REMARK    1  A    between atoms: C_5  and  N_4 
REMARK    2  A    between atoms: C_5  and  C_6 
REMARK    3  A    between atoms: C_5  and  C_8 
REMARK    4  A    between atoms: C_8  and  O_9 
REMARK    5  A    between atoms: C_8  and  C_10 
REMARK    6  A    between atoms: C_10  and  O_11 
REMARK    7  A    between atoms: C_10  and  C_12 
REMARK    8  A    between atoms: C_12  and  O_13 
REMARK    9  A    between atoms: C_12  and  C_14 
REMARK   10  A    between atoms: C_14  and  O_15 
ROOT
HETATM    1  C   UNK N   1      33.461  15.843   8.585  0.00  0.00     0.178 C 
ENDROOT
BRANCH   1   2
HETATM    2  C   UNK N   1      33.731  16.073   7.076  0.00  0.00     0.177 C 
BRANCH   2   3
HETATM    3  N   UNK N   1      35.068  15.586   6.787  0.00  0.00    -0.348 N 
HETATM    4  C   UNK N   1      35.354  14.703   5.796  0.00  0.00     0.214 C 
HETATM    5  C   UNK N   1      36.770  14.306   5.558  0.00  0.00     0.117 C 
HETATM    6  O   UNK N   1      34.470  14.230   5.101  0.00  0.00    -0.274 OA
HETATM    7  H   UNK N   1      35.811  15.917   7.342  0.00  0.00     0.163 HD
ENDBRANCH   2   3
BRANCH   2   8
HETATM    8  C   UNK N   1      33.636  17.519   6.663  0.00  0.00     0.258 C 
HETATM    9  O   UNK N   1      34.408  18.354   7.110  0.00  0.00    -0.305 OA
ENDBRANCH   2   8
ENDBRANCH   1   2
BRANCH   1  10
HETATM   10  O   UNK N   1      32.412  16.684   8.972  0.00  0.00    -0.390 OA
HETATM   11  H   UNK N   1      32.227  17.636   8.945  0.00  0.00     0.210 HD
ENDBRANCH   1  10
BRANCH   1  12
HETATM   12  C   UNK N   1      34.682  16.062   9.511  0.00  0.00     0.180 C 
BRANCH  12  13
HETATM   13  O   UNK N   1      34.682  17.365  10.021  0.00  0.00    -0.390 OA
HETATM   14  H   UNK N   1      34.248  18.223  10.151  0.00  0.00     0.210 HD
ENDBRANCH  12  13
BRANCH  12  15
HETATM   15  C   UNK N   1      34.729  15.037  10.666  0.00  0.00     0.173 C 
BRANCH  15  16
HETATM   16  O   UNK N   1      33.483  14.933  11.290  0.00  0.00    -0.391 OA
HETATM   17  H   UNK N   1      32.958  15.211  12.057  0.00  0.00     0.210 HD
ENDBRANCH  15  16
BRANCH  15  18
HETATM   18  C   UNK N   1      35.793  15.388  11.706  0.00  0.00     0.198 C 
BRANCH  18  19
HETATM   19  O   UNK N   1      36.909  15.984  11.120  0.00  0.00    -0.398 OA
HETATM   20  H   UNK N   1      37.853  16.165  11.257  0.00  0.00     0.209 HD
ENDBRANCH  18  19
ENDBRANCH  15  18
ENDBRANCH  12  15
ENDBRANCH   1  12
TORSDOF 10
ENDMDL
MODEL 7
REMARK VINA RESULT:      -4.8      3.216      5.714
REMARK  10 active torsions:
REMARK  status: ('A' for Active; 'I' for Inactive)
REMARK       I    between atoms: C_2  and  N_4 
REMARK    1  A    between atoms: C_5  and  N_4 
REMARK    2  A    between atoms: C_5  and  C_6 
REMARK    3  A    between atoms: C_5  and  C_8 
REMARK    4  A    between atoms: C_8  and  O_9 
REMARK    5  A    between atoms: C_8  and  C_10 
REMARK    6  A    between atoms: C_10  and  O_11 
REMARK    7  A    between atoms: C_10  and  C_12 
REMARK    8  A    between atoms: C_12  and  O_13 
REMARK    9  A    between atoms: C_12  and  C_14 
REMARK   10  A    between atoms: C_14  and  O_15 
ROOT
HETATM    1  C   UNK N   1      36.186  14.931  10.646  0.00  0.00     0.178 C 
ENDROOT
BRANCH   1   2
HETATM    2  C   UNK N   1      36.507  13.705  11.539  0.00  0.00     0.177 C 
BRANCH   2   3
HETATM    3  N   UNK N   1      36.949  14.202  12.830  0.00  0.00    -0.348 N 
HETATM    4  C   UNK N   1      36.243  14.055  13.980  0.00  0.00     0.214 C 
HETATM    5  C   UNK N   1      36.814  14.564  15.259  0.00  0.00     0.117 C 
HETATM    6  O   UNK N   1      35.149  13.514  13.981  0.00  0.00    -0.274 OA
HETATM    7  H   UNK N   1      37.813  14.672  12.874  0.00  0.00     0.163 HD
ENDBRANCH   2   3
BRANCH   2   8
HETATM    8  C   UNK N   1      37.576  12.809  10.967  0.00  0.00     0.258 C 
HETATM    9  O   UNK N   1      38.452  13.256  10.243  0.00  0.00    -0.305 OA
ENDBRANCH   2   8
ENDBRANCH   1   2
BRANCH   1  10
HETATM   10  O   UNK N   1      37.276  15.805  10.700  0.00  0.00    -0.390 OA
HETATM   11  H   UNK N   1      37.451  16.728  10.457  0.00  0.00     0.210 HD
ENDBRANCH   1  10
BRANCH   1  12
HETATM   12  C   UNK N   1      34.885  15.686  11.012  0.00  0.00     0.180 C 
BRANCH  12  13
HETATM   13  O   UNK N   1      35.093  17.069  10.967  0.00  0.00    -0.390 OA
HETATM   14  H   UNK N   1      35.490  17.877  11.330  0.00  0.00     0.210 HD
ENDBRANCH  12  13
BRANCH  12  15
HETATM   15  C   UNK N   1      33.706  15.294  10.094  0.00  0.00     0.173 C 
BRANCH  15  16
HETATM   16  O   UNK N   1      32.558  15.027  10.845  0.00  0.00    -0.391 OA
HETATM   17  H   UNK N   1      31.621  14.781  10.796  0.00  0.00     0.210 HD
ENDBRANCH  15  16
BRANCH  15  18
HETATM   18  C   UNK N   1      34.035  14.086   9.217  0.00  0.00     0.198 C 
BRANCH  18  19
HETATM   19  O   UNK N   1      33.335  12.949   9.623  0.00  0.00    -0.398 OA
HETATM   20  H   UNK N   1      32.536  12.657  10.091  0.00  0.00     0.209 HD
ENDBRANCH  18  19
ENDBRANCH  15  18
ENDBRANCH  12  15
ENDBRANCH   1  12
TORSDOF 10
ENDMDL
MODEL 8
REMARK VINA RESULT:      -4.7      1.908      5.229
REMARK  10 active torsions:
REMARK  status: ('A' for Active; 'I' for Inactive)
REMARK       I    between atoms: C_2  and  N_4 
REMARK    1  A    between atoms: C_5  and  N_4 
REMARK    2  A    between atoms: C_5  and  C_6 
REMARK    3  A    between atoms: C_5  and  C_8 
REMARK    4  A    between atoms: C_8  and  O_9 
REMARK    5  A    between atoms: C_8  and  C_10 
REMARK    6  A    between atoms: C_10  and  O_11 
REMARK    7  A    between atoms: C_10  and  C_12 
REMARK    8  A    between atoms: C_12  and  O_13 
REMARK    9  A    between atoms: C_12  and  C_14 
REMARK   10  A    between atoms: C_14  and  O_15 
ROOT
HETATM    1  C   UNK N   1      32.106  17.014   9.070  0.00  0.00     0.178 C 
ENDROOT
BRANCH   1   2
HETATM    2  C   UNK N   1      33.599  17.160   8.681  0.00  0.00     0.177 C 
BRANCH   2   3
HETATM    3  N   UNK N   1      34.388  17.016   9.892  0.00  0.00    -0.348 N 
HETATM    4  C   UNK N   1      34.855  15.829  10.354  0.00  0.00     0.214 C 
HETATM    5  C   UNK N   1      35.695  15.803  11.585  0.00  0.00     0.117 C 
HETATM    6  O   UNK N   1      34.595  14.784   9.779  0.00  0.00    -0.274 OA
HETATM    7  H   UNK N   1      34.598  17.829  10.407  0.00  0.00     0.163 HD
ENDBRANCH   2   3
BRANCH   2   8
HETATM    8  C   UNK N   1      33.925  18.485   8.039  0.00  0.00     0.258 C 
HETATM    9  O   UNK N   1      34.931  19.105   8.348  0.00  0.00    -0.305 OA
ENDBRANCH   2   8
ENDBRANCH   1   2
BRANCH   1  10
HETATM   10  O   UNK N   1      31.717  15.695   8.813  0.00  0.00    -0.390 OA
HETATM   11  H   UNK N   1      31.252  15.225   8.103  0.00  0.00     0.210 HD
ENDBRANCH   1  10
BRANCH   1  12
HETATM   12  C   UNK N   1      31.143  17.996   8.360  0.00  0.00     0.180 C 
BRANCH  12  13
HETATM   13  O   UNK N   1      30.647  17.429   7.181  0.00  0.00    -0.390 OA
HETATM   14  H   UNK N   1      30.791  17.028   6.309  0.00  0.00     0.210 HD
ENDBRANCH  12  13
BRANCH  12  15
HETATM   15  C   UNK N   1      29.976  18.433   9.275  0.00  0.00     0.173 C 
BRANCH  15  16
HETATM   16  O   UNK N   1      29.825  17.547  10.345  0.00  0.00    -0.391 OA
HETATM   17  H   UNK N   1      29.834  16.612  10.604  0.00  0.00     0.210 HD
ENDBRANCH  15  16
BRANCH  15  18
HETATM   18  C   UNK N   1      28.656  18.542   8.512  0.00  0.00     0.198 C 
BRANCH  18  19
HETATM   19  O   UNK N   1      27.561  18.285   9.339  0.00  0.00    -0.398 OA
HETATM   20  H   UNK N   1      26.691  17.856   9.361  0.00  0.00     0.209 HD
ENDBRANCH  18  19
ENDBRANCH  15  18
ENDBRANCH  12  15
ENDBRANCH   1  12
TORSDOF 10
ENDMDL
MODEL 9
REMARK VINA RESULT:      -4.7      1.529      2.091
REMARK  10 active torsions:
REMARK  status: ('A' for Active; 'I' for Inactive)
REMARK       I    between atoms: C_2  and  N_4 
REMARK    1  A    between atoms: C_5  and  N_4 
REMARK    2  A    between atoms: C_5  and  C_6 
REMARK    3  A    between atoms: C_5  and  C_8 
REMARK    4  A    between atoms: C_8  and  O_9 
REMARK    5  A    between atoms: C_8  and  C_10 
REMARK    6  A    between atoms: C_10  and  O_11 
REMARK    7  A    between atoms: C_10  and  C_12 
REMARK    8  A    between atoms: C_12  and  O_13 
REMARK    9  A    between atoms: C_12  and  C_14 
REMARK   10  A    between atoms: C_14  and  O_15 
ROOT
HETATM    1  C   UNK N   1      34.747  15.979  10.436  0.00  0.00     0.178 C 
ENDROOT
BRANCH   1   2
HETATM    2  C   UNK N   1      34.365  16.499   9.026  0.00  0.00     0.177 C 
BRANCH   2   3
HETATM    3  N   UNK N   1      32.918  16.617   8.975  0.00  0.00    -0.348 N 
HETATM    4  C   UNK N   1      32.264  17.701   8.486  0.00  0.00     0.214 C 
HETATM    5  C   UNK N   1      30.774  17.695   8.440  0.00  0.00     0.117 C 
HETATM    6  O   UNK N   1      32.876  18.677   8.087  0.00  0.00    -0.274 OA
HETATM    7  H   UNK N   1      32.381  15.865   9.315  0.00  0.00     0.163 HD
ENDBRANCH   2   3
BRANCH   2   8
HETATM    8  C   UNK N   1      34.822  15.596   7.909  0.00  0.00     0.258 C 
HETATM    9  O   UNK N   1      35.061  16.040   6.797  0.00  0.00    -0.305 OA
ENDBRANCH   2   8
ENDBRANCH   1   2
BRANCH   1  10
HETATM   10  O   UNK N   1      35.010  17.085  11.250  0.00  0.00    -0.390 OA
HETATM   11  H   UNK N   1      35.317  17.996  11.122  0.00  0.00     0.210 HD
ENDBRANCH   1  10
BRANCH   1  12
HETATM   12  C   UNK N   1      35.946  15.000  10.472  0.00  0.00     0.180 C 
BRANCH  12  13
HETATM   13  O   UNK N   1      37.107  15.664  10.881  0.00  0.00    -0.390 OA
HETATM   14  H   UNK N   1      37.555  16.322  11.435  0.00  0.00     0.210 HD
ENDBRANCH  12  13
BRANCH  12  15
HETATM   15  C   UNK N   1      35.676  13.782  11.384  0.00  0.00     0.173 C 
BRANCH  15  16
HETATM   16  O   UNK N   1      34.482  13.945  12.091  0.00  0.00    -0.391 OA
HETATM   17  H   UNK N   1      33.556  13.660  12.155  0.00  0.00     0.210 HD
ENDBRANCH  15  16
BRANCH  15  18
HETATM   18  C   UNK N   1      36.821  13.534  12.367  0.00  0.00     0.198 C 
BRANCH  18  19
HETATM   19  O   UNK N   1      36.781  14.424  13.440  0.00  0.00    -0.398 OA
HETATM   20  H   UNK N   1      37.216  14.647  14.278  0.00  0.00     0.209 HD
ENDBRANCH  18  19
ENDBRANCH  15  18
ENDBRANCH  12  15
ENDBRANCH   1  12
TORSDOF 10
ENDMDL
