MODEL 1
REMARK VINA RESULT:      -7.5      0.000      0.000
REMARK  4 active torsions:
REMARK  status: ('A' for Active; 'I' for Inactive)
REMARK    1  A    between atoms: O_23  and  C_11 
REMARK    2  A    between atoms: C_19  and  C_14 
REMARK    3  A    between atoms: N_21  and  C_17 
REMARK    4  A    between atoms: O_26  and  C_19 
ROOT
HETATM    1  C   UNK N   1      21.617  16.376   5.420  0.00  0.00     0.033 C 
HETATM    2  C   UNK N   1      23.979  16.082   6.028  0.00  0.00     0.030 C 
HETATM    3  C   UNK N   1      25.396  16.135   5.509  0.00  0.00     0.045 C 
HETATM    4  C   UNK N   1      26.255  20.016   3.843  0.00  0.00     0.062 A 
HETATM    5  C   UNK N   1      22.406  18.458   3.675  0.00  0.00     0.114 A 
HETATM    6  C   UNK N   1      23.045  16.437   4.888  0.00  0.00     0.086 C 
HETATM    7  C   UNK N   1      25.731  17.492   4.952  0.00  0.00    -0.001 A 
HETATM    8  C   UNK N   1      24.961  19.510   3.797  0.00  0.00     0.046 A 
HETATM    9  C   UNK N   1      22.647  19.700   3.090  0.00  0.00     0.104 A 
HETATM   10  C   UNK N   1      27.295  19.293   4.409  0.00  0.00     0.144 A 
HETATM   11  C   UNK N   1      24.679  18.248   4.361  0.00  0.00     0.057 A 
HETATM   12  C   UNK N   1      27.075  18.005   4.967  0.00  0.00     0.078 A 
HETATM   13  C   UNK N   1      23.941  20.243   3.168  0.00  0.00     0.202 A 
HETATM   14  F   UNK N   1      28.525  19.865   4.383  0.00  0.00    -0.204 F 
HETATM   15  N   UNK N   1      23.387  17.755   4.313  0.00  0.00    -0.350 N 
HETATM   16  O   UNK N   1      24.188  21.331   2.673  0.00  0.00    -0.286 OA
ENDROOT
BRANCH  12  17
HETATM   17  N   UNK N   1      28.193  17.250   5.513  0.00  0.00    -0.378 N 
HETATM   18  C   UNK N   1      28.415  17.084   6.933  0.00  0.00     0.125 C 
HETATM   19  C   UNK N   1      29.789  17.641   7.302  0.00  0.00     0.051 C 
HETATM   20  C   UNK N   1      30.881  16.992   6.447  0.00  0.00     0.121 C 
HETATM   21  C   UNK N   1      30.557  17.134   4.957  0.00  0.00     0.051 C 
HETATM   22  C   UNK N   1      29.159  16.598   4.652  0.00  0.00     0.125 C 
BRANCH  20  23
HETATM   23  O   UNK N   1      31.023  15.645   6.786  0.00  0.00    -0.395 OA
HETATM   24  H   UNK N   1      30.601  14.772   6.817  0.00  0.00     0.210 HD
ENDBRANCH  20  23
ENDBRANCH  12  17
BRANCH   9  25
HETATM   25  C   UNK N   1      21.530  20.386   2.387  0.00  0.00     0.181 C 
HETATM   26  O   UNK N   1      20.790  19.772   1.636  0.00  0.00    -0.646 OA
BRANCH  25  27
HETATM   27  O   UNK N   1      21.310  21.699   2.599  0.00  0.00    -0.772 OA
HETATM   28  H   UNK N   1      21.598  22.106   3.392  0.00  0.00     0.167 HD
ENDBRANCH  25  27
ENDBRANCH   9  25
TORSDOF 4
ENDMDL
MODEL 2
REMARK VINA RESULT:      -7.3      9.988     12.528
REMARK  4 active torsions:
REMARK  status: ('A' for Active; 'I' for Inactive)
REMARK    1  A    between atoms: O_23  and  C_11 
REMARK    2  A    between atoms: C_19  and  C_14 
REMARK    3  A    between atoms: N_21  and  C_17 
REMARK    4  A    between atoms: O_26  and  C_19 
ROOT
HETATM    1  C   UNK N   1      32.881  13.310   6.586  0.00  0.00     0.033 C 
HETATM    2  C   UNK N   1      33.341  11.894   8.540  0.00  0.00     0.030 C 
HETATM    3  C   UNK N   1      34.351  11.578   9.615  0.00  0.00     0.045 C 
HETATM    4  C   UNK N   1      35.302  15.113  11.890  0.00  0.00     0.062 A 
HETATM    5  C   UNK N   1      34.279  15.406   7.872  0.00  0.00     0.114 A 
HETATM    6  C   UNK N   1      33.906  13.001   7.671  0.00  0.00     0.086 C 
HETATM    7  C   UNK N   1      34.675  12.790  10.445  0.00  0.00    -0.001 A 
HETATM    8  C   UNK N   1      34.944  15.223  10.550  0.00  0.00     0.046 A 
HETATM    9  C   UNK N   1      34.615  16.571   8.560  0.00  0.00     0.104 A 
HETATM   10  C   UNK N   1      35.373  13.880  12.522  0.00  0.00     0.144 A 
HETATM   11  C   UNK N   1      34.615  14.066   9.814  0.00  0.00     0.057 A 
HETATM   12  C   UNK N   1      35.078  12.679  11.822  0.00  0.00     0.078 A 
HETATM   13  C   UNK N   1      34.937  16.480   9.925  0.00  0.00     0.202 A 
HETATM   14  F   UNK N   1      35.755  13.879  13.823  0.00  0.00    -0.204 F 
HETATM   15  N   UNK N   1      34.256  14.185   8.483  0.00  0.00    -0.350 N 
HETATM   16  O   UNK N   1      35.230  17.480  10.561  0.00  0.00    -0.286 OA
ENDROOT
BRANCH  12  17
HETATM   17  N   UNK N   1      35.205  11.396  12.497  0.00  0.00    -0.378 N 
HETATM   18  C   UNK N   1      34.071  10.659  13.010  0.00  0.00     0.125 C 
HETATM   19  C   UNK N   1      34.242  10.439  14.512  0.00  0.00     0.051 C 
HETATM   20  C   UNK N   1      35.580   9.758  14.808  0.00  0.00     0.121 C 
HETATM   21  C   UNK N   1      36.737  10.541  14.181  0.00  0.00     0.051 C 
HETATM   22  C   UNK N   1      36.495  10.765  12.688  0.00  0.00     0.125 C 
BRANCH  20  23
HETATM   23  O   UNK N   1      35.569   8.445  14.332  0.00  0.00    -0.395 OA
HETATM   24  H   UNK N   1      35.740   7.512  14.536  0.00  0.00     0.210 HD
ENDBRANCH  20  23
ENDBRANCH  12  17
BRANCH   9  25
HETATM   25  C   UNK N   1      34.645  17.856   7.812  0.00  0.00     0.181 C 
HETATM   26  O   UNK N   1      34.300  17.910   6.643  0.00  0.00    -0.646 OA
BRANCH  25  27
HETATM   27  O   UNK N   1      35.030  18.987   8.437  0.00  0.00    -0.772 OA
HETATM   28  H   UNK N   1      34.579  19.282   9.204  0.00  0.00     0.167 HD
ENDBRANCH  25  27
ENDBRANCH   9  25
TORSDOF 4
ENDMDL
MODEL 3
REMARK VINA RESULT:      -7.2      5.256      8.751
REMARK  4 active torsions:
REMARK  status: ('A' for Active; 'I' for Inactive)
REMARK    1  A    between atoms: O_23  and  C_11 
REMARK    2  A    between atoms: C_19  and  C_14 
REMARK    3  A    between atoms: N_21  and  C_17 
REMARK    4  A    between atoms: O_26  and  C_19 
ROOT
HETATM    1  C   UNK N   1      29.745  18.596   9.772  0.00  0.00     0.033 C 
HETATM    2  C   UNK N   1      28.572  17.295   8.050  0.00  0.00     0.030 C 
HETATM    3  C   UNK N   1      28.549  16.940   6.583  0.00  0.00     0.045 C 
HETATM    4  C   UNK N   1      32.318  15.230   5.380  0.00  0.00     0.062 A 
HETATM    5  C   UNK N   1      32.166  18.073   8.408  0.00  0.00     0.114 A 
HETATM    6  C   UNK N   1      29.733  18.240   8.289  0.00  0.00     0.086 C 
HETATM    7  C   UNK N   1      29.844  16.310   6.146  0.00  0.00    -0.001 A 
HETATM    8  C   UNK N   1      32.275  16.168   6.406  0.00  0.00     0.046 A 
HETATM    9  C   UNK N   1      33.411  17.574   8.025  0.00  0.00     0.104 A 
HETATM   10  C   UNK N   1      31.168  14.830   4.716  0.00  0.00     0.144 A 
HETATM   11  C   UNK N   1      31.038  16.711   6.810  0.00  0.00     0.057 A 
HETATM   12  C   UNK N   1      29.897  15.364   5.063  0.00  0.00     0.078 A 
HETATM   13  C   UNK N   1      33.464  16.593   7.020  0.00  0.00     0.202 A 
HETATM   14  F   UNK N   1      31.320  13.928   3.715  0.00  0.00    -0.204 F 
HETATM   15  N   UNK N   1      31.006  17.641   7.834  0.00  0.00    -0.350 N 
HETATM   16  O   UNK N   1      34.536  16.129   6.664  0.00  0.00    -0.286 OA
ENDROOT
BRANCH  12  17
HETATM   17  N   UNK N   1      28.713  14.961   4.319  0.00  0.00    -0.378 N 
HETATM   18  C   UNK N   1      27.878  13.845   4.708  0.00  0.00     0.125 C 
HETATM   19  C   UNK N   1      27.827  12.827   3.571  0.00  0.00     0.051 C 
HETATM   20  C   UNK N   1      27.366  13.492   2.272  0.00  0.00     0.121 C 
HETATM   21  C   UNK N   1      28.239  14.708   1.948  0.00  0.00     0.051 C 
HETATM   22  C   UNK N   1      28.286  15.673   3.131  0.00  0.00     0.125 C 
BRANCH  20  23
HETATM   23  O   UNK N   1      26.025  13.869   2.371  0.00  0.00    -0.395 OA
HETATM   24  H   UNK N   1      25.385  14.594   2.302  0.00  0.00     0.210 HD
ENDBRANCH  20  23
ENDBRANCH  12  17
BRANCH   9  25
HETATM   25  C   UNK N   1      34.629  18.119   8.680  0.00  0.00     0.181 C 
HETATM   26  O   UNK N   1      35.074  19.211   8.367  0.00  0.00    -0.646 OA
BRANCH  25  27
HETATM   27  O   UNK N   1      35.241  17.414   9.653  0.00  0.00    -0.772 OA
HETATM   28  H   UNK N   1      34.736  16.966  10.303  0.00  0.00     0.167 HD
ENDBRANCH  25  27
ENDBRANCH   9  25
TORSDOF 4
ENDMDL
MODEL 4
REMARK VINA RESULT:      -7.1     11.177     13.348
REMARK  4 active torsions:
REMARK  status: ('A' for Active; 'I' for Inactive)
REMARK    1  A    between atoms: O_23  and  C_11 
REMARK    2  A    between atoms: C_19  and  C_14 
REMARK    3  A    between atoms: N_21  and  C_17 
REMARK    4  A    between atoms: O_26  and  C_19 
ROOT
HETATM    1  C   UNK N   1      31.702  21.484  -3.101  0.00  0.00     0.033 C 
HETATM    2  C   UNK N   1      30.399  23.540  -2.770  0.00  0.00     0.030 C 
HETATM    3  C   UNK N   1      29.820  24.751  -3.462  0.00  0.00     0.045 C 
HETATM    4  C   UNK N   1      27.210  23.554  -6.677  0.00  0.00     0.062 A 
HETATM    5  C   UNK N   1      30.484  21.212  -5.639  0.00  0.00     0.114 A 
HETATM    6  C   UNK N   1      31.116  22.701  -3.809  0.00  0.00     0.086 C 
HETATM    7  C   UNK N   1      28.879  24.358  -4.569  0.00  0.00    -0.001 A 
HETATM    8  C   UNK N   1      28.293  22.755  -6.326  0.00  0.00     0.046 A 
HETATM    9  C   UNK N   1      29.688  20.807  -6.709  0.00  0.00     0.104 A 
HETATM   10  C   UNK N   1      26.947  24.747  -6.020  0.00  0.00     0.144 A 
HETATM   11  C   UNK N   1      29.134  23.140  -5.260  0.00  0.00     0.057 A 
HETATM   12  C   UNK N   1      27.777  25.197  -4.957  0.00  0.00     0.078 A 
HETATM   13  C   UNK N   1      28.565  21.582  -7.047  0.00  0.00     0.202 A 
HETATM   14  F   UNK N   1      25.881  25.464  -6.454  0.00  0.00    -0.204 F 
HETATM   15  N   UNK N   1      30.207  22.337  -4.916  0.00  0.00    -0.350 N 
HETATM   16  O   UNK N   1      27.842  21.254  -7.974  0.00  0.00    -0.286 OA
ENDROOT
BRANCH  12  17
HETATM   17  N   UNK N   1      27.504  26.475  -4.316  0.00  0.00    -0.378 N 
HETATM   18  C   UNK N   1      26.530  26.635  -3.258  0.00  0.00     0.125 C 
HETATM   19  C   UNK N   1      25.477  27.656  -3.684  0.00  0.00     0.051 C 
HETATM   20  C   UNK N   1      26.138  28.974  -4.092  0.00  0.00     0.121 C 
HETATM   21  C   UNK N   1      27.208  28.736  -5.161  0.00  0.00     0.051 C 
HETATM   22  C   UNK N   1      28.212  27.681  -4.698  0.00  0.00     0.125 C 
BRANCH  20  23
HETATM   23  O   UNK N   1      26.698  29.600  -2.976  0.00  0.00    -0.395 OA
HETATM   24  H   UNK N   1      27.259  30.322  -2.653  0.00  0.00     0.210 HD
ENDBRANCH  20  23
ENDBRANCH  12  17
BRANCH   9  25
HETATM   25  C   UNK N   1      30.076  19.585  -7.463  0.00  0.00     0.181 C 
HETATM   26  O   UNK N   1      31.224  19.422  -7.846  0.00  0.00    -0.646 OA
BRANCH  25  27
HETATM   27  O   UNK N   1      29.160  18.628  -7.708  0.00  0.00    -0.772 OA
HETATM   28  H   UNK N   1      28.904  18.032  -7.032  0.00  0.00     0.167 HD
ENDBRANCH  25  27
ENDBRANCH   9  25
TORSDOF 4
ENDMDL
MODEL 5
REMARK VINA RESULT:      -7.0      6.878     11.446
REMARK  4 active torsions:
REMARK  status: ('A' for Active; 'I' for Inactive)
REMARK    1  A    between atoms: O_23  and  C_11 
REMARK    2  A    between atoms: C_19  and  C_14 
REMARK    3  A    between atoms: N_21  and  C_17 
REMARK    4  A    between atoms: O_26  and  C_19 
ROOT
HETATM    1  C   UNK N   1      34.521  11.092   8.908  0.00  0.00     0.033 C 
HETATM    2  C   UNK N   1      33.765  12.618   7.137  0.00  0.00     0.030 C 
HETATM    3  C   UNK N   1      32.952  13.857   6.849  0.00  0.00     0.045 C 
HETATM    4  C   UNK N   1      34.385  17.187   9.179  0.00  0.00     0.062 A 
HETATM    5  C   UNK N   1      34.659  13.312  10.655  0.00  0.00     0.114 A 
HETATM    6  C   UNK N   1      33.700  12.346   8.627  0.00  0.00     0.086 C 
HETATM    7  C   UNK N   1      33.455  15.042   7.627  0.00  0.00    -0.001 A 
HETATM    8  C   UNK N   1      34.497  15.892   9.674  0.00  0.00     0.046 A 
HETATM    9  C   UNK N   1      35.101  14.362  11.458  0.00  0.00     0.104 A 
HETATM   10  C   UNK N   1      33.808  17.443   7.944  0.00  0.00     0.144 A 
HETATM   11  C   UNK N   1      34.045  14.803   8.901  0.00  0.00     0.057 A 
HETATM   12  C   UNK N   1      33.311  16.386   7.133  0.00  0.00     0.078 A 
HETATM   13  C   UNK N   1      35.034  15.672  10.952  0.00  0.00     0.202 A 
HETATM   14  F   UNK N   1      33.726  18.742   7.562  0.00  0.00    -0.204 F 
HETATM   15  N   UNK N   1      34.163  13.518   9.400  0.00  0.00    -0.350 N 
HETATM   16  O   UNK N   1      35.417  16.616  11.625  0.00  0.00    -0.286 OA
ENDROOT
BRANCH  12  17
HETATM   17  N   UNK N   1      32.670  16.688   5.862  0.00  0.00    -0.378 N 
HETATM   18  C   UNK N   1      31.244  16.889   5.725  0.00  0.00     0.125 C 
HETATM   19  C   UNK N   1      30.679  15.875   4.733  0.00  0.00     0.051 C 
HETATM   20  C   UNK N   1      31.424  15.954   3.398  0.00  0.00     0.121 C 
HETATM   21  C   UNK N   1      32.934  15.807   3.611  0.00  0.00     0.051 C 
HETATM   22  C   UNK N   1      33.437  16.819   4.639  0.00  0.00     0.125 C 
BRANCH  20  23
HETATM   23  O   UNK N   1      31.140  17.161   2.757  0.00  0.00    -0.395 OA
HETATM   24  H   UNK N   1      31.446  18.060   2.558  0.00  0.00     0.210 HD
ENDBRANCH  20  23
ENDBRANCH  12  17
BRANCH   9  25
HETATM   25  C   UNK N   1      35.599  14.054  12.824  0.00  0.00     0.181 C 
HETATM   26  O   UNK N   1      34.937  13.382  13.598  0.00  0.00    -0.646 OA
BRANCH  25  27
HETATM   27  O   UNK N   1      36.812  14.497  13.212  0.00  0.00    -0.772 OA
HETATM   28  H   UNK N   1      37.337  15.013  12.631  0.00  0.00     0.167 HD
ENDBRANCH  25  27
ENDBRANCH   9  25
TORSDOF 4
ENDMDL
MODEL 6
REMARK VINA RESULT:      -6.9      3.241      5.018
REMARK  4 active torsions:
REMARK  status: ('A' for Active; 'I' for Inactive)
REMARK    1  A    between atoms: O_23  and  C_11 
REMARK    2  A    between atoms: C_19  and  C_14 
REMARK    3  A    between atoms: N_21  and  C_17 
REMARK    4  A    between atoms: O_26  and  C_19 
ROOT
HETATM    1  C   UNK N   1      28.564  15.789   2.754  0.00  0.00     0.033 C 
HETATM    2  C   UNK N   1      30.030  15.503   4.704  0.00  0.00     0.030 C 
HETATM    3  C   UNK N   1      30.876  16.230   5.720  0.00  0.00     0.045 C 
HETATM    4  C   UNK N   1      28.518  19.137   7.857  0.00  0.00     0.062 A 
HETATM    5  C   UNK N   1      27.631  18.198   3.906  0.00  0.00     0.114 A 
HETATM    6  C   UNK N   1      29.413  16.533   3.779  0.00  0.00     0.086 C 
HETATM    7  C   UNK N   1      30.067  17.228   6.502  0.00  0.00    -0.001 A 
HETATM    8  C   UNK N   1      28.203  18.817   6.540  0.00  0.00     0.046 A 
HETATM    9  C   UNK N   1      26.866  19.171   4.547  0.00  0.00     0.104 A 
HETATM   10  C   UNK N   1      29.591  18.547   8.508  0.00  0.00     0.144 A 
HETATM   11  C   UNK N   1      28.965  17.851   5.850  0.00  0.00     0.057 A 
HETATM   12  C   UNK N   1      30.409  17.587   7.853  0.00  0.00     0.078 A 
HETATM   13  C   UNK N   1      27.145  19.473   5.891  0.00  0.00     0.202 A 
HETATM   14  F   UNK N   1      29.828  18.944   9.783  0.00  0.00    -0.204 F 
HETATM   15  N   UNK N   1      28.641  17.537   4.542  0.00  0.00    -0.350 N 
HETATM   16  O   UNK N   1      26.492  20.315   6.485  0.00  0.00    -0.286 OA
ENDROOT
BRANCH  12  17
HETATM   17  N   UNK N   1      31.555  17.018   8.546  0.00  0.00    -0.378 N 
HETATM   18  C   UNK N   1      32.861  17.642   8.558  0.00  0.00     0.125 C 
HETATM   19  C   UNK N   1      33.890  16.680   7.968  0.00  0.00     0.051 C 
HETATM   20  C   UNK N   1      33.863  15.340   8.706  0.00  0.00     0.121 C 
HETATM   21  C   UNK N   1      32.445  14.762   8.726  0.00  0.00     0.051 C 
HETATM   22  C   UNK N   1      31.452  15.778   9.290  0.00  0.00     0.125 C 
BRANCH  20  23
HETATM   23  O   UNK N   1      34.340  15.497  10.009  0.00  0.00    -0.395 OA
HETATM   24  H   UNK N   1      34.785  16.086  10.640  0.00  0.00     0.210 HD
ENDBRANCH  20  23
ENDBRANCH  12  17
BRANCH   9  25
HETATM   25  C   UNK N   1      25.803  19.866   3.772  0.00  0.00     0.181 C 
HETATM   26  O   UNK N   1      26.082  20.568   2.814  0.00  0.00    -0.646 OA
BRANCH  25  27
HETATM   27  O   UNK N   1      24.509  19.701   4.112  0.00  0.00    -0.772 OA
HETATM   28  H   UNK N   1      23.837  19.758   3.461  0.00  0.00     0.167 HD
ENDBRANCH  25  27
ENDBRANCH   9  25
TORSDOF 4
ENDMDL
MODEL 7
REMARK VINA RESULT:      -6.8      7.892     13.153
REMARK  4 active torsions:
REMARK  status: ('A' for Active; 'I' for Inactive)
REMARK    1  A    between atoms: O_23  and  C_11 
REMARK    2  A    between atoms: C_19  and  C_14 
REMARK    3  A    between atoms: N_21  and  C_17 
REMARK    4  A    between atoms: O_26  and  C_19 
ROOT
HETATM    1  C   UNK N   1      35.277   9.933  11.003  0.00  0.00     0.033 C 
HETATM    2  C   UNK N   1      34.451  11.438   9.245  0.00  0.00     0.030 C 
HETATM    3  C   UNK N   1      33.653  12.691   8.977  0.00  0.00     0.045 C 
HETATM    4  C   UNK N   1      35.313  16.035  11.130  0.00  0.00     0.062 A 
HETATM    5  C   UNK N   1      35.581  12.189  12.682  0.00  0.00     0.114 A 
HETATM    6  C   UNK N   1      34.473  11.203  10.742  0.00  0.00     0.086 C 
HETATM    7  C   UNK N   1      34.233  13.880   9.693  0.00  0.00    -0.001 A 
HETATM    8  C   UNK N   1      35.423  14.749  11.649  0.00  0.00     0.046 A 
HETATM    9  C   UNK N   1      36.099  13.246  13.430  0.00  0.00     0.104 A 
HETATM   10  C   UNK N   1      34.667  16.277   9.927  0.00  0.00     0.144 A 
HETATM   11  C   UNK N   1      34.896  13.655  10.933  0.00  0.00     0.057 A 
HETATM   12  C   UNK N   1      34.093  15.216   9.176  0.00  0.00     0.078 A 
HETATM   13  C   UNK N   1      36.034  14.545  12.897  0.00  0.00     0.202 A 
HETATM   14  F   UNK N   1      34.594  17.568   9.519  0.00  0.00    -0.204 F 
HETATM   15  N   UNK N   1      35.013  12.379  11.456  0.00  0.00    -0.350 N 
HETATM   16  O   UNK N   1      36.482  15.493  13.520  0.00  0.00    -0.286 OA
ENDROOT
BRANCH  12  17
HETATM   17  N   UNK N   1      33.382  15.504   7.939  0.00  0.00    -0.378 N 
HETATM   18  C   UNK N   1      34.036  15.579   6.651  0.00  0.00     0.125 C 
HETATM   19  C   UNK N   1      33.803  16.960   6.041  0.00  0.00     0.051 C 
HETATM   20  C   UNK N   1      32.307  17.273   5.970  0.00  0.00     0.121 C 
HETATM   21  C   UNK N   1      31.653  17.107   7.345  0.00  0.00     0.051 C 
HETATM   22  C   UNK N   1      31.949  15.724   7.924  0.00  0.00     0.125 C 
BRANCH  20  23
HETATM   23  O   UNK N   1      31.684  16.445   5.034  0.00  0.00    -0.395 OA
HETATM   24  H   UNK N   1      31.431  15.538   4.802  0.00  0.00     0.210 HD
ENDBRANCH  20  23
ENDBRANCH  12  17
BRANCH   9  25
HETATM   25  C   UNK N   1      36.674  12.956  14.770  0.00  0.00     0.181 C 
HETATM   26  O   UNK N   1      36.340  11.963  15.395  0.00  0.00    -0.646 OA
BRANCH  25  27
HETATM   27  O   UNK N   1      37.599  13.784  15.297  0.00  0.00    -0.772 OA
HETATM   28  H   UNK N   1      38.458  13.831  14.927  0.00  0.00     0.167 HD
ENDBRANCH  25  27
ENDBRANCH   9  25
TORSDOF 4
ENDMDL
MODEL 8
REMARK VINA RESULT:      -6.7     10.231     11.572
REMARK  4 active torsions:
REMARK  status: ('A' for Active; 'I' for Inactive)
REMARK    1  A    between atoms: O_23  and  C_11 
REMARK    2  A    between atoms: C_19  and  C_14 
REMARK    3  A    between atoms: N_21  and  C_17 
REMARK    4  A    between atoms: O_26  and  C_19 
ROOT
HETATM    1  C   UNK N   1      27.018  24.176  -8.580  0.00  0.00     0.033 C 
HETATM    2  C   UNK N   1      28.620  22.740  -7.395  0.00  0.00     0.030 C 
HETATM    3  C   UNK N   1      29.699  22.715  -6.339  0.00  0.00     0.045 C 
HETATM    4  C   UNK N   1      28.184  24.206  -2.589  0.00  0.00     0.062 A 
HETATM    5  C   UNK N   1      26.688  25.649  -6.189  0.00  0.00     0.114 A 
HETATM    6  C   UNK N   1      28.103  24.160  -7.509  0.00  0.00     0.086 C 
HETATM    7  C   UNK N   1      29.185  23.201  -5.011  0.00  0.00    -0.001 A 
HETATM    8  C   UNK N   1      27.665  24.683  -3.789  0.00  0.00     0.046 A 
HETATM    9  C   UNK N   1      26.196  26.187  -5.000  0.00  0.00     0.104 A 
HETATM   10  C   UNK N   1      29.197  23.258  -2.565  0.00  0.00     0.144 A 
HETATM   11  C   UNK N   1      28.149  24.178  -5.014  0.00  0.00     0.057 A 
HETATM   12  C   UNK N   1      29.741  22.735  -3.769  0.00  0.00     0.078 A 
HETATM   13  C   UNK N   1      26.680  25.683  -3.780  0.00  0.00     0.202 A 
HETATM   14  F   UNK N   1      29.649  22.877  -1.345  0.00  0.00    -0.204 F 
HETATM   15  N   UNK N   1      27.625  24.657  -6.201  0.00  0.00    -0.350 N 
HETATM   16  O   UNK N   1      26.267  26.125  -2.720  0.00  0.00    -0.286 OA
ENDROOT
BRANCH  12  17
HETATM   17  N   UNK N   1      30.834  21.776  -3.713  0.00  0.00    -0.378 N 
HETATM   18  C   UNK N   1      32.187  22.140  -3.351  0.00  0.00     0.125 C 
HETATM   19  C   UNK N   1      33.134  21.779  -4.493  0.00  0.00     0.051 C 
HETATM   20  C   UNK N   1      32.993  20.301  -4.865  0.00  0.00     0.121 C 
HETATM   21  C   UNK N   1      31.532  19.955  -5.166  0.00  0.00     0.051 C 
HETATM   22  C   UNK N   1      30.626  20.372  -4.009  0.00  0.00     0.125 C 
BRANCH  20  23
HETATM   23  O   UNK N   1      33.479  19.495  -3.832  0.00  0.00    -0.395 OA
HETATM   24  H   UNK N   1      33.372  18.668  -3.338  0.00  0.00     0.210 HD
ENDBRANCH  20  23
ENDBRANCH  12  17
BRANCH   9  25
HETATM   25  C   UNK N   1      25.198  27.287  -5.075  0.00  0.00     0.181 C 
HETATM   26  O   UNK N   1      24.279  27.248  -5.876  0.00  0.00    -0.646 OA
BRANCH  25  27
HETATM   27  O   UNK N   1      25.289  28.334  -4.229  0.00  0.00    -0.772 OA
HETATM   28  H   UNK N   1      24.524  28.819  -3.992  0.00  0.00     0.167 HD
ENDBRANCH  25  27
ENDBRANCH   9  25
TORSDOF 4
ENDMDL
MODEL 9
REMARK VINA RESULT:      -6.7      2.651      7.975
REMARK  4 active torsions:
REMARK  status: ('A' for Active; 'I' for Inactive)
REMARK    1  A    between atoms: O_23  and  C_11 
REMARK    2  A    between atoms: C_19  and  C_14 
REMARK    3  A    between atoms: N_21  and  C_17 
REMARK    4  A    between atoms: O_26  and  C_19 
ROOT
HETATM    1  C   UNK N   1      30.176  17.738   9.386  0.00  0.00     0.033 C 
HETATM    2  C   UNK N   1      28.176  17.367   8.010  0.00  0.00     0.030 C 
HETATM    3  C   UNK N   1      27.553  17.615   6.657  0.00  0.00     0.045 C 
HETATM    4  C   UNK N   1      30.063  16.047   3.523  0.00  0.00     0.062 A 
HETATM    5  C   UNK N   1      31.741  17.485   7.044  0.00  0.00     0.114 A 
HETATM    6  C   UNK N   1      29.558  17.990   8.015  0.00  0.00     0.086 C 
HETATM    7  C   UNK N   1      28.396  17.047   5.547  0.00  0.00    -0.001 A 
HETATM    8  C   UNK N   1      30.632  16.510   4.705  0.00  0.00     0.046 A 
HETATM    9  C   UNK N   1      32.592  17.021   6.042  0.00  0.00     0.104 A 
HETATM   10  C   UNK N   1      28.692  16.085   3.317  0.00  0.00     0.144 A 
HETATM   11  C   UNK N   1      29.807  17.005   5.736  0.00  0.00     0.057 A 
HETATM   12  C   UNK N   1      27.814  16.598   4.311  0.00  0.00     0.078 A 
HETATM   13  C   UNK N   1      32.028  16.510   4.860  0.00  0.00     0.202 A 
HETATM   14  F   UNK N   1      28.239  15.631   2.122  0.00  0.00    -0.204 F 
HETATM   15  N   UNK N   1      30.383  17.460   6.909  0.00  0.00    -0.350 N 
HETATM   16  O   UNK N   1      32.742  16.090   3.964  0.00  0.00    -0.286 OA
ENDROOT
BRANCH  12  17
HETATM   17  N   UNK N   1      26.384  16.667   4.049  0.00  0.00    -0.378 N 
HETATM   18  C   UNK N   1      25.748  17.816   3.442  0.00  0.00     0.125 C 
HETATM   19  C   UNK N   1      24.680  18.365   4.386  0.00  0.00     0.051 C 
HETATM   20  C   UNK N   1      23.686  17.267   4.773  0.00  0.00     0.121 C 
HETATM   21  C   UNK N   1      24.420  16.049   5.341  0.00  0.00     0.051 C 
HETATM   22  C   UNK N   1      25.500  15.566   4.375  0.00  0.00     0.125 C 
BRANCH  20  23
HETATM   23  O   UNK N   1      22.919  16.898   3.666  0.00  0.00    -0.395 OA
HETATM   24  H   UNK N   1      22.404  16.195   3.240  0.00  0.00     0.210 HD
ENDBRANCH  20  23
ENDBRANCH  12  17
BRANCH   9  25
HETATM   25  C   UNK N   1      34.060  17.112   6.256  0.00  0.00     0.181 C 
HETATM   26  O   UNK N   1      34.548  18.038   6.883  0.00  0.00    -0.646 OA
BRANCH  25  27
HETATM   27  O   UNK N   1      34.870  16.145   5.777  0.00  0.00    -0.772 OA
HETATM   28  H   UNK N   1      35.550  15.788   6.313  0.00  0.00     0.167 HD
ENDBRANCH  25  27
ENDBRANCH   9  25
TORSDOF 4
ENDMDL
