REMARK  5 active torsions:
REMARK  status: ('A' for Active; 'I' for Inactive)
REMARK    1  A    between atoms: C_16  and  C_14 
REMARK    2  A    between atoms: C_17  and  C_14 
REMARK    3  A    between atoms: C_16  and  C_15 
REMARK    4  A    between atoms: N_20  and  C_15 
REMARK    5  A    between atoms: C_19  and  C_18 
ROOT
HETATM    1  C   UNK N   1      -2.803   8.919   0.851  0.00  0.00     0.007 A 
HETATM    2  C   UNK N   1      -3.473   8.037  -1.301  0.00  0.00     0.007 A 
HETATM    3  C   UNK N   1      -3.990   9.643   0.927  0.00  0.00     0.008 A 
HETATM    4  C   UNK N   1      -4.660   8.766  -1.230  0.00  0.00     0.008 A 
HETATM    5  C   UNK N   1      -2.548   8.101  -0.256  0.00  0.00    -0.058 A 
HETATM    6  C   UNK N   1      -4.944   9.562  -0.104  0.00  0.00    -0.051 A 
ENDROOT
BRANCH   5   7
HETATM    7  C   UNK N   1      -1.359   7.201  -0.269  0.00  0.00     0.044 C 
BRANCH   7   8
HETATM    8  C   UNK N   1      -1.424   6.215   0.906  0.00  0.00     0.014 C 
HETATM    9  C   UNK N   1      -2.774   5.514   1.030  0.00  0.00     0.012 C 
BRANCH   8  10
HETATM   10  C   UNK N   1      -0.281   5.198   0.892  0.00  0.00     0.277 C 
BRANCH  10  11
HETATM   11  N   UNK N   1      -0.085   4.536  -0.406  0.00  0.00     0.088 N 
HETATM   12  C   UNK N   1       1.095   3.666  -0.329  0.00  0.00     0.272 C 
HETATM   13  C   UNK N   1       0.865   2.464   0.597  0.00  0.00     0.030 C 
HETATM   14  C   UNK N   1      -0.343   1.669   0.122  0.00  0.00     0.003 C 
HETATM   15  C   UNK N   1      -1.559   2.578   0.052  0.00  0.00     0.030 C 
HETATM   16  C   UNK N   1      -1.257   3.769  -0.859  0.00  0.00     0.272 C 
ENDBRANCH  10  11
ENDBRANCH   8  10
ENDBRANCH   7   8
ENDBRANCH   5   7
BRANCH   6  17
HETATM   17  C   UNK N   1      -6.265  10.288   0.039  0.00  0.00    -0.024 C 
HETATM   18  C   UNK N   1      -7.177  10.097  -1.165  0.00  0.00     0.019 C 
HETATM   19  C   UNK N   1      -6.998   9.759   1.260  0.00  0.00     0.019 C 
HETATM   20  C   UNK N   1      -6.029  11.776   0.218  0.00  0.00     0.019 C 
ENDBRANCH   6  17
TORSDOF 5
