MODEL 1
REMARK VINA RESULT:      -7.3      0.000      0.000
REMARK  10 active torsions:
REMARK  status: ('A' for Active; 'I' for Inactive)
REMARK    1  A    between atoms: C_6  and  C_7 
REMARK    2  A    between atoms: C_7  and  C_8 
REMARK    3  A    between atoms: C_8  and  O_9 
REMARK    4  A    between atoms: O_9  and  C_10 
REMARK    5  A    between atoms: C_13  and  N_31 
REMARK    6  A    between atoms: C_22  and  N_18 
REMARK    7  A    between atoms: C_23  and  O_30 
REMARK    8  A    between atoms: C_24  and  O_29 
REMARK    9  A    between atoms: C_25  and  C_27 
REMARK   10  A    between atoms: C_27  and  O_28 
ROOT
HETATM    1  C   UNK N   1      22.902  19.880   3.124  0.00  0.00     0.226 A 
HETATM    2  N   UNK N   1      22.195  20.582   2.169  0.00  0.00    -0.306 N 
ATOM      3  HN  UNK N   1      22.618  21.400   1.732  1.00  0.00     0.171 HD
HETATM    4  C   UNK N   1      20.934  20.197   1.800  0.00  0.00     0.133 A 
HETATM    5  C   UNK N   1      20.389  19.084   2.420  0.00  0.00     0.122 A 
HETATM    6  C   UNK N   1      21.101  18.408   3.339  0.00  0.00     0.144 A 
HETATM    7  N   UNK N   1      22.350  18.776   3.706  0.00  0.00    -0.306 N 
ATOM      8  HN  UNK N   1      22.868  18.239   4.403  1.00  0.00     0.171 HD
HETATM    9  N   UNK N   1      20.387  17.367   3.786  0.00  0.00    -0.297 N 
HETATM   10  C   UNK N   1      19.209  17.435   3.112  0.00  0.00     0.188 A 
HETATM   11  N   UNK N   1      19.186  18.497   2.255  0.00  0.00    -0.346 N 
ATOM     12  HN  UNK N   1      18.431  18.783   1.632  1.00  0.00     0.167 HD
ENDROOT
BRANCH   9  13
HETATM   13  C   UNK N   1      20.795  16.340   4.750  0.00  0.00     0.262 C 
HETATM   14  C   UNK N   1      20.230  16.601   6.130  0.00  0.00     0.198 C 
HETATM   15  C   UNK N   1      21.219  15.844   6.943  0.00  0.00     0.182 C 
HETATM   16  C   UNK N   1      22.479  16.291   6.244  0.00  0.00     0.179 C 
HETATM   17  O   UNK N   1      22.203  16.270   4.866  0.00  0.00    -0.353 OA
BRANCH  14  18
HETATM   18  O   UNK N   1      18.951  16.063   6.264  0.00  0.00    -0.388 OA
HETATM   19  H   UNK N   1      18.296  16.440   6.873  0.00  0.00     0.210 HD
ENDBRANCH  14  18
BRANCH  15  20
HETATM   20  O   UNK N   1      21.197  16.244   8.279  0.00  0.00    -0.390 OA
HETATM   21  H   UNK N   1      21.389  16.991   8.866  0.00  0.00     0.210 HD
ENDBRANCH  15  20
BRANCH  16  22
HETATM   22  C   UNK N   1      23.655  15.380   6.555  0.00  0.00     0.198 C 
BRANCH  22  23
HETATM   23  O   UNK N   1      23.263  14.366   7.427  0.00  0.00    -0.398 OA
HETATM   24  H   UNK N   1      23.216  14.279   8.392  0.00  0.00     0.209 HD
ENDBRANCH  22  23
ENDBRANCH  16  22
ENDBRANCH   9  13
BRANCH   4  25
HETATM   25  N   UNK N   1      20.223  20.915   0.817  0.00  0.00    -0.383 N 
HETATM   26  H   UNK N   1      20.428  20.793  -0.137  0.00  0.00     0.157 HD
HETATM   27  H   UNK N   1      19.514  21.543   1.088  0.00  0.00     0.157 HD
ENDBRANCH   4  25
BRANCH   1  28
HETATM   28  O   UNK N   1      24.136  20.273   3.508  0.00  0.00    -0.322 OA
BRANCH  28  29
HETATM   29  C   UNK N   1      25.276  19.784   2.922  0.00  0.00     0.183 C 
BRANCH  29  30
HETATM   30  C   UNK N   1      26.463  20.637   3.326  0.00  0.00     0.065 C 
BRANCH  30  31
HETATM   31  C   UNK N   1      26.988  20.172   4.638  0.00  0.00    -0.056 A 
HETATM   32  C   UNK N   1      27.711  18.975   4.716  0.00  0.00     0.009 A 
HETATM   33  C   UNK N   1      28.208  18.534   5.944  0.00  0.00     0.024 A 
HETATM   34  C   UNK N   1      27.977  19.286   7.099  0.00  0.00     0.034 A 
HETATM   35  C   UNK N   1      27.250  20.479   7.026  0.00  0.00     0.024 A 
HETATM   36 Cl   UNK N   1      28.599  18.729   8.636  0.00  0.00    -0.084 Cl
HETATM   37  C   UNK N   1      26.755  20.922   5.795  0.00  0.00     0.009 A 
ENDBRANCH  30  31
ENDBRANCH  29  30
ENDBRANCH  28  29
ENDBRANCH   1  28
TORSDOF 10
ENDMDL
MODEL 2
REMARK VINA RESULT:      -7.2      1.211      1.639
REMARK  10 active torsions:
REMARK  status: ('A' for Active; 'I' for Inactive)
REMARK    1  A    between atoms: C_6  and  C_7 
REMARK    2  A    between atoms: C_7  and  C_8 
REMARK    3  A    between atoms: C_8  and  O_9 
REMARK    4  A    between atoms: O_9  and  C_10 
REMARK    5  A    between atoms: C_13  and  N_31 
REMARK    6  A    between atoms: C_22  and  N_18 
REMARK    7  A    between atoms: C_23  and  O_30 
REMARK    8  A    between atoms: C_24  and  O_29 
REMARK    9  A    between atoms: C_25  and  C_27 
REMARK   10  A    between atoms: C_27  and  O_28 
ROOT
HETATM    1  C   UNK N   1      22.987  20.014   3.052  0.00  0.00     0.226 A 
HETATM    2  N   UNK N   1      22.226  20.613   2.068  0.00  0.00    -0.306 N 
ATOM      3  HN  UNK N   1      22.613  21.397   1.543  1.00  0.00     0.171 HD
HETATM    4  C   UNK N   1      20.961  20.172   1.787  0.00  0.00     0.133 A 
HETATM    5  C   UNK N   1      20.467  19.108   2.526  0.00  0.00     0.122 A 
HETATM    6  C   UNK N   1      21.230  18.532   3.472  0.00  0.00     0.144 A 
HETATM    7  N   UNK N   1      22.484  18.956   3.754  0.00  0.00    -0.306 N 
ATOM      8  HN  UNK N   1      23.041  18.495   4.473  1.00  0.00     0.171 HD
HETATM    9  N   UNK N   1      20.559  17.523   4.040  0.00  0.00    -0.297 N 
HETATM   10  C   UNK N   1      19.353  17.506   3.412  0.00  0.00     0.188 A 
HETATM   11  N   UNK N   1      19.273  18.486   2.465  0.00  0.00    -0.346 N 
ATOM     12  HN  UNK N   1      18.487  18.699   1.850  1.00  0.00     0.167 HD
ENDROOT
BRANCH   9  13
HETATM   13  C   UNK N   1      21.027  16.595   5.074  0.00  0.00     0.262 C 
HETATM   14  C   UNK N   1      20.611  15.169   4.788  0.00  0.00     0.198 C 
HETATM   15  C   UNK N   1      20.666  14.620   6.170  0.00  0.00     0.182 C 
HETATM   16  C   UNK N   1      19.999  15.761   6.896  0.00  0.00     0.179 C 
HETATM   17  O   UNK N   1      20.524  16.946   6.349  0.00  0.00    -0.353 OA
BRANCH  14  18
HETATM   18  O   UNK N   1      21.528  14.530   3.955  0.00  0.00    -0.388 OA
HETATM   19  H   UNK N   1      22.486  14.621   4.080  0.00  0.00     0.210 HD
ENDBRANCH  14  18
BRANCH  15  20
HETATM   20  O   UNK N   1      19.934  13.437   6.280  0.00  0.00    -0.390 OA
HETATM   21  H   UNK N   1      19.178  13.035   6.735  0.00  0.00     0.210 HD
ENDBRANCH  15  20
BRANCH  16  22
HETATM   22  C   UNK N   1      20.265  15.716   8.392  0.00  0.00     0.198 C 
BRANCH  22  23
HETATM   23  O   UNK N   1      19.649  14.600   8.958  0.00  0.00    -0.398 OA
HETATM   24  H   UNK N   1      19.915  13.680   9.111  0.00  0.00     0.209 HD
ENDBRANCH  22  23
ENDBRANCH  16  22
ENDBRANCH   9  13
BRANCH   4  25
HETATM   25  N   UNK N   1      20.196  20.783   0.775  0.00  0.00    -0.383 N 
HETATM   26  H   UNK N   1      20.491  20.752  -0.163  0.00  0.00     0.157 HD
HETATM   27  H   UNK N   1      19.358  21.246   1.008  0.00  0.00     0.157 HD
ENDBRANCH   4  25
BRANCH   1  28
HETATM   28  O   UNK N   1      24.225  20.464   3.348  0.00  0.00    -0.322 OA
BRANCH  28  29
HETATM   29  C   UNK N   1      25.358  19.762   3.022  0.00  0.00     0.183 C 
BRANCH  29  30
HETATM   30  C   UNK N   1      26.585  20.565   3.407  0.00  0.00     0.065 C 
BRANCH  30  31
HETATM   31  C   UNK N   1      27.085  20.107   4.731  0.00  0.00    -0.056 A 
HETATM   32  C   UNK N   1      27.808  18.911   4.829  0.00  0.00     0.009 A 
HETATM   33  C   UNK N   1      28.282  18.477   6.068  0.00  0.00     0.024 A 
HETATM   34  C   UNK N   1      28.029  19.234   7.215  0.00  0.00     0.034 A 
HETATM   35  C   UNK N   1      27.303  20.427   7.122  0.00  0.00     0.024 A 
HETATM   36 Cl   UNK N   1      28.622  18.686   8.766  0.00  0.00    -0.084 Cl
HETATM   37  C   UNK N   1      26.831  20.863   5.880  0.00  0.00     0.009 A 
ENDBRANCH  30  31
ENDBRANCH  29  30
ENDBRANCH  28  29
ENDBRANCH   1  28
TORSDOF 10
ENDMDL
MODEL 3
REMARK VINA RESULT:      -7.1     13.272     16.591
REMARK  10 active torsions:
REMARK  status: ('A' for Active; 'I' for Inactive)
REMARK    1  A    between atoms: C_6  and  C_7 
REMARK    2  A    between atoms: C_7  and  C_8 
REMARK    3  A    between atoms: C_8  and  O_9 
REMARK    4  A    between atoms: O_9  and  C_10 
REMARK    5  A    between atoms: C_13  and  N_31 
REMARK    6  A    between atoms: C_22  and  N_18 
REMARK    7  A    between atoms: C_23  and  O_30 
REMARK    8  A    between atoms: C_24  and  O_29 
REMARK    9  A    between atoms: C_25  and  C_27 
REMARK   10  A    between atoms: C_27  and  O_28 
ROOT
HETATM    1  C   UNK N   1      36.534  13.819  13.245  0.00  0.00     0.226 A 
HETATM    2  N   UNK N   1      37.222  12.669  12.913  0.00  0.00    -0.306 N 
ATOM      3  HN  UNK N   1      37.723  12.157  13.639  1.00  0.00     0.171 HD
HETATM    4  C   UNK N   1      37.243  12.206  11.626  0.00  0.00     0.133 A 
HETATM    5  C   UNK N   1      36.556  12.931  10.664  0.00  0.00     0.122 A 
HETATM    6  C   UNK N   1      35.882  14.042  11.013  0.00  0.00     0.144 A 
HETATM    7  N   UNK N   1      35.850  14.505  12.283  0.00  0.00    -0.306 N 
ATOM      8  HN  UNK N   1      35.325  15.349  12.518  1.00  0.00     0.171 HD
HETATM    9  N   UNK N   1      35.285  14.564   9.934  0.00  0.00    -0.297 N 
HETATM   10  C   UNK N   1      35.623  13.735   8.911  0.00  0.00     0.188 A 
HETATM   11  N   UNK N   1      36.415  12.711   9.342  0.00  0.00    -0.346 N 
ATOM     12  HN  UNK N   1      36.812  11.951   8.789  1.00  0.00     0.167 HD
ENDROOT
BRANCH   9  13
HETATM   13  C   UNK N   1      34.410  15.738   9.866  0.00  0.00     0.262 C 
HETATM   14  C   UNK N   1      33.069  15.412   9.245  0.00  0.00     0.198 C 
HETATM   15  C   UNK N   1      32.684  16.769   8.774  0.00  0.00     0.182 C 
HETATM   16  C   UNK N   1      34.010  17.196   8.196  0.00  0.00     0.179 C 
HETATM   17  O   UNK N   1      34.998  16.776   9.105  0.00  0.00    -0.353 OA
BRANCH  14  18
HETATM   18  O   UNK N   1      32.171  14.936  10.199  0.00  0.00    -0.388 OA
HETATM   19  H   UNK N   1      31.213  14.934  10.047  0.00  0.00     0.210 HD
ENDBRANCH  14  18
BRANCH  15  20
HETATM   20  O   UNK N   1      31.688  16.710   7.800  0.00  0.00    -0.390 OA
HETATM   21  H   UNK N   1      30.927  17.193   7.440  0.00  0.00     0.210 HD
ENDBRANCH  15  20
BRANCH  16  22
HETATM   22  C   UNK N   1      34.087  18.701   8.000  0.00  0.00     0.198 C 
BRANCH  22  23
HETATM   23  O   UNK N   1      35.294  19.191   8.496  0.00  0.00    -0.398 OA
HETATM   24  H   UNK N   1      36.200  18.847   8.542  0.00  0.00     0.209 HD
ENDBRANCH  22  23
ENDBRANCH  16  22
ENDBRANCH   9  13
BRANCH   4  25
HETATM   25  N   UNK N   1      37.940  11.026  11.298  0.00  0.00    -0.383 N 
HETATM   26  H   UNK N   1      38.822  10.840  11.692  0.00  0.00     0.157 HD
HETATM   27  H   UNK N   1      37.541  10.382  10.668  0.00  0.00     0.157 HD
ENDBRANCH   4  25
BRANCH   1  28
HETATM   28  O   UNK N   1      36.533  14.291  14.510  0.00  0.00    -0.322 OA
BRANCH  28  29
HETATM   29  C   UNK N   1      36.613  13.465  15.602  0.00  0.00     0.183 C 
BRANCH  29  30
HETATM   30  C   UNK N   1      35.246  13.336  16.246  0.00  0.00     0.065 C 
BRANCH  30  31
HETATM   31  C   UNK N   1      35.355  12.522  17.486  0.00  0.00    -0.056 A 
HETATM   32  C   UNK N   1      35.658  11.157  17.401  0.00  0.00     0.009 A 
HETATM   33  C   UNK N   1      35.764  10.388  18.562  0.00  0.00     0.024 A 
HETATM   34  C   UNK N   1      35.561  10.980  19.810  0.00  0.00     0.034 A 
HETATM   35  C   UNK N   1      35.252  12.342  19.899  0.00  0.00     0.024 A 
HETATM   36 Cl   UNK N   1      35.691  10.013  21.262  0.00  0.00    -0.084 Cl
HETATM   37  C   UNK N   1      35.149  13.113  18.737  0.00  0.00     0.009 A 
ENDBRANCH  30  31
ENDBRANCH  29  30
ENDBRANCH  28  29
ENDBRANCH   1  28
TORSDOF 10
ENDMDL
MODEL 4
REMARK VINA RESULT:      -7.1      2.593      4.713
REMARK  10 active torsions:
REMARK  status: ('A' for Active; 'I' for Inactive)
REMARK    1  A    between atoms: C_6  and  C_7 
REMARK    2  A    between atoms: C_7  and  C_8 
REMARK    3  A    between atoms: C_8  and  O_9 
REMARK    4  A    between atoms: O_9  and  C_10 
REMARK    5  A    between atoms: C_13  and  N_31 
REMARK    6  A    between atoms: C_22  and  N_18 
REMARK    7  A    between atoms: C_23  and  O_30 
REMARK    8  A    between atoms: C_24  and  O_29 
REMARK    9  A    between atoms: C_25  and  C_27 
REMARK   10  A    between atoms: C_27  and  O_28 
ROOT
HETATM    1  C   UNK N   1      24.579  17.481   4.443  0.00  0.00     0.226 A 
HETATM    2  N   UNK N   1      24.936  16.634   5.474  0.00  0.00    -0.306 N 
ATOM      3  HN  UNK N   1      25.902  16.621   5.800  1.00  0.00     0.171 HD
HETATM    4  C   UNK N   1      24.014  15.812   6.063  0.00  0.00     0.133 A 
HETATM    5  C   UNK N   1      22.712  15.852   5.589  0.00  0.00     0.122 A 
HETATM    6  C   UNK N   1      22.384  16.694   4.592  0.00  0.00     0.144 A 
HETATM    7  N   UNK N   1      23.286  17.515   4.007  0.00  0.00    -0.306 N 
ATOM      8  HN  UNK N   1      23.005  18.147   3.256  1.00  0.00     0.171 HD
HETATM    9  N   UNK N   1      21.080  16.575   4.313  0.00  0.00    -0.297 N 
HETATM   10  C   UNK N   1      20.623  15.624   5.170  0.00  0.00     0.188 A 
HETATM   11  N   UNK N   1      21.623  15.159   5.975  0.00  0.00    -0.346 N 
ATOM     12  HN  UNK N   1      21.560  14.447   6.703  1.00  0.00     0.167 HD
ENDROOT
BRANCH   9  13
HETATM   13  C   UNK N   1      20.293  17.335   3.338  0.00  0.00     0.262 C 
HETATM   14  C   UNK N   1      20.293  16.679   1.974  0.00  0.00     0.198 C 
HETATM   15  C   UNK N   1      19.987  17.868   1.134  0.00  0.00     0.182 C 
HETATM   16  C   UNK N   1      20.907  18.860   1.799  0.00  0.00     0.179 C 
HETATM   17  O   UNK N   1      20.790  18.650   3.184  0.00  0.00    -0.353 OA
BRANCH  14  18
HETATM   18  O   UNK N   1      19.287  15.718   1.873  0.00  0.00    -0.388 OA
HETATM   19  H   UNK N   1      18.445  15.901   1.428  0.00  0.00     0.210 HD
ENDBRANCH  14  18
BRANCH  15  20
HETATM   20  O   UNK N   1      20.331  17.654  -0.201  0.00  0.00    -0.390 OA
HETATM   21  H   UNK N   1      21.062  17.381  -0.778  0.00  0.00     0.210 HD
ENDBRANCH  15  20
BRANCH  16  22
HETATM   22  C   UNK N   1      20.539  20.295   1.456  0.00  0.00     0.198 C 
BRANCH  22  23
HETATM   23  O   UNK N   1      20.620  20.498   0.079  0.00  0.00    -0.398 OA
HETATM   24  H   UNK N   1      19.986  20.455  -0.654  0.00  0.00     0.209 HD
ENDBRANCH  22  23
ENDBRANCH  16  22
ENDBRANCH   9  13
BRANCH   4  25
HETATM   25  N   UNK N   1      24.386  14.957   7.120  0.00  0.00    -0.383 N 
HETATM   26  H   UNK N   1      25.335  14.792   7.320  0.00  0.00     0.157 HD
HETATM   27  H   UNK N   1      23.690  14.522   7.664  0.00  0.00     0.157 HD
ENDBRANCH   4  25
BRANCH   1  28
HETATM   28  O   UNK N   1      25.492  18.274   3.844  0.00  0.00    -0.322 OA
BRANCH  28  29
HETATM   29  C   UNK N   1      25.725  19.563   4.253  0.00  0.00     0.183 C 
BRANCH  29  30
HETATM   30  C   UNK N   1      27.208  19.866   4.166  0.00  0.00     0.065 C 
BRANCH  30  31
HETATM   31  C   UNK N   1      27.918  19.202   5.293  0.00  0.00    -0.056 A 
HETATM   32  C   UNK N   1      28.825  18.165   5.034  0.00  0.00     0.009 A 
HETATM   33  C   UNK N   1      29.495  17.541   6.086  0.00  0.00     0.024 A 
HETATM   34  C   UNK N   1      29.257  17.946   7.402  0.00  0.00     0.034 A 
HETATM   35  C   UNK N   1      28.349  18.976   7.665  0.00  0.00     0.024 A 
HETATM   36 Cl   UNK N   1      30.098  17.158   8.718  0.00  0.00    -0.084 Cl
HETATM   37  C   UNK N   1      27.679  19.605   6.610  0.00  0.00     0.009 A 
ENDBRANCH  30  31
ENDBRANCH  29  30
ENDBRANCH  28  29
ENDBRANCH   1  28
TORSDOF 10
ENDMDL
MODEL 5
REMARK VINA RESULT:      -7.1     12.188     13.880
REMARK  10 active torsions:
REMARK  status: ('A' for Active; 'I' for Inactive)
REMARK    1  A    between atoms: C_6  and  C_7 
REMARK    2  A    between atoms: C_7  and  C_8 
REMARK    3  A    between atoms: C_8  and  O_9 
REMARK    4  A    between atoms: O_9  and  C_10 
REMARK    5  A    between atoms: C_13  and  N_31 
REMARK    6  A    between atoms: C_22  and  N_18 
REMARK    7  A    between atoms: C_23  and  O_30 
REMARK    8  A    between atoms: C_24  and  O_29 
REMARK    9  A    between atoms: C_25  and  C_27 
REMARK   10  A    between atoms: C_27  and  O_28 
ROOT
HETATM    1  C   UNK N   1      25.957  23.547  -6.885  0.00  0.00     0.226 A 
HETATM    2  N   UNK N   1      25.329  22.819  -7.876  0.00  0.00    -0.306 N 
ATOM      3  HN  UNK N   1      24.395  23.090  -8.181  1.00  0.00     0.171 HD
HETATM    4  C   UNK N   1      25.941  21.741  -8.455  0.00  0.00     0.133 A 
HETATM    5  C   UNK N   1      27.209  21.399  -8.009  0.00  0.00     0.122 A 
HETATM    6  C   UNK N   1      27.806  22.129  -7.051  0.00  0.00     0.144 A 
HETATM    7  N   UNK N   1      27.213  23.201  -6.477  0.00  0.00    -0.306 N 
ATOM      8  HN  UNK N   1      27.694  23.739  -5.756  1.00  0.00     0.171 HD
HETATM    9  N   UNK N   1      29.021  21.630  -6.795  0.00  0.00    -0.297 N 
HETATM   10  C   UNK N   1      29.143  20.562  -7.627  0.00  0.00     0.188 A 
HETATM   11  N   UNK N   1      28.026  20.398  -8.393  0.00  0.00    -0.346 N 
ATOM     12  HN  UNK N   1      27.848  19.681  -9.097  1.00  0.00     0.167 HD
ENDROOT
BRANCH   9  13
HETATM   13  C   UNK N   1      30.031  22.143  -5.864  0.00  0.00     0.262 C 
HETATM   14  C   UNK N   1      30.852  21.031  -5.248  0.00  0.00     0.198 C 
HETATM   15  C   UNK N   1      31.305  21.723  -4.011  0.00  0.00     0.182 C 
HETATM   16  C   UNK N   1      30.003  22.377  -3.625  0.00  0.00     0.179 C 
HETATM   17  O   UNK N   1      29.437  22.877  -4.811  0.00  0.00    -0.353 OA
BRANCH  14  18
HETATM   18  O   UNK N   1      31.932  20.688  -6.059  0.00  0.00    -0.388 OA
HETATM   19  H   UNK N   1      31.816  20.418  -6.983  0.00  0.00     0.210 HD
ENDBRANCH  14  18
BRANCH  15  20
HETATM   20  O   UNK N   1      31.736  20.814  -3.045  0.00  0.00    -0.390 OA
HETATM   21  H   UNK N   1      32.292  20.030  -2.913  0.00  0.00     0.210 HD
ENDBRANCH  15  20
BRANCH  16  22
HETATM   22  C   UNK N   1      30.208  23.507  -2.628  0.00  0.00     0.198 C 
BRANCH  22  23
HETATM   23  O   UNK N   1      30.510  22.990  -1.369  0.00  0.00    -0.398 OA
HETATM   24  H   UNK N   1      30.147  22.277  -0.821  0.00  0.00     0.209 HD
ENDBRANCH  22  23
ENDBRANCH  16  22
ENDBRANCH   9  13
BRANCH   4  25
HETATM   25  N   UNK N   1      25.297  21.009  -9.472  0.00  0.00    -0.383 N 
HETATM   26  H   UNK N   1      25.814  20.622 -10.214  0.00  0.00     0.157 HD
HETATM   27  H   UNK N   1      24.320  20.885  -9.441  0.00  0.00     0.157 HD
ENDBRANCH   4  25
BRANCH   1  28
HETATM   28  O   UNK N   1      25.344  24.596  -6.295  0.00  0.00    -0.322 OA
BRANCH  28  29
HETATM   29  C   UNK N   1      25.613  25.895  -6.647  0.00  0.00     0.183 C 
BRANCH  29  30
HETATM   30  C   UNK N   1      24.902  26.839  -5.696  0.00  0.00     0.065 C 
BRANCH  30  31
HETATM   31  C   UNK N   1      25.863  27.860  -5.199  0.00  0.00    -0.056 A 
HETATM   32  C   UNK N   1      26.917  28.286  -6.018  0.00  0.00     0.009 A 
HETATM   33  C   UNK N   1      27.819  29.246  -5.557  0.00  0.00     0.024 A 
HETATM   34  C   UNK N   1      27.675  29.778  -4.274  0.00  0.00     0.034 A 
HETATM   35  C   UNK N   1      26.627  29.352  -3.451  0.00  0.00     0.024 A 
HETATM   36 Cl   UNK N   1      28.810  30.979  -3.699  0.00  0.00    -0.084 Cl
HETATM   37  C   UNK N   1      25.721  28.392  -3.913  0.00  0.00     0.009 A 
ENDBRANCH  30  31
ENDBRANCH  29  30
ENDBRANCH  28  29
ENDBRANCH   1  28
TORSDOF 10
ENDMDL
MODEL 6
REMARK VINA RESULT:      -7.0      3.377      6.775
REMARK  10 active torsions:
REMARK  status: ('A' for Active; 'I' for Inactive)
REMARK    1  A    between atoms: C_6  and  C_7 
REMARK    2  A    between atoms: C_7  and  C_8 
REMARK    3  A    between atoms: C_8  and  O_9 
REMARK    4  A    between atoms: O_9  and  C_10 
REMARK    5  A    between atoms: C_13  and  N_31 
REMARK    6  A    between atoms: C_22  and  N_18 
REMARK    7  A    between atoms: C_23  and  O_30 
REMARK    8  A    between atoms: C_24  and  O_29 
REMARK    9  A    between atoms: C_25  and  C_27 
REMARK   10  A    between atoms: C_27  and  O_28 
ROOT
HETATM    1  C   UNK N   1      23.318  17.798   5.253  0.00  0.00     0.226 A 
HETATM    2  N   UNK N   1      22.462  18.471   4.404  0.00  0.00    -0.306 N 
ATOM      3  HN  UNK N   1      21.467  18.249   4.415  1.00  0.00     0.171 HD
HETATM    4  C   UNK N   1      22.928  19.431   3.547  0.00  0.00     0.133 A 
HETATM    5  C   UNK N   1      24.288  19.701   3.555  0.00  0.00     0.122 A 
HETATM    6  C   UNK N   1      25.101  19.041   4.399  0.00  0.00     0.144 A 
HETATM    7  N   UNK N   1      24.650  18.096   5.254  0.00  0.00    -0.306 N 
ATOM      8  HN  UNK N   1      25.291  17.616   5.887  1.00  0.00     0.171 HD
HETATM    9  N   UNK N   1      26.358  19.476   4.245  0.00  0.00    -0.297 N 
HETATM   10  C   UNK N   1      26.286  20.420   3.270  0.00  0.00     0.188 A 
HETATM   11  N   UNK N   1      25.006  20.578   2.824  0.00  0.00    -0.346 N 
ATOM     12  HN  UNK N   1      24.668  21.214   2.102  1.00  0.00     0.167 HD
ENDROOT
BRANCH   9  13
HETATM   13  C   UNK N   1      27.552  19.070   4.994  0.00  0.00     0.262 C 
HETATM   14  C   UNK N   1      27.990  17.664   4.645  0.00  0.00     0.198 C 
HETATM   15  C   UNK N   1      28.747  17.333   5.882  0.00  0.00     0.182 C 
HETATM   16  C   UNK N   1      27.780  17.888   6.897  0.00  0.00     0.179 C 
HETATM   17  O   UNK N   1      27.328  19.119   6.390  0.00  0.00    -0.353 OA
BRANCH  14  18
HETATM   18  O   UNK N   1      28.823  17.655   3.527  0.00  0.00    -0.388 OA
HETATM   19  H   UNK N   1      29.787  17.579   3.605  0.00  0.00     0.210 HD
ENDBRANCH  14  18
BRANCH  15  20
HETATM   20  O   UNK N   1      28.917  15.956   6.025  0.00  0.00    -0.390 OA
HETATM   21  H   UNK N   1      28.704  15.103   5.615  0.00  0.00     0.210 HD
ENDBRANCH  15  20
BRANCH  16  22
HETATM   22  C   UNK N   1      28.435  18.092   8.254  0.00  0.00     0.198 C 
BRANCH  22  23
HETATM   23  O   UNK N   1      27.462  18.244   9.241  0.00  0.00    -0.398 OA
HETATM   24  H   UNK N   1      27.454  18.153  10.207  0.00  0.00     0.209 HD
ENDBRANCH  22  23
ENDBRANCH  16  22
ENDBRANCH   9  13
BRANCH   4  25
HETATM   25  N   UNK N   1      22.046  20.119   2.690  0.00  0.00    -0.383 N 
HETATM   26  H   UNK N   1      22.202  20.134   1.719  0.00  0.00     0.157 HD
HETATM   27  H   UNK N   1      21.268  20.590   3.067  0.00  0.00     0.157 HD
ENDBRANCH   4  25
BRANCH   1  28
HETATM   28  O   UNK N   1      22.863  16.833   6.081  0.00  0.00    -0.322 OA
BRANCH  28  29
HETATM   29  C   UNK N   1      23.554  15.668   6.300  0.00  0.00     0.183 C 
BRANCH  29  30
HETATM   30  C   UNK N   1      22.579  14.522   6.481  0.00  0.00     0.065 C 
BRANCH  30  31
HETATM   31  C   UNK N   1      22.766  13.917   7.828  0.00  0.00    -0.056 A 
HETATM   32  C   UNK N   1      24.012  13.388   8.189  0.00  0.00     0.009 A 
HETATM   33  C   UNK N   1      24.194  12.822   9.452  0.00  0.00     0.024 A 
HETATM   34  C   UNK N   1      23.129  12.778  10.355  0.00  0.00     0.034 A 
HETATM   35  C   UNK N   1      21.882  13.300   9.996  0.00  0.00     0.024 A 
HETATM   36 Cl   UNK N   1      23.360  12.065  11.936  0.00  0.00    -0.084 Cl
HETATM   37  C   UNK N   1      21.700  13.870   8.732  0.00  0.00     0.009 A 
ENDBRANCH  30  31
ENDBRANCH  29  30
ENDBRANCH  28  29
ENDBRANCH   1  28
TORSDOF 10
ENDMDL
MODEL 7
REMARK VINA RESULT:      -6.9      6.112      9.510
REMARK  10 active torsions:
REMARK  status: ('A' for Active; 'I' for Inactive)
REMARK    1  A    between atoms: C_6  and  C_7 
REMARK    2  A    between atoms: C_7  and  C_8 
REMARK    3  A    between atoms: C_8  and  O_9 
REMARK    4  A    between atoms: O_9  and  C_10 
REMARK    5  A    between atoms: C_13  and  N_31 
REMARK    6  A    between atoms: C_22  and  N_18 
REMARK    7  A    between atoms: C_23  and  O_30 
REMARK    8  A    between atoms: C_24  and  O_29 
REMARK    9  A    between atoms: C_25  and  C_27 
REMARK   10  A    between atoms: C_27  and  O_28 
ROOT
HETATM    1  C   UNK N   1      28.043  16.762   6.060  0.00  0.00     0.226 A 
HETATM    2  N   UNK N   1      27.495  17.361   7.176  0.00  0.00    -0.306 N 
ATOM      3  HN  UNK N   1      26.490  17.526   7.214  1.00  0.00     0.171 HD
HETATM    4  C   UNK N   1      28.280  17.736   8.233  0.00  0.00     0.133 A 
HETATM    5  C   UNK N   1      29.643  17.500   8.144  0.00  0.00     0.122 A 
HETATM    6  C   UNK N   1      30.154  16.904   7.051  0.00  0.00     0.144 A 
HETATM    7  N   UNK N   1      29.386  16.524   6.004  0.00  0.00    -0.306 N 
ATOM      8  HN  UNK N   1      29.803  16.068   5.191  1.00  0.00     0.171 HD
HETATM    9  N   UNK N   1      31.477  16.763   7.192  0.00  0.00    -0.297 N 
HETATM   10  C   UNK N   1      31.760  17.302   8.408  0.00  0.00     0.188 A 
HETATM   11  N   UNK N   1      30.632  17.768   9.019  0.00  0.00    -0.346 N 
ATOM     12  HN  UNK N   1      30.555  18.218   9.932  1.00  0.00     0.167 HD
ENDROOT
BRANCH   9  13
HETATM   13  C   UNK N   1      32.420  16.122   6.271  0.00  0.00     0.262 C 
HETATM   14  C   UNK N   1      32.912  17.079   5.206  0.00  0.00     0.198 C 
HETATM   15  C   UNK N   1      33.306  16.096   4.161  0.00  0.00     0.182 C 
HETATM   16  C   UNK N   1      32.112  15.178   4.249  0.00  0.00     0.179 C 
HETATM   17  O   UNK N   1      31.832  15.014   5.618  0.00  0.00    -0.353 OA
BRANCH  14  18
HETATM   18  O   UNK N   1      34.013  17.810   5.650  0.00  0.00    -0.388 OA
HETATM   19  H   UNK N   1      34.175  18.722   5.361  0.00  0.00     0.210 HD
ENDBRANCH  14  18
BRANCH  15  20
HETATM   20  O   UNK N   1      33.407  16.696   2.906  0.00  0.00    -0.390 OA
HETATM   21  H   UNK N   1      32.886  17.113   2.203  0.00  0.00     0.210 HD
ENDBRANCH  15  20
BRANCH  16  22
HETATM   22  C   UNK N   1      32.384  13.828   3.606  0.00  0.00     0.198 C 
BRANCH  22  23
HETATM   23  O   UNK N   1      32.727  13.993   2.265  0.00  0.00    -0.398 OA
HETATM   24  H   UNK N   1      32.404  14.556   1.545  0.00  0.00     0.209 HD
ENDBRANCH  22  23
ENDBRANCH  16  22
ENDBRANCH   9  13
BRANCH   4  25
HETATM   25  N   UNK N   1      27.710  18.338   9.372  0.00  0.00    -0.383 N 
HETATM   26  H   UNK N   1      28.085  19.171   9.738  0.00  0.00     0.157 HD
HETATM   27  H   UNK N   1      26.931  17.922   9.807  0.00  0.00     0.157 HD
ENDBRANCH   4  25
BRANCH   1  28
HETATM   28  O   UNK N   1      27.274  16.414   5.006  0.00  0.00    -0.322 OA
BRANCH  28  29
HETATM   29  C   UNK N   1      27.321  17.085   3.810  0.00  0.00     0.183 C 
BRANCH  29  30
HETATM   30  C   UNK N   1      27.261  18.579   4.060  0.00  0.00     0.065 C 
BRANCH  30  31
HETATM   31  C   UNK N   1      25.897  19.082   3.744  0.00  0.00    -0.056 A 
HETATM   32  C   UNK N   1      24.771  18.393   4.214  0.00  0.00     0.009 A 
HETATM   33  C   UNK N   1      23.490  18.862   3.923  0.00  0.00     0.024 A 
HETATM   34  C   UNK N   1      23.328  20.017   3.155  0.00  0.00     0.034 A 
HETATM   35  C   UNK N   1      24.449  20.705   2.679  0.00  0.00     0.024 A 
HETATM   36 Cl   UNK N   1      21.720  20.600   2.790  0.00  0.00    -0.084 Cl
HETATM   37  C   UNK N   1      25.734  20.238   2.973  0.00  0.00     0.009 A 
ENDBRANCH  30  31
ENDBRANCH  29  30
ENDBRANCH  28  29
ENDBRANCH   1  28
TORSDOF 10
ENDMDL
MODEL 8
REMARK VINA RESULT:      -6.9     10.969     14.186
REMARK  10 active torsions:
REMARK  status: ('A' for Active; 'I' for Inactive)
REMARK    1  A    between atoms: C_6  and  C_7 
REMARK    2  A    between atoms: C_7  and  C_8 
REMARK    3  A    between atoms: C_8  and  O_9 
REMARK    4  A    between atoms: O_9  and  C_10 
REMARK    5  A    between atoms: C_13  and  N_31 
REMARK    6  A    between atoms: C_22  and  N_18 
REMARK    7  A    between atoms: C_23  and  O_30 
REMARK    8  A    between atoms: C_24  and  O_29 
REMARK    9  A    between atoms: C_25  and  C_27 
REMARK   10  A    between atoms: C_27  and  O_28 
ROOT
HETATM    1  C   UNK N   1      34.847  16.078   9.249  0.00  0.00     0.226 A 
HETATM    2  N   UNK N   1      34.872  15.356   8.072  0.00  0.00    -0.306 N 
ATOM      3  HN  UNK N   1      34.863  15.851   7.180  1.00  0.00     0.171 HD
HETATM    4  C   UNK N   1      34.909  13.988   8.083  0.00  0.00     0.133 A 
HETATM    5  C   UNK N   1      34.915  13.350   9.314  0.00  0.00     0.122 A 
HETATM    6  C   UNK N   1      34.902  14.074  10.448  0.00  0.00     0.144 A 
HETATM    7  N   UNK N   1      34.872  15.426  10.448  0.00  0.00    -0.306 N 
ATOM      8  HN  UNK N   1      34.868  15.948  11.325  1.00  0.00     0.171 HD
HETATM    9  N   UNK N   1      34.929  13.254  11.506  0.00  0.00    -0.297 N 
HETATM   10  C   UNK N   1      34.952  12.001  10.978  0.00  0.00     0.188 A 
HETATM   11  N   UNK N   1      34.943  12.037   9.614  0.00  0.00    -0.346 N 
ATOM     12  HN  UNK N   1      34.954  11.248   8.967  1.00  0.00     0.167 HD
ENDROOT
BRANCH   9  13
HETATM   13  C   UNK N   1      34.979  13.614  12.926  0.00  0.00     0.262 C 
HETATM   14  C   UNK N   1      36.361  14.064  13.350  0.00  0.00     0.198 C 
HETATM   15  C   UNK N   1      36.271  13.780  14.807  0.00  0.00     0.182 C 
HETATM   16  C   UNK N   1      35.604  12.429  14.737  0.00  0.00     0.179 C 
HETATM   17  O   UNK N   1      34.608  12.524  13.749  0.00  0.00    -0.353 OA
BRANCH  14  18
HETATM   18  O   UNK N   1      36.546  15.425  13.112  0.00  0.00    -0.388 OA
HETATM   19  H   UNK N   1      35.810  16.010  12.876  0.00  0.00     0.210 HD
ENDBRANCH  14  18
BRANCH  15  20
HETATM   20  O   UNK N   1      37.535  13.706  15.393  0.00  0.00    -0.390 OA
HETATM   21  H   UNK N   1      38.082  13.168  15.986  0.00  0.00     0.210 HD
ENDBRANCH  15  20
BRANCH  16  22
HETATM   22  C   UNK N   1      34.984  12.032  16.066  0.00  0.00     0.198 C 
BRANCH  22  23
HETATM   23  O   UNK N   1      34.918  13.134  16.917  0.00  0.00    -0.398 OA
HETATM   24  H   UNK N   1      35.194  14.062  16.851  0.00  0.00     0.209 HD
ENDBRANCH  22  23
ENDBRANCH  16  22
ENDBRANCH   9  13
BRANCH   4  25
HETATM   25  N   UNK N   1      34.944  13.260   6.877  0.00  0.00    -0.383 N 
HETATM   26  H   UNK N   1      34.654  12.320   6.852  0.00  0.00     0.157 HD
HETATM   27  H   UNK N   1      35.262  13.695   6.053  0.00  0.00     0.157 HD
ENDBRANCH   4  25
BRANCH   1  28
HETATM   28  O   UNK N   1      34.785  17.427   9.239  0.00  0.00    -0.322 OA
BRANCH  28  29
HETATM   29  C   UNK N   1      34.209  18.127   8.210  0.00  0.00     0.183 C 
BRANCH  29  30
HETATM   30  C   UNK N   1      32.704  17.944   8.246  0.00  0.00     0.065 C 
BRANCH  30  31
HETATM   31  C   UNK N   1      32.216  17.566   6.893  0.00  0.00    -0.056 A 
HETATM   32  C   UNK N   1      30.870  17.224   6.706  0.00  0.00     0.009 A 
HETATM   33  C   UNK N   1      30.406  16.871   5.438  0.00  0.00     0.024 A 
HETATM   34  C   UNK N   1      31.286  16.851   4.354  0.00  0.00     0.034 A 
HETATM   35  C   UNK N   1      32.632  17.186   4.537  0.00  0.00     0.024 A 
HETATM   36 Cl   UNK N   1      30.701  16.405   2.767  0.00  0.00    -0.084 Cl
HETATM   37  C   UNK N   1      33.097  17.544   5.807  0.00  0.00     0.009 A 
ENDBRANCH  30  31
ENDBRANCH  29  30
ENDBRANCH  28  29
ENDBRANCH   1  28
TORSDOF 10
ENDMDL
MODEL 9
REMARK VINA RESULT:      -6.9      4.339      7.584
REMARK  10 active torsions:
REMARK  status: ('A' for Active; 'I' for Inactive)
REMARK    1  A    between atoms: C_6  and  C_7 
REMARK    2  A    between atoms: C_7  and  C_8 
REMARK    3  A    between atoms: C_8  and  O_9 
REMARK    4  A    between atoms: O_9  and  C_10 
REMARK    5  A    between atoms: C_13  and  N_31 
REMARK    6  A    between atoms: C_22  and  N_18 
REMARK    7  A    between atoms: C_23  and  O_30 
REMARK    8  A    between atoms: C_24  and  O_29 
REMARK    9  A    between atoms: C_25  and  C_27 
REMARK   10  A    between atoms: C_27  and  O_28 
ROOT
HETATM    1  C   UNK N   1      24.498  17.585   4.942  0.00  0.00     0.226 A 
HETATM    2  N   UNK N   1      24.375  18.471   3.891  0.00  0.00    -0.306 N 
ATOM      3  HN  UNK N   1      23.490  18.534   3.388  1.00  0.00     0.171 HD
HETATM    4  C   UNK N   1      25.423  19.266   3.513  0.00  0.00     0.133 A 
HETATM    5  C   UNK N   1      26.612  19.149   4.215  0.00  0.00     0.122 A 
HETATM    6  C   UNK N   1      26.705  18.287   5.244  0.00  0.00     0.144 A 
HETATM    7  N   UNK N   1      25.674  17.501   5.630  0.00  0.00    -0.306 N 
ATOM      8  HN  UNK N   1      25.773  16.861   6.418  1.00  0.00     0.171 HD
HETATM    9  N   UNK N   1      27.929  18.357   5.780  0.00  0.00    -0.297 N 
HETATM   10  C   UNK N   1      28.586  19.287   5.038  0.00  0.00     0.188 A 
HETATM   11  N   UNK N   1      27.784  19.795   4.056  0.00  0.00    -0.346 N 
ATOM     12  HN  UNK N   1      28.020  20.502   3.359  1.00  0.00     0.167 HD
ENDROOT
BRANCH   9  13
HETATM   13  C   UNK N   1      28.446  17.634   6.946  0.00  0.00     0.262 C 
HETATM   14  C   UNK N   1      28.575  18.530   8.159  0.00  0.00     0.198 C 
HETATM   15  C   UNK N   1      29.606  17.769   8.914  0.00  0.00     0.182 C 
HETATM   16  C   UNK N   1      30.534  17.445   7.770  0.00  0.00     0.179 C 
HETATM   17  O   UNK N   1      29.720  17.075   6.685  0.00  0.00    -0.353 OA
BRANCH  14  18
HETATM   18  O   UNK N   1      27.377  18.597   8.869  0.00  0.00    -0.388 OA
HETATM   19  H   UNK N   1      27.330  18.968   9.764  0.00  0.00     0.210 HD
ENDBRANCH  14  18
BRANCH  15  20
HETATM   20  O   UNK N   1      30.227  18.565   9.877  0.00  0.00    -0.390 OA
HETATM   21  H   UNK N   1      30.266  19.469  10.226  0.00  0.00     0.210 HD
ENDBRANCH  15  20
BRANCH  16  22
HETATM   22  C   UNK N   1      31.489  16.314   8.116  0.00  0.00     0.198 C 
BRANCH  22  23
HETATM   23  O   UNK N   1      32.345  16.703   9.145  0.00  0.00    -0.398 OA
HETATM   24  H   UNK N   1      32.286  17.339   9.875  0.00  0.00     0.209 HD
ENDBRANCH  22  23
ENDBRANCH  16  22
ENDBRANCH   9  13
BRANCH   4  25
HETATM   25  N   UNK N   1      25.286  20.175   2.444  0.00  0.00    -0.383 N 
HETATM   26  H   UNK N   1      25.978  20.853   2.273  0.00  0.00     0.157 HD
HETATM   27  H   UNK N   1      24.491  20.131   1.865  0.00  0.00     0.157 HD
ENDBRANCH   4  25
BRANCH   1  28
HETATM   28  O   UNK N   1      23.473  16.781   5.300  0.00  0.00    -0.322 OA
BRANCH  28  29
HETATM   29  C   UNK N   1      22.340  17.263   5.904  0.00  0.00     0.183 C 
BRANCH  29  30
HETATM   30  C   UNK N   1      21.126  16.912   5.067  0.00  0.00     0.065 C 
BRANCH  30  31
HETATM   31  C   UNK N   1      20.979  17.901   3.964  0.00  0.00    -0.056 A 
HETATM   32  C   UNK N   1      21.141  19.268   4.226  0.00  0.00     0.009 A 
HETATM   33  C   UNK N   1      21.007  20.199   3.196  0.00  0.00     0.024 A 
HETATM   34  C   UNK N   1      20.704  19.769   1.902  0.00  0.00     0.034 A 
HETATM   35  C   UNK N   1      20.536  18.405   1.638  0.00  0.00     0.024 A 
HETATM   36 Cl   UNK N   1      20.534  20.940   0.614  0.00  0.00    -0.084 Cl
HETATM   37  C   UNK N   1      20.673  17.471   2.669  0.00  0.00     0.009 A 
ENDBRANCH  30  31
ENDBRANCH  29  30
ENDBRANCH  28  29
ENDBRANCH   1  28
TORSDOF 10
ENDMDL
