REMARK  11 active torsions:
REMARK  status: ('A' for Active; 'I' for Inactive)
REMARK    1  A    between atoms: C_3  and  O_18 
REMARK    2  A    between atoms: C_6  and  C_7 
REMARK    3  A    between atoms: C_7  and  C_8 
REMARK    4  A    between atoms: C_8  and  C_9 
REMARK    5  A    between atoms: C_9  and  C_10 
REMARK    6  A    between atoms: C_10  and  N_11 
REMARK    7  A    between atoms: O_18  and  C_19 
REMARK    8  A    between atoms: C_19  and  C_20 
REMARK    9  A    between atoms: C_23  and  C_26 
REMARK   10  A    between atoms: C_27  and  C_28 
REMARK   11  A    between atoms: C_31  and  C_34 
ROOT
HETATM    1  C   UNK N   1       5.297  -2.640   1.886  0.00  0.00     0.234 C 
ENDROOT
BRANCH   1   2
HETATM    2  O   UNK N   1       4.311  -3.573   1.822  0.00  0.00    -0.345 OA
BRANCH   2   3
HETATM    3  C   UNK N   1       4.392  -4.595   0.955  0.00  0.00     0.069 A 
HETATM    4  C   UNK N   1       3.294  -5.431   0.815  0.00  0.00     0.037 A 
HETATM    5  C   UNK N   1       3.376  -6.537  -0.016  0.00  0.00     0.010 A 
HETATM    6  C   UNK N   1       4.554  -6.795  -0.722  0.00  0.00    -0.058 A 
HETATM    7  C   UNK N   1       5.648  -5.936  -0.623  0.00  0.00     0.010 A 
HETATM    8  C   UNK N   1       5.565  -4.830   0.208  0.00  0.00     0.037 A 
BRANCH   6   9
HETATM    9  C   UNK N   1       4.740  -8.115  -1.353  0.00  0.00     0.038 C 
BRANCH   9  10
HETATM   10  C   UNK N   1       4.770  -9.148  -0.221  0.00  0.00     0.006 C 
BRANCH  10  11
HETATM   11  C   UNK N   1       5.833  -8.825   0.843  0.00  0.00     0.022 C 
BRANCH  11  12
HETATM   12  C   UNK N   1       7.246  -8.912   0.283  0.00  0.00     0.150 C 
BRANCH  12  13
HETATM   13  N   UNK N   1       7.495 -10.268  -0.173  0.00  0.00    -0.288 N 
HETATM   14  C   UNK N   1       8.346 -11.145   0.376  0.00  0.00     0.130 A 
HETATM   15  C   UNK N   1       8.202 -12.318  -0.344  0.00  0.00     0.127 A 
HETATM   16  N   UNK N   1       7.272 -12.099  -1.297  0.00  0.00    -0.296 N 
HETATM   17  N   UNK N   1       6.861 -10.848  -1.171  0.00  0.00    -0.241 N 
ATOM     18  HN  UNK N   1       6.945 -12.774  -1.988  1.00  0.00     0.187 HD
ATOM     19  HN  UNK N   1       6.158 -10.400  -1.759  1.00  0.00     0.208 HD
ENDBRANCH  12  13
ENDBRANCH  11  12
ENDBRANCH  10  11
ENDBRANCH   9  10
ENDBRANCH   6   9
ENDBRANCH   2   3
ENDBRANCH   1   2
BRANCH   1  20
HETATM   20  C   UNK N   1       5.181  -1.741   0.718  0.00  0.00     0.058 A 
HETATM   21  C   UNK N   1       4.114  -1.573  -0.154  0.00  0.00     0.171 A 
HETATM   22  O   UNK N   1       4.390  -0.512  -0.880  0.00  0.00    -0.304 OA
HETATM   23  C   UNK N   1       5.552  -0.062  -0.482  0.00  0.00     0.147 A 
HETATM   24  N   UNK N   1       6.079  -0.808   0.499  0.00  0.00    -0.337 N 
ATOM     25  HN  UNK N   1       6.974  -0.680   0.969  1.00  0.00     0.168 HD
BRANCH  23  26
HETATM   26  C   UNK N   1       6.063   1.260  -0.719  0.00  0.00     0.057 C 
HETATM   27  C   UNK N   1       6.768   1.691   0.319  0.00  0.00     0.015 C 
BRANCH  27  28
HETATM   28  C   UNK N   1       7.600   2.825   0.314  0.00  0.00    -0.036 A 
HETATM   29  C   UNK N   1       7.205   4.047  -0.223  0.00  0.00     0.012 A 
HETATM   30  C   UNK N   1       8.172   5.024  -0.428  0.00  0.00     0.017 A 
HETATM   31  C   UNK N   1       9.518   4.740  -0.141  0.00  0.00     0.048 A 
HETATM   32  C   UNK N   1       9.878   3.522   0.434  0.00  0.00     0.017 A 
HETATM   33  C   UNK N   1       8.914   2.573   0.672  0.00  0.00     0.012 A 
BRANCH  31  34
HETATM   34  C   UNK N   1      10.596   5.669  -0.543  0.00  0.00     0.417 C 
HETATM   35  F   UNK N   1      11.387   5.966   0.548  0.00  0.00    -0.166 F 
HETATM   36  F   UNK N   1      11.359   5.034  -1.509  0.00  0.00    -0.166 F 
HETATM   37  F   UNK N   1      10.071   6.831  -1.075  0.00  0.00    -0.166 F 
ENDBRANCH  31  34
ENDBRANCH  27  28
ENDBRANCH  23  26
ENDBRANCH   1  20
TORSDOF 11
