MODEL 1
REMARK VINA RESULT:      -8.2      0.000      0.000
REMARK  7 active torsions:
REMARK  status: ('A' for Active; 'I' for Inactive)
REMARK    1  A    between atoms: C_4  and  C_7 
REMARK    2  A    between atoms: C_7  and  C_8 
REMARK    3  A    between atoms: C_7  and  C_30 
REMARK    4  A    between atoms: C_8  and  C_9 
REMARK       I    between atoms: C_9  and  N_11 
REMARK    5  A    between atoms: N_14  and  C_17 
REMARK    6  A    between atoms: C_17  and  C_18 
REMARK    7  A    between atoms: C_17  and  C_24 
ROOT
HETATM    1  C   UNK N   1      26.645  15.130   5.708  0.00  0.00     0.220 C 
HETATM    2  O   UNK N   1      27.093  15.013   4.581  0.00  0.00    -0.273 OA
HETATM    3  N   UNK N   1      26.130  14.062   6.365  0.00  0.00    -0.349 N 
HETATM    4  C   UNK N   1      25.975  12.809   5.685  0.00  0.00     0.156 C 
HETATM    5  C   UNK N   1      24.486  12.692   5.396  0.00  0.00     0.293 C 
HETATM    6  N   UNK N   1      23.668  12.832   6.624  0.00  0.00     0.105 N 
HETATM    7  C   UNK N   1      23.977  14.072   7.361  0.00  0.00     0.293 C 
HETATM    8  C   UNK N   1      25.471  14.211   7.632  0.00  0.00     0.156 C 
ENDROOT
BRANCH   1   9
HETATM    9  C   UNK N   1      26.616  16.484   6.340  0.00  0.00     0.117 C 
BRANCH   9  10
HETATM   10  C   UNK N   1      27.643  17.388   5.684  0.00  0.00     0.060 C 
BRANCH  10  11
HETATM   11  C   UNK N   1      28.679  17.712   6.722  0.00  0.00    -0.049 A 
HETATM   12  C   UNK N   1      28.387  18.473   7.862  0.00  0.00     0.008 A 
HETATM   13  C   UNK N   1      29.356  18.640   8.860  0.00  0.00     0.001 A 
HETATM   14  C   UNK N   1      30.617  18.048   8.722  0.00  0.00     0.000 A 
HETATM   15  C   UNK N   1      30.914  17.293   7.586  0.00  0.00     0.001 A 
HETATM   16  C   UNK N   1      29.946  17.118   6.596  0.00  0.00     0.008 A 
ENDBRANCH  10  11
BRANCH  10  17
HETATM   17  C   UNK N   1      26.890  18.491   4.990  0.00  0.00    -0.049 A 
HETATM   18  C   UNK N   1      25.505  18.409   4.785  0.00  0.00     0.008 A 
HETATM   19  C   UNK N   1      24.864  19.333   3.954  0.00  0.00     0.001 A 
HETATM   20  C   UNK N   1      25.607  20.321   3.301  0.00  0.00     0.000 A 
HETATM   21  C   UNK N   1      26.989  20.403   3.498  0.00  0.00     0.001 A 
HETATM   22  C   UNK N   1      27.628  19.487   4.337  0.00  0.00     0.008 A 
ENDBRANCH  10  17
ENDBRANCH   9  10
ENDBRANCH   1   9
BRANCH   6  23
HETATM   23  C   UNK N   1      23.735  11.676   7.536  0.00  0.00     0.289 C 
BRANCH  23  24
HETATM   24  C   UNK N   1      23.046  12.040   8.829  0.00  0.00    -0.021 A 
HETATM   25  C   UNK N   1      23.594  11.687  10.071  0.00  0.00     0.010 A 
HETATM   26  C   UNK N   1      22.864  11.888  11.247  0.00  0.00     0.001 A 
HETATM   27  C   UNK N   1      21.567  12.407  11.186  0.00  0.00     0.000 A 
HETATM   28  C   UNK N   1      21.005  12.738   9.951  0.00  0.00     0.001 A 
HETATM   29  C   UNK N   1      21.739  12.550   8.777  0.00  0.00     0.010 A 
ENDBRANCH  23  24
BRANCH  23  30
HETATM   30  C   UNK N   1      23.266  10.400   6.873  0.00  0.00    -0.021 A 
HETATM   31  C   UNK N   1      22.147  10.445   6.033  0.00  0.00     0.010 A 
HETATM   32  C   UNK N   1      21.583   9.260   5.551  0.00  0.00     0.001 A 
HETATM   33  C   UNK N   1      22.128   8.025   5.919  0.00  0.00     0.000 A 
HETATM   34  C   UNK N   1      23.245   7.976   6.756  0.00  0.00     0.001 A 
HETATM   35  C   UNK N   1      23.809   9.159   7.239  0.00  0.00     0.010 A 
ENDBRANCH  23  30
ENDBRANCH   6  23
TORSDOF 7
ENDMDL
MODEL 2
REMARK VINA RESULT:      -8.1      3.549      4.576
REMARK  7 active torsions:
REMARK  status: ('A' for Active; 'I' for Inactive)
REMARK    1  A    between atoms: C_4  and  C_7 
REMARK    2  A    between atoms: C_7  and  C_8 
REMARK    3  A    between atoms: C_7  and  C_30 
REMARK    4  A    between atoms: C_8  and  C_9 
REMARK       I    between atoms: C_9  and  N_11 
REMARK    5  A    between atoms: N_14  and  C_17 
REMARK    6  A    between atoms: C_17  and  C_18 
REMARK    7  A    between atoms: C_17  and  C_24 
ROOT
HETATM    1  C   UNK N   1      27.986  15.299   4.357  0.00  0.00     0.220 C 
HETATM    2  O   UNK N   1      28.566  14.990   3.331  0.00  0.00    -0.273 OA
HETATM    3  N   UNK N   1      26.674  15.002   4.528  0.00  0.00    -0.349 N 
HETATM    4  C   UNK N   1      25.917  14.448   3.444  0.00  0.00     0.156 C 
HETATM    5  C   UNK N   1      25.056  15.593   2.930  0.00  0.00     0.293 C 
HETATM    6  N   UNK N   1      24.238  16.199   4.007  0.00  0.00     0.105 N 
HETATM    7  C   UNK N   1      25.055  16.618   5.161  0.00  0.00     0.293 C 
HETATM    8  C   UNK N   1      25.942  15.484   5.666  0.00  0.00     0.156 C 
ENDROOT
BRANCH   1   9
HETATM    9  C   UNK N   1      28.724  16.066   5.406  0.00  0.00     0.117 C 
BRANCH   9  10
HETATM   10  C   UNK N   1      29.284  17.347   4.816  0.00  0.00     0.060 C 
BRANCH  10  11
HETATM   11  C   UNK N   1      30.739  17.411   5.188  0.00  0.00    -0.049 A 
HETATM   12  C   UNK N   1      31.200  17.085   6.471  0.00  0.00     0.008 A 
HETATM   13  C   UNK N   1      32.576  17.039   6.729  0.00  0.00     0.001 A 
HETATM   14  C   UNK N   1      33.493  17.317   5.709  0.00  0.00     0.000 A 
HETATM   15  C   UNK N   1      33.038  17.645   4.431  0.00  0.00     0.001 A 
HETATM   16  C   UNK N   1      31.668  17.682   4.170  0.00  0.00     0.008 A 
ENDBRANCH  10  11
BRANCH  10  17
HETATM   17  C   UNK N   1      28.351  18.463   5.203  0.00  0.00    -0.049 A 
HETATM   18  C   UNK N   1      27.796  19.315   4.237  0.00  0.00     0.008 A 
HETATM   19  C   UNK N   1      27.112  20.469   4.631  0.00  0.00     0.001 A 
HETATM   20  C   UNK N   1      27.007  20.792   5.987  0.00  0.00     0.000 A 
HETATM   21  C   UNK N   1      27.564  19.949   6.953  0.00  0.00     0.001 A 
HETATM   22  C   UNK N   1      28.237  18.790   6.561  0.00  0.00     0.008 A 
ENDBRANCH  10  17
ENDBRANCH   9  10
ENDBRANCH   1   9
BRANCH   6  23
HETATM   23  C   UNK N   1      23.114  15.361   4.465  0.00  0.00     0.289 C 
BRANCH  23  24
HETATM   24  C   UNK N   1      22.385  16.091   5.567  0.00  0.00    -0.021 A 
HETATM   25  C   UNK N   1      21.875  15.407   6.680  0.00  0.00     0.010 A 
HETATM   26  C   UNK N   1      21.065  16.072   7.606  0.00  0.00     0.001 A 
HETATM   27  C   UNK N   1      20.726  17.413   7.405  0.00  0.00     0.000 A 
HETATM   28  C   UNK N   1      21.210  18.094   6.286  0.00  0.00     0.001 A 
HETATM   29  C   UNK N   1      22.032  17.434   5.368  0.00  0.00     0.010 A 
ENDBRANCH  23  24
BRANCH  23  30
HETATM   30  C   UNK N   1      22.261  14.875   3.315  0.00  0.00    -0.021 A 
HETATM   31  C   UNK N   1      22.210  13.504   3.040  0.00  0.00     0.010 A 
HETATM   32  C   UNK N   1      21.579  13.042   1.881  0.00  0.00     0.001 A 
HETATM   33  C   UNK N   1      21.009  13.953   0.985  0.00  0.00     0.000 A 
HETATM   34  C   UNK N   1      21.056  15.323   1.256  0.00  0.00     0.001 A 
HETATM   35  C   UNK N   1      21.687  15.786   2.412  0.00  0.00     0.010 A 
ENDBRANCH  23  30
ENDBRANCH   6  23
TORSDOF 7
ENDMDL
MODEL 3
REMARK VINA RESULT:      -8.0      4.623      9.144
REMARK  7 active torsions:
REMARK  status: ('A' for Active; 'I' for Inactive)
REMARK    1  A    between atoms: C_4  and  C_7 
REMARK    2  A    between atoms: C_7  and  C_8 
REMARK    3  A    between atoms: C_7  and  C_30 
REMARK    4  A    between atoms: C_8  and  C_9 
REMARK       I    between atoms: C_9  and  N_11 
REMARK    5  A    between atoms: N_14  and  C_17 
REMARK    6  A    between atoms: C_17  and  C_18 
REMARK    7  A    between atoms: C_17  and  C_24 
ROOT
HETATM    1  C   UNK N   1      28.726  18.212   6.994  0.00  0.00     0.220 C 
HETATM    2  O   UNK N   1      28.252  18.974   7.817  0.00  0.00    -0.273 OA
HETATM    3  N   UNK N   1      29.645  17.282   7.356  0.00  0.00    -0.349 N 
HETATM    4  C   UNK N   1      30.175  17.280   8.688  0.00  0.00     0.156 C 
HETATM    5  C   UNK N   1      31.577  17.860   8.562  0.00  0.00     0.293 C 
HETATM    6  N   UNK N   1      32.396  17.124   7.571  0.00  0.00     0.105 N 
HETATM    7  C   UNK N   1      31.732  17.031   6.256  0.00  0.00     0.293 C 
HETATM    8  C   UNK N   1      30.317  16.476   6.376  0.00  0.00     0.156 C 
ENDROOT
BRANCH   1   9
HETATM    9  C   UNK N   1      28.327  18.353   5.560  0.00  0.00     0.117 C 
BRANCH   9  10
HETATM   10  C   UNK N   1      26.940  17.776   5.347  0.00  0.00     0.060 C 
BRANCH  10  11
HETATM   11  C   UNK N   1      27.113  16.401   4.766  0.00  0.00    -0.049 A 
HETATM   12  C   UNK N   1      27.708  16.184   3.516  0.00  0.00     0.008 A 
HETATM   13  C   UNK N   1      27.959  14.877   3.078  0.00  0.00     0.001 A 
HETATM   14  C   UNK N   1      27.618  13.787   3.886  0.00  0.00     0.000 A 
HETATM   15  C   UNK N   1      27.022  13.998   5.130  0.00  0.00     0.001 A 
HETATM   16  C   UNK N   1      26.780  15.300   5.572  0.00  0.00     0.008 A 
ENDBRANCH  10  11
BRANCH  10  17
HETATM   17  C   UNK N   1      26.132  18.814   4.615  0.00  0.00    -0.049 A 
HETATM   18  C   UNK N   1      24.740  18.699   4.493  0.00  0.00     0.008 A 
HETATM   19  C   UNK N   1      24.039  19.549   3.632  0.00  0.00     0.001 A 
HETATM   20  C   UNK N   1      24.729  20.495   2.869  0.00  0.00     0.000 A 
HETATM   21  C   UNK N   1      26.117  20.610   2.982  0.00  0.00     0.001 A 
HETATM   22  C   UNK N   1      26.817  19.768   3.851  0.00  0.00     0.008 A 
ENDBRANCH  10  17
ENDBRANCH   9  10
ENDBRANCH   1   9
BRANCH   6  23
HETATM   23  C   UNK N   1      32.827  15.784   8.011  0.00  0.00     0.289 C 
BRANCH  23  24
HETATM   24  C   UNK N   1      33.473  15.077   6.843  0.00  0.00    -0.021 A 
HETATM   25  C   UNK N   1      33.000  13.835   6.392  0.00  0.00     0.010 A 
HETATM   26  C   UNK N   1      33.708  13.123   5.419  0.00  0.00     0.001 A 
HETATM   27  C   UNK N   1      34.913  13.626   4.920  0.00  0.00     0.000 A 
HETATM   28  C   UNK N   1      35.402  14.849   5.382  0.00  0.00     0.001 A 
HETATM   29  C   UNK N   1      34.688  15.569   6.344  0.00  0.00     0.010 A 
ENDBRANCH  23  24
BRANCH  23  30
HETATM   30  C   UNK N   1      33.641  15.838   9.284  0.00  0.00    -0.021 A 
HETATM   31  C   UNK N   1      34.568  16.874   9.452  0.00  0.00     0.010 A 
HETATM   32  C   UNK N   1      35.458  16.851  10.529  0.00  0.00     0.001 A 
HETATM   33  C   UNK N   1      35.435  15.785  11.434  0.00  0.00     0.000 A 
HETATM   34  C   UNK N   1      34.511  14.749  11.271  0.00  0.00     0.001 A 
HETATM   35  C   UNK N   1      33.622  14.770  10.194  0.00  0.00     0.010 A 
ENDBRANCH  23  30
ENDBRANCH   6  23
TORSDOF 7
ENDMDL
MODEL 4
REMARK VINA RESULT:      -8.0      3.177      5.339
REMARK  7 active torsions:
REMARK  status: ('A' for Active; 'I' for Inactive)
REMARK    1  A    between atoms: C_4  and  C_7 
REMARK    2  A    between atoms: C_7  and  C_8 
REMARK    3  A    between atoms: C_7  and  C_30 
REMARK    4  A    between atoms: C_8  and  C_9 
REMARK       I    between atoms: C_9  and  N_11 
REMARK    5  A    between atoms: N_14  and  C_17 
REMARK    6  A    between atoms: C_17  and  C_18 
REMARK    7  A    between atoms: C_17  and  C_24 
ROOT
HETATM    1  C   UNK N   1      27.818  16.093   4.187  0.00  0.00     0.220 C 
HETATM    2  O   UNK N   1      28.263  16.779   3.284  0.00  0.00    -0.273 OA
HETATM    3  N   UNK N   1      26.535  15.653   4.157  0.00  0.00    -0.349 N 
HETATM    4  C   UNK N   1      25.644  16.111   3.132  0.00  0.00     0.156 C 
HETATM    5  C   UNK N   1      24.735  17.123   3.814  0.00  0.00     0.293 C 
HETATM    6  N   UNK N   1      24.062  16.551   5.005  0.00  0.00     0.105 N 
HETATM    7  C   UNK N   1      25.022  15.962   5.958  0.00  0.00     0.293 C 
HETATM    8  C   UNK N   1      25.956  14.967   5.278  0.00  0.00     0.156 C 
ENDROOT
BRANCH   1   9
HETATM    9  C   UNK N   1      28.688  15.788   5.363  0.00  0.00     0.117 C 
BRANCH   9  10
HETATM   10  C   UNK N   1      29.625  16.951   5.633  0.00  0.00     0.060 C 
BRANCH  10  11
HETATM   11  C   UNK N   1      30.966  16.583   5.064  0.00  0.00    -0.049 A 
HETATM   12  C   UNK N   1      31.511  15.298   5.195  0.00  0.00     0.008 A 
HETATM   13  C   UNK N   1      32.705  14.973   4.540  0.00  0.00     0.001 A 
HETATM   14  C   UNK N   1      33.357  15.928   3.751  0.00  0.00     0.000 A 
HETATM   15  C   UNK N   1      32.820  17.210   3.620  0.00  0.00     0.001 A 
HETATM   16  C   UNK N   1      31.625  17.532   4.265  0.00  0.00     0.008 A 
ENDBRANCH  10  11
BRANCH  10  17
HETATM   17  C   UNK N   1      29.488  17.308   7.088  0.00  0.00    -0.049 A 
HETATM   18  C   UNK N   1      28.228  17.468   7.682  0.00  0.00     0.008 A 
HETATM   19  C   UNK N   1      28.123  18.009   8.968  0.00  0.00     0.001 A 
HETATM   20  C   UNK N   1      29.272  18.419   9.650  0.00  0.00     0.000 A 
HETATM   21  C   UNK N   1      30.530  18.267   9.060  0.00  0.00     0.001 A 
HETATM   22  C   UNK N   1      30.636  17.716   7.780  0.00  0.00     0.008 A 
ENDBRANCH  10  17
ENDBRANCH   9  10
ENDBRANCH   1   9
BRANCH   6  23
HETATM   23  C   UNK N   1      22.999  15.577   4.696  0.00  0.00     0.289 C 
BRANCH  23  24
HETATM   24  C   UNK N   1      22.261  15.248   5.972  0.00  0.00    -0.021 A 
HETATM   25  C   UNK N   1      21.883  13.932   6.275  0.00  0.00     0.010 A 
HETATM   26  C   UNK N   1      21.061  13.670   7.376  0.00  0.00     0.001 A 
HETATM   27  C   UNK N   1      20.580  14.725   8.158  0.00  0.00     0.000 A 
HETATM   28  C   UNK N   1      20.932  16.040   7.847  0.00  0.00     0.001 A 
HETATM   29  C   UNK N   1      21.764  16.301   6.755  0.00  0.00     0.010 A 
ENDBRANCH  23  24
BRANCH  23  30
HETATM   30  C   UNK N   1      22.143  16.021   3.531  0.00  0.00    -0.021 A 
HETATM   31  C   UNK N   1      21.378  17.186   3.657  0.00  0.00     0.010 A 
HETATM   32  C   UNK N   1      20.444  17.523   2.673  0.00  0.00     0.001 A 
HETATM   33  C   UNK N   1      20.260  16.687   1.567  0.00  0.00     0.000 A 
HETATM   34  C   UNK N   1      21.022  15.523   1.437  0.00  0.00     0.001 A 
HETATM   35  C   UNK N   1      21.955  15.184   2.419  0.00  0.00     0.010 A 
ENDBRANCH  23  30
ENDBRANCH   6  23
TORSDOF 7
ENDMDL
MODEL 5
REMARK VINA RESULT:      -7.8     15.345     18.213
REMARK  7 active torsions:
REMARK  status: ('A' for Active; 'I' for Inactive)
REMARK    1  A    between atoms: C_4  and  C_7 
REMARK    2  A    between atoms: C_7  and  C_8 
REMARK    3  A    between atoms: C_7  and  C_30 
REMARK    4  A    between atoms: C_8  and  C_9 
REMARK       I    between atoms: C_9  and  N_11 
REMARK    5  A    between atoms: N_14  and  C_17 
REMARK    6  A    between atoms: C_17  and  C_18 
REMARK    7  A    between atoms: C_17  and  C_24 
ROOT
HETATM    1  C   UNK N   1      29.303  21.731  -6.528  0.00  0.00     0.220 C 
HETATM    2  O   UNK N   1      29.667  20.863  -7.302  0.00  0.00    -0.273 OA
HETATM    3  N   UNK N   1      28.316  22.596  -6.870  0.00  0.00    -0.349 N 
HETATM    4  C   UNK N   1      27.789  22.591  -8.203  0.00  0.00     0.156 C 
HETATM    5  C   UNK N   1      28.387  23.818  -8.876  0.00  0.00     0.293 C 
HETATM    6  N   UNK N   1      28.117  25.058  -8.111  0.00  0.00     0.105 N 
HETATM    7  C   UNK N   1      28.549  24.952  -6.704  0.00  0.00     0.293 C 
HETATM    8  C   UNK N   1      27.976  23.709  -6.030  0.00  0.00     0.156 C 
ENDROOT
BRANCH   1   9
HETATM    9  C   UNK N   1      30.000  21.870  -5.213  0.00  0.00     0.117 C 
BRANCH   9  10
HETATM   10  C   UNK N   1      31.416  22.372  -5.425  0.00  0.00     0.060 C 
BRANCH  10  11
HETATM   11  C   UNK N   1      32.348  21.286  -4.969  0.00  0.00    -0.049 A 
HETATM   12  C   UNK N   1      32.760  20.247  -5.815  0.00  0.00     0.008 A 
HETATM   13  C   UNK N   1      33.726  19.331  -5.379  0.00  0.00     0.001 A 
HETATM   14  C   UNK N   1      34.283  19.451  -4.101  0.00  0.00     0.000 A 
HETATM   15  C   UNK N   1      33.873  20.481  -3.254  0.00  0.00     0.001 A 
HETATM   16  C   UNK N   1      32.917  21.400  -3.690  0.00  0.00     0.008 A 
ENDBRANCH  10  11
BRANCH  10  17
HETATM   17  C   UNK N   1      31.498  23.748  -4.820  0.00  0.00    -0.049 A 
HETATM   18  C   UNK N   1      30.636  24.140  -3.785  0.00  0.00     0.008 A 
HETATM   19  C   UNK N   1      30.580  25.479  -3.389  0.00  0.00     0.001 A 
HETATM   20  C   UNK N   1      31.361  26.436  -4.044  0.00  0.00     0.000 A 
HETATM   21  C   UNK N   1      32.217  26.051  -5.080  0.00  0.00     0.001 A 
HETATM   22  C   UNK N   1      32.282  24.711  -5.469  0.00  0.00     0.008 A 
ENDBRANCH  10  17
ENDBRANCH   9  10
ENDBRANCH   1   9
BRANCH   6  23
HETATM   23  C   UNK N   1      26.718  25.520  -8.172  0.00  0.00     0.289 C 
BRANCH  23  24
HETATM   24  C   UNK N   1      26.540  26.652  -7.189  0.00  0.00    -0.021 A 
HETATM   25  C   UNK N   1      27.497  27.672  -7.072  0.00  0.00     0.010 A 
HETATM   26  C   UNK N   1      27.395  28.619  -6.048  0.00  0.00     0.001 A 
HETATM   27  C   UNK N   1      26.362  28.531  -5.111  0.00  0.00     0.000 A 
HETATM   28  C   UNK N   1      25.420  27.504  -5.207  0.00  0.00     0.001 A 
HETATM   29  C   UNK N   1      25.512  26.566  -6.238  0.00  0.00     0.010 A 
ENDBRANCH  23  24
BRANCH  23  30
HETATM   30  C   UNK N   1      26.273  25.799  -9.590  0.00  0.00    -0.021 A 
HETATM   31  C   UNK N   1      27.098  26.566 -10.421  0.00  0.00     0.010 A 
HETATM   32  C   UNK N   1      26.636  26.990 -11.671  0.00  0.00     0.001 A 
HETATM   33  C   UNK N   1      25.342  26.661 -12.087  0.00  0.00     0.000 A 
HETATM   34  C   UNK N   1      24.516  25.894 -11.262  0.00  0.00     0.001 A 
HETATM   35  C   UNK N   1      24.975  25.471 -10.013  0.00  0.00     0.010 A 
ENDBRANCH  23  30
ENDBRANCH   6  23
TORSDOF 7
ENDMDL
MODEL 6
REMARK VINA RESULT:      -7.8      2.894      5.429
REMARK  7 active torsions:
REMARK  status: ('A' for Active; 'I' for Inactive)
REMARK    1  A    between atoms: C_4  and  C_7 
REMARK    2  A    between atoms: C_7  and  C_8 
REMARK    3  A    between atoms: C_7  and  C_30 
REMARK    4  A    between atoms: C_8  and  C_9 
REMARK       I    between atoms: C_9  and  N_11 
REMARK    5  A    between atoms: N_14  and  C_17 
REMARK    6  A    between atoms: C_17  and  C_18 
REMARK    7  A    between atoms: C_17  and  C_24 
ROOT
HETATM    1  C   UNK N   1      27.509  15.397   4.988  0.00  0.00     0.220 C 
HETATM    2  O   UNK N   1      28.126  14.372   5.217  0.00  0.00    -0.273 OA
HETATM    3  N   UNK N   1      26.162  15.447   5.148  0.00  0.00    -0.349 N 
HETATM    4  C   UNK N   1      25.432  14.251   5.449  0.00  0.00     0.156 C 
HETATM    5  C   UNK N   1      24.742  13.865   4.148  0.00  0.00     0.293 C 
HETATM    6  N   UNK N   1      23.918  14.971   3.607  0.00  0.00     0.105 N 
HETATM    7  C   UNK N   1      24.689  16.220   3.456  0.00  0.00     0.293 C 
HETATM    8  C   UNK N   1      25.406  16.600   4.747  0.00  0.00     0.156 C 
ENDROOT
BRANCH   1   9
HETATM    9  C   UNK N   1      28.247  16.590   4.471  0.00  0.00     0.117 C 
BRANCH   9  10
HETATM   10  C   UNK N   1      28.823  17.387   5.627  0.00  0.00     0.060 C 
BRANCH  10  11
HETATM   11  C   UNK N   1      28.179  18.744   5.596  0.00  0.00    -0.049 A 
HETATM   12  C   UNK N   1      27.768  19.353   4.402  0.00  0.00     0.008 A 
HETATM   13  C   UNK N   1      27.061  20.562   4.440  0.00  0.00     0.001 A 
HETATM   14  C   UNK N   1      26.762  21.163   5.668  0.00  0.00     0.000 A 
HETATM   15  C   UNK N   1      27.172  20.563   6.859  0.00  0.00     0.001 A 
HETATM   16  C   UNK N   1      27.868  19.354   6.823  0.00  0.00     0.008 A 
ENDBRANCH  10  11
BRANCH  10  17
HETATM   17  C   UNK N   1      30.320  17.254   5.560  0.00  0.00    -0.049 A 
HETATM   18  C   UNK N   1      31.096  17.176   6.725  0.00  0.00     0.008 A 
HETATM   19  C   UNK N   1      32.489  17.271   6.648  0.00  0.00     0.001 A 
HETATM   20  C   UNK N   1      33.108  17.476   5.412  0.00  0.00     0.000 A 
HETATM   21  C   UNK N   1      32.339  17.561   4.248  0.00  0.00     0.001 A 
HETATM   22  C   UNK N   1      30.948  17.454   4.323  0.00  0.00     0.008 A 
ENDBRANCH  10  17
ENDBRANCH   9  10
ENDBRANCH   1   9
BRANCH   6  23
HETATM   23  C   UNK N   1      22.679  15.234   4.361  0.00  0.00     0.289 C 
BRANCH  23  24
HETATM   24  C   UNK N   1      21.819  16.183   3.562  0.00  0.00    -0.021 A 
HETATM   25  C   UNK N   1      21.273  17.337   4.144  0.00  0.00     0.010 A 
HETATM   26  C   UNK N   1      20.351  18.114   3.437  0.00  0.00     0.001 A 
HETATM   27  C   UNK N   1      19.937  17.723   2.160  0.00  0.00     0.000 A 
HETATM   28  C   UNK N   1      20.458  16.562   1.584  0.00  0.00     0.001 A 
HETATM   29  C   UNK N   1      21.390  15.793   2.284  0.00  0.00     0.010 A 
ENDBRANCH  23  24
BRANCH  23  30
HETATM   30  C   UNK N   1      22.008  13.957   4.817  0.00  0.00    -0.021 A 
HETATM   31  C   UNK N   1      21.484  13.086   3.854  0.00  0.00     0.010 A 
HETATM   32  C   UNK N   1      20.704  11.994   4.245  0.00  0.00     0.001 A 
HETATM   33  C   UNK N   1      20.434  11.778   5.601  0.00  0.00     0.000 A 
HETATM   34  C   UNK N   1      20.956  12.643   6.565  0.00  0.00     0.001 A 
HETATM   35  C   UNK N   1      21.734  13.736   6.176  0.00  0.00     0.010 A 
ENDBRANCH  23  30
ENDBRANCH   6  23
TORSDOF 7
ENDMDL
MODEL 7
REMARK VINA RESULT:      -7.7      8.781     13.346
REMARK  7 active torsions:
REMARK  status: ('A' for Active; 'I' for Inactive)
REMARK    1  A    between atoms: C_4  and  C_7 
REMARK    2  A    between atoms: C_7  and  C_8 
REMARK    3  A    between atoms: C_7  and  C_30 
REMARK    4  A    between atoms: C_8  and  C_9 
REMARK       I    between atoms: C_9  and  N_11 
REMARK    5  A    between atoms: N_14  and  C_17 
REMARK    6  A    between atoms: C_17  and  C_18 
REMARK    7  A    between atoms: C_17  and  C_24 
ROOT
HETATM    1  C   UNK N   1      36.555  14.066  13.541  0.00  0.00     0.220 C 
HETATM    2  O   UNK N   1      36.427  15.000  14.312  0.00  0.00    -0.273 OA
HETATM    3  N   UNK N   1      36.399  14.241  12.205  0.00  0.00    -0.349 N 
HETATM    4  C   UNK N   1      35.939  15.500  11.697  0.00  0.00     0.156 C 
HETATM    5  C   UNK N   1      34.485  15.269  11.311  0.00  0.00     0.293 C 
HETATM    6  N   UNK N   1      34.334  14.133  10.372  0.00  0.00     0.105 N 
HETATM    7  C   UNK N   1      34.956  12.898  10.885  0.00  0.00     0.293 C 
HETATM    8  C   UNK N   1      36.406  13.126  11.301  0.00  0.00     0.156 C 
ENDROOT
BRANCH   1   9
HETATM    9  C   UNK N   1      36.829  12.703  14.091  0.00  0.00     0.117 C 
BRANCH   9  10
HETATM   10  C   UNK N   1      35.538  12.064  14.566  0.00  0.00     0.060 C 
BRANCH  10  11
HETATM   11  C   UNK N   1      35.577  12.042  16.068  0.00  0.00    -0.049 A 
HETATM   12  C   UNK N   1      35.156  13.129  16.846  0.00  0.00     0.008 A 
HETATM   13  C   UNK N   1      35.095  13.010  18.240  0.00  0.00     0.001 A 
HETATM   14  C   UNK N   1      35.453  11.807  18.860  0.00  0.00     0.000 A 
HETATM   15  C   UNK N   1      35.876  10.723  18.090  0.00  0.00     0.001 A 
HETATM   16  C   UNK N   1      35.928  10.837  16.700  0.00  0.00     0.008 A 
ENDBRANCH  10  11
BRANCH  10  17
HETATM   17  C   UNK N   1      35.359  10.786  13.791  0.00  0.00    -0.049 A 
HETATM   18  C   UNK N   1      36.464  10.040  13.355  0.00  0.00     0.008 A 
HETATM   19  C   UNK N   1      36.285   8.983  12.458  0.00  0.00     0.001 A 
HETATM   20  C   UNK N   1      35.009   8.688  11.969  0.00  0.00     0.000 A 
HETATM   21  C   UNK N   1      33.906   9.434  12.395  0.00  0.00     0.001 A 
HETATM   22  C   UNK N   1      34.083  10.483  13.301  0.00  0.00     0.008 A 
ENDBRANCH  10  17
ENDBRANCH   9  10
ENDBRANCH   1   9
BRANCH   6  23
HETATM   23  C   UNK N   1      34.811  14.404   9.003  0.00  0.00     0.289 C 
BRANCH  23  24
HETATM   24  C   UNK N   1      34.775  13.117   8.215  0.00  0.00    -0.021 A 
HETATM   25  C   UNK N   1      35.852  12.729   7.405  0.00  0.00     0.010 A 
HETATM   26  C   UNK N   1      35.735  11.621   6.560  0.00  0.00     0.001 A 
HETATM   27  C   UNK N   1      34.529  10.918   6.489  0.00  0.00     0.000 A 
HETATM   28  C   UNK N   1      33.444  11.313   7.274  0.00  0.00     0.001 A 
HETATM   29  C   UNK N   1      33.565  12.412   8.130  0.00  0.00     0.010 A 
ENDBRANCH  23  24
BRANCH  23  30
HETATM   30  C   UNK N   1      34.102  15.584   8.377  0.00  0.00    -0.021 A 
HETATM   31  C   UNK N   1      34.828  16.753   8.119  0.00  0.00     0.010 A 
HETATM   32  C   UNK N   1      34.167  17.914   7.710  0.00  0.00     0.001 A 
HETATM   33  C   UNK N   1      32.775  17.916   7.573  0.00  0.00     0.000 A 
HETATM   34  C   UNK N   1      32.046  16.752   7.829  0.00  0.00     0.001 A 
HETATM   35  C   UNK N   1      32.705  15.591   8.239  0.00  0.00     0.010 A 
ENDBRANCH  23  30
ENDBRANCH   6  23
TORSDOF 7
ENDMDL
MODEL 8
REMARK VINA RESULT:      -7.7      6.879     11.484
REMARK  7 active torsions:
REMARK  status: ('A' for Active; 'I' for Inactive)
REMARK    1  A    between atoms: C_4  and  C_7 
REMARK    2  A    between atoms: C_7  and  C_8 
REMARK    3  A    between atoms: C_7  and  C_30 
REMARK    4  A    between atoms: C_8  and  C_9 
REMARK       I    between atoms: C_9  and  N_11 
REMARK    5  A    between atoms: N_14  and  C_17 
REMARK    6  A    between atoms: C_17  and  C_18 
REMARK    7  A    between atoms: C_17  and  C_24 
ROOT
HETATM    1  C   UNK N   1      35.232  13.600   9.392  0.00  0.00     0.220 C 
HETATM    2  O   UNK N   1      36.349  13.497   8.917  0.00  0.00    -0.273 OA
HETATM    3  N   UNK N   1      34.189  14.011   8.628  0.00  0.00    -0.349 N 
HETATM    4  C   UNK N   1      34.417  14.466   7.288  0.00  0.00     0.156 C 
HETATM    5  C   UNK N   1      34.293  15.981   7.353  0.00  0.00     0.293 C 
HETATM    6  N   UNK N   1      32.999  16.408   7.937  0.00  0.00     0.105 N 
HETATM    7  C   UNK N   1      32.751  15.791   9.254  0.00  0.00     0.293 C 
HETATM    8  C   UNK N   1      32.901  14.274   9.205  0.00  0.00     0.156 C 
ENDROOT
BRANCH   1   9
HETATM    9  C   UNK N   1      35.033  13.326  10.847  0.00  0.00     0.117 C 
BRANCH   9  10
HETATM   10  C   UNK N   1      36.042  12.298  11.326  0.00  0.00     0.060 C 
BRANCH  10  11
HETATM   11  C   UNK N   1      35.424  10.943  11.129  0.00  0.00    -0.049 A 
HETATM   12  C   UNK N   1      34.137  10.630  11.588  0.00  0.00     0.008 A 
HETATM   13  C   UNK N   1      33.561   9.394  11.269  0.00  0.00     0.001 A 
HETATM   14  C   UNK N   1      34.267   8.469  10.492  0.00  0.00     0.000 A 
HETATM   15  C   UNK N   1      35.550   8.774  10.036  0.00  0.00     0.001 A 
HETATM   16  C   UNK N   1      36.121  10.009  10.345  0.00  0.00     0.008 A 
ENDBRANCH  10  11
BRANCH  10  17
HETATM   17  C   UNK N   1      36.508  12.731  12.690  0.00  0.00    -0.049 A 
HETATM   18  C   UNK N   1      36.897  11.793  13.657  0.00  0.00     0.008 A 
HETATM   19  C   UNK N   1      37.117  12.197  14.978  0.00  0.00     0.001 A 
HETATM   20  C   UNK N   1      36.920  13.532  15.342  0.00  0.00     0.000 A 
HETATM   21  C   UNK N   1      36.527  14.470  14.383  0.00  0.00     0.001 A 
HETATM   22  C   UNK N   1      36.318  14.068  13.061  0.00  0.00     0.008 A 
ENDBRANCH  10  17
ENDBRANCH   9  10
ENDBRANCH   1   9
BRANCH   6  23
HETATM   23  C   UNK N   1      31.835  16.199   7.057  0.00  0.00     0.289 C 
BRANCH  23  24
HETATM   24  C   UNK N   1      30.709  17.089   7.528  0.00  0.00    -0.021 A 
HETATM   25  C   UNK N   1      30.886  17.985   8.593  0.00  0.00     0.010 A 
HETATM   26  C   UNK N   1      29.792  18.680   9.118  0.00  0.00     0.001 A 
HETATM   27  C   UNK N   1      28.509  18.456   8.610  0.00  0.00     0.000 A 
HETATM   28  C   UNK N   1      28.322  17.547   7.566  0.00  0.00     0.001 A 
HETATM   29  C   UNK N   1      29.416  16.862   7.031  0.00  0.00     0.010 A 
ENDBRANCH  23  24
BRANCH  23  30
HETATM   30  C   UNK N   1      32.199  16.311   5.594  0.00  0.00    -0.021 A 
HETATM   31  C   UNK N   1      32.604  17.552   5.089  0.00  0.00     0.010 A 
HETATM   32  C   UNK N   1      32.774  17.729   3.713  0.00  0.00     0.001 A 
HETATM   33  C   UNK N   1      32.524  16.669   2.835  0.00  0.00     0.000 A 
HETATM   34  C   UNK N   1      32.121  15.428   3.335  0.00  0.00     0.001 A 
HETATM   35  C   UNK N   1      31.950  15.250   4.709  0.00  0.00     0.010 A 
ENDBRANCH  23  30
ENDBRANCH   6  23
TORSDOF 7
ENDMDL
MODEL 9
REMARK VINA RESULT:      -7.6     15.250     18.485
REMARK  7 active torsions:
REMARK  status: ('A' for Active; 'I' for Inactive)
REMARK    1  A    between atoms: C_4  and  C_7 
REMARK    2  A    between atoms: C_7  and  C_8 
REMARK    3  A    between atoms: C_7  and  C_30 
REMARK    4  A    between atoms: C_8  and  C_9 
REMARK       I    between atoms: C_9  and  N_11 
REMARK    5  A    between atoms: N_14  and  C_17 
REMARK    6  A    between atoms: C_17  and  C_18 
REMARK    7  A    between atoms: C_17  and  C_24 
ROOT
HETATM    1  C   UNK N   1      30.039  22.718  -4.379  0.00  0.00     0.220 C 
HETATM    2  O   UNK N   1      30.233  22.725  -3.176  0.00  0.00    -0.273 OA
HETATM    3  N   UNK N   1      29.729  23.863  -5.038  0.00  0.00    -0.349 N 
HETATM    4  C   UNK N   1      29.487  25.070  -4.303  0.00  0.00     0.156 C 
HETATM    5  C   UNK N   1      27.977  25.259  -4.331  0.00  0.00     0.293 C 
HETATM    6  N   UNK N   1      27.443  25.261  -5.713  0.00  0.00     0.105 N 
HETATM    7  C   UNK N   1      27.848  24.061  -6.470  0.00  0.00     0.293 C 
HETATM    8  C   UNK N   1      29.358  23.848  -6.425  0.00  0.00     0.156 C 
ENDROOT
BRANCH   1   9
HETATM    9  C   UNK N   1      30.086  21.419  -5.115  0.00  0.00     0.117 C 
BRANCH   9  10
HETATM   10  C   UNK N   1      31.264  21.404  -6.072  0.00  0.00     0.060 C 
BRANCH  10  11
HETATM   11  C   UNK N   1      30.967  20.378  -7.128  0.00  0.00    -0.049 A 
HETATM   12  C   UNK N   1      31.918  19.985  -8.080  0.00  0.00     0.008 A 
HETATM   13  C   UNK N   1      31.633  18.935  -8.962  0.00  0.00     0.001 A 
HETATM   14  C   UNK N   1      30.400  18.277  -8.897  0.00  0.00     0.000 A 
HETATM   15  C   UNK N   1      29.448  18.668  -7.954  0.00  0.00     0.001 A 
HETATM   16  C   UNK N   1      29.736  19.706  -7.067  0.00  0.00     0.008 A 
ENDBRANCH  10  11
BRANCH  10  17
HETATM   17  C   UNK N   1      32.514  21.301  -5.240  0.00  0.00    -0.049 A 
HETATM   18  C   UNK N   1      33.580  22.195  -5.417  0.00  0.00     0.008 A 
HETATM   19  C   UNK N   1      34.809  21.952  -4.794  0.00  0.00     0.001 A 
HETATM   20  C   UNK N   1      34.985  20.801  -4.020  0.00  0.00     0.000 A 
HETATM   21  C   UNK N   1      33.927  19.905  -3.846  0.00  0.00     0.001 A 
HETATM   22  C   UNK N   1      32.696  20.153  -4.459  0.00  0.00     0.008 A 
ENDBRANCH  10  17
ENDBRANCH   9  10
ENDBRANCH   1   9
BRANCH   6  23
HETATM   23  C   UNK N   1      27.761  26.474  -6.489  0.00  0.00     0.289 C 
BRANCH  23  24
HETATM   24  C   UNK N   1      27.287  26.278  -7.909  0.00  0.00    -0.021 A 
HETATM   25  C   UNK N   1      28.127  26.545  -9.000  0.00  0.00     0.010 A 
HETATM   26  C   UNK N   1      27.621  26.513 -10.303  0.00  0.00     0.001 A 
HETATM   27  C   UNK N   1      26.265  26.255 -10.523  0.00  0.00     0.000 A 
HETATM   28  C   UNK N   1      25.417  26.013  -9.440  0.00  0.00     0.001 A 
HETATM   29  C   UNK N   1      25.925  26.029  -8.138  0.00  0.00     0.010 A 
ENDBRANCH  23  24
BRANCH  23  30
HETATM   30  C   UNK N   1      27.281  27.732  -5.799  0.00  0.00    -0.021 A 
HETATM   31  C   UNK N   1      28.031  28.906  -5.932  0.00  0.00     0.010 A 
HETATM   32  C   UNK N   1      27.715  30.032  -5.166  0.00  0.00     0.001 A 
HETATM   33  C   UNK N   1      26.657  29.982  -4.252  0.00  0.00     0.000 A 
HETATM   34  C   UNK N   1      25.905  28.812  -4.117  0.00  0.00     0.001 A 
HETATM   35  C   UNK N   1      26.220  27.686  -4.880  0.00  0.00     0.010 A 
ENDBRANCH  23  30
ENDBRANCH   6  23
TORSDOF 7
ENDMDL
