REMARK  7 active torsions:
REMARK  status: ('A' for Active; 'I' for Inactive)
REMARK    1  A    between atoms: C_2  and  C_4 
REMARK    2  A    between atoms: C_7  and  C_14 
REMARK       I    between atoms: C_14  and  N_16 
REMARK    3  A    between atoms: N_16  and  C_17 
REMARK    4  A    between atoms: C_17  and  C_18 
REMARK    5  A    between atoms: N_21  and  C_24 
REMARK    6  A    between atoms: C_24  and  C_25 
REMARK       I    between atoms: N_28  and  C_31 
REMARK    7  A    between atoms: C_31  and  O_33 
ROOT
HETATM    1  C   UNK N   1       1.475   1.182   0.042  0.00  0.00     0.254 C 
HETATM    2  O   UNK N   1       0.375   1.517  -0.372  0.00  0.00    -0.268 OA
HETATM    3  N   UNK N   1       2.391   2.108   0.381  0.00  0.00    -0.356 N 
HETATM    4  H   UNK N   1       3.233   1.781   0.773  0.00  0.00     0.162 HD
ENDROOT
BRANCH   3   5
HETATM    5  C   UNK N   1       2.253   3.536   0.223  0.00  0.00     0.127 C 
BRANCH   5   6
HETATM    6  C   UNK N   1       3.565   4.196   0.668  0.00  0.00     0.007 C 
HETATM    7  C   UNK N   1       3.792   5.535  -0.057  0.00  0.00     0.036 C 
HETATM    8  C   UNK N   1       5.223   6.064   0.187  0.00  0.00     0.273 C 
HETATM    9  N   UNK N   1       6.188   5.025  -0.180  0.00  0.00     0.088 N 
HETATM   10  C   UNK N   1       6.023   3.937   0.765  0.00  0.00     0.273 C 
HETATM   11  C   UNK N   1       4.742   3.243   0.424  0.00  0.00     0.036 C 
BRANCH   9  12
HETATM   12  C   UNK N   1       7.561   5.478  -0.030  0.00  0.00     0.277 C 
BRANCH  12  13
HETATM   13  C   UNK N   1       8.472   4.789  -1.065  0.00  0.00     0.017 C 
HETATM   14  C   UNK N   1       9.949   4.923  -0.679  0.00  0.00     0.026 C 
HETATM   15  C   UNK N   1      10.318   3.967   0.460  0.00  0.00     0.128 C 
HETATM   16  N   UNK N   1       9.920   2.617   0.115  0.00  0.00    -0.328 N 
HETATM   17  C   UNK N   1       8.522   2.407  -0.187  0.00  0.00     0.128 C 
HETATM   18  C   UNK N   1      10.795   1.558   0.046  0.00  0.00     0.362 C 
HETATM   19  C   UNK N   1       8.129   3.313  -1.354  0.00  0.00     0.026 C 
HETATM   20  O   UNK N   1      10.363   0.448  -0.230  0.00  0.00    -0.238 OA
BRANCH  18  21
HETATM   21  O   UNK N   1      12.137   1.675   0.269  0.00  0.00    -0.309 OA
HETATM   22  C   UNK N   1      12.843   2.835   0.479  0.00  0.00     0.215 C 
ENDBRANCH  18  21
ENDBRANCH  12  13
ENDBRANCH   9  12
ENDBRANCH   5   6
ENDBRANCH   3   5
BRANCH   1  23
HETATM   23  C   UNK N   1       1.858  -0.244   0.141  0.00  0.00     0.060 A 
HETATM   24  C   UNK N   1       0.949  -1.285  -0.038  0.00  0.00     0.076 A 
HETATM   25  N   UNK N   1      -0.370  -1.207  -0.260  0.00  0.00    -0.343 N 
HETATM   26  C   UNK N   1       1.326  -2.592   0.022  0.00  0.00     0.061 A 
HETATM   27  C   UNK N   1      -0.766  -2.504  -0.335  0.00  0.00     0.085 A 
HETATM   28  H   UNK N   1      -0.924  -0.398  -0.348  0.00  0.00     0.167 HD
HETATM   29  N   UNK N   1       0.261  -3.379  -0.177  0.00  0.00    -0.344 N 
ATOM     30  HN  UNK N   1       0.229  -4.399  -0.204  1.00  0.00     0.167 HD
HETATM   31  C   UNK N   1       2.638  -2.979   0.275  0.00  0.00     0.032 A 
HETATM   32  C   UNK N   1       3.586  -1.961   0.479  0.00  0.00     0.003 A 
HETATM   33  C   UNK N   1       3.200  -0.603   0.413  0.00  0.00     0.019 A 
BRANCH  27  34
HETATM   34  C   UNK N   1      -2.188  -2.934  -0.533  0.00  0.00     0.045 C 
HETATM   35  C   UNK N   1      -2.558  -4.011   0.468  0.00  0.00     0.017 C 
HETATM   36  C   UNK N   1      -3.143  -1.763  -0.359  0.00  0.00     0.017 C 
ENDBRANCH  27  34
ENDBRANCH   1  23
TORSDOF 7
