MODEL 1
REMARK VINA RESULT:      -5.6      0.000      0.000
REMARK  5 active torsions:
REMARK  status: ('A' for Active; 'I' for Inactive)
REMARK    1  A    between atoms: N_10  and  C_12 
REMARK    2  A    between atoms: C_12  and  C_13 
REMARK    3  A    between atoms: C_13  and  P_14 
REMARK    4  A    between atoms: P_14  and  O_16 
REMARK    5  A    between atoms: P_14  and  O_17 
ROOT
HETATM    1  C   UNK N   1      24.485  18.489   3.811  0.00  0.00     0.039 C 
HETATM    2  C   UNK N   1      24.598  20.009   3.774  0.00  0.00     0.121 C 
HETATM    3  N   UNK N   1      23.622  20.618   2.897  0.00  0.00    -0.385 N 
HETATM    4  C   UNK N   1      22.269  20.192   2.840  0.00  0.00     0.114 A 
HETATM    5  C   UNK N   1      21.628  19.128   3.350  0.00  0.00     0.116 A 
HETATM    6  C   UNK N   1      20.380  19.487   2.663  0.00  0.00     0.252 A 
HETATM    7  O   UNK N   1      19.261  19.012   2.560  0.00  0.00    -0.281 OA
HETATM    8  C   UNK N   1      21.078  20.637   2.113  0.00  0.00     0.252 A 
HETATM    9  O   UNK N   1      20.815  21.528   1.322  0.00  0.00    -0.281 OA
HETATM   10  N   UNK N   1      22.092  18.042   4.146  0.00  0.00    -0.375 N 
HETATM   11  C   UNK N   1      23.385  18.099   4.789  0.00  0.00     0.125 C 
HETATM   12  H   UNK N   1      23.908  21.358   2.315  0.00  0.00     0.159 HD
ENDROOT
BRANCH  10  13
HETATM   13  C   UNK N   1      21.346  16.812   4.215  0.00  0.00     0.135 C 
BRANCH  13  14
HETATM   14  C   UNK N   1      20.356  16.799   5.371  0.00  0.00     0.144 C 
BRANCH  14  15
HETATM   15  P   UNK N   1      19.215  15.336   5.165  0.00  0.00     0.237 P 
HETATM   16  O   UNK N   1      17.710  15.563   5.468  0.00  0.00    -0.653 OA
BRANCH  15  17
HETATM   17  O   UNK N   1      19.350  15.785   6.838  0.00  0.00    -0.329 OA
HETATM   18  H   UNK N   1      19.567  16.624   7.274  0.00  0.00     0.220 HD
ENDBRANCH  15  17
BRANCH  15  19
HETATM   19  O   UNK N   1      18.894  16.718   4.166  0.00  0.00    -0.329 OA
HETATM   20  H   UNK N   1      18.492  17.564   4.422  0.00  0.00     0.220 HD
ENDBRANCH  15  19
ENDBRANCH  14  15
ENDBRANCH  13  14
ENDBRANCH  10  13
TORSDOF 5
ENDMDL
MODEL 2
REMARK VINA RESULT:      -5.5     10.091     11.336
REMARK  5 active torsions:
REMARK  status: ('A' for Active; 'I' for Inactive)
REMARK    1  A    between atoms: N_10  and  C_12 
REMARK    2  A    between atoms: C_12  and  C_13 
REMARK    3  A    between atoms: C_13  and  P_14 
REMARK    4  A    between atoms: P_14  and  O_16 
REMARK    5  A    between atoms: P_14  and  O_17 
ROOT
HETATM    1  C   UNK N   1      29.443  18.495   9.292  0.00  0.00     0.039 C 
HETATM    2  C   UNK N   1      27.986  18.226   8.935  0.00  0.00     0.121 C 
HETATM    3  N   UNK N   1      27.708  18.442   7.532  0.00  0.00    -0.385 N 
HETATM    4  C   UNK N   1      28.586  18.017   6.501  0.00  0.00     0.114 A 
HETATM    5  C   UNK N   1      29.842  17.543   6.514  0.00  0.00     0.116 A 
HETATM    6  C   UNK N   1      29.907  17.532   5.046  0.00  0.00     0.252 A 
HETATM    7  O   UNK N   1      30.744  17.258   4.202  0.00  0.00    -0.281 OA
HETATM    8  C   UNK N   1      28.548  18.047   5.037  0.00  0.00     0.252 A 
HETATM    9  O   UNK N   1      27.758  18.424   4.187  0.00  0.00    -0.281 OA
HETATM   10  N   UNK N   1      30.742  17.290   7.588  0.00  0.00    -0.375 N 
HETATM   11  C   UNK N   1      30.269  17.262   8.954  0.00  0.00     0.125 C 
HETATM   12  H   UNK N   1      26.876  18.904   7.281  0.00  0.00     0.159 HD
ENDROOT
BRANCH  10  13
HETATM   13  C   UNK N   1      32.160  17.196   7.351  0.00  0.00     0.135 C 
BRANCH  13  14
HETATM   14  C   UNK N   1      32.963  18.093   8.281  0.00  0.00     0.144 C 
BRANCH  14  15
HETATM   15  P   UNK N   1      34.663  17.354   8.503  0.00  0.00     0.237 P 
HETATM   16  O   UNK N   1      35.420  17.698   9.813  0.00  0.00    -0.653 OA
BRANCH  15  17
HETATM   17  O   UNK N   1      34.759  19.078   8.305  0.00  0.00    -0.329 OA
HETATM   18  H   UNK N   1      35.301  19.756   8.739  0.00  0.00     0.220 HD
ENDBRANCH  15  17
BRANCH  15  19
HETATM   19  O   UNK N   1      33.467  16.920   9.683  0.00  0.00    -0.329 OA
HETATM   20  H   UNK N   1      33.038  16.059   9.813  0.00  0.00     0.220 HD
ENDBRANCH  15  19
ENDBRANCH  14  15
ENDBRANCH  13  14
ENDBRANCH  10  13
TORSDOF 5
ENDMDL
MODEL 3
REMARK VINA RESULT:      -5.4      2.726      3.457
REMARK  5 active torsions:
REMARK  status: ('A' for Active; 'I' for Inactive)
REMARK    1  A    between atoms: N_10  and  C_12 
REMARK    2  A    between atoms: C_12  and  C_13 
REMARK    3  A    between atoms: C_13  and  P_14 
REMARK    4  A    between atoms: P_14  and  O_16 
REMARK    5  A    between atoms: P_14  and  O_17 
ROOT
HETATM    1  C   UNK N   1      21.816  20.277   2.768  0.00  0.00     0.039 C 
HETATM    2  C   UNK N   1      20.752  20.613   1.730  0.00  0.00     0.121 C 
HETATM    3  N   UNK N   1      20.446  19.495   0.864  0.00  0.00    -0.385 N 
HETATM    4  C   UNK N   1      20.305  18.167   1.346  0.00  0.00     0.114 A 
HETATM    5  C   UNK N   1      20.573  17.596   2.532  0.00  0.00     0.116 A 
HETATM    6  C   UNK N   1      20.244  16.259   2.019  0.00  0.00     0.252 A 
HETATM    7  O   UNK N   1      20.251  15.121   2.456  0.00  0.00    -0.281 OA
HETATM    8  C   UNK N   1      19.958  16.881   0.737  0.00  0.00     0.252 A 
HETATM    9  O   UNK N   1      19.652  16.493  -0.378  0.00  0.00    -0.281 OA
HETATM   10  N   UNK N   1      21.092  18.139   3.742  0.00  0.00    -0.375 N 
HETATM   11  C   UNK N   1      21.152  19.569   3.942  0.00  0.00     0.125 C 
HETATM   12  H   UNK N   1      20.331  19.661  -0.099  0.00  0.00     0.159 HD
ENDROOT
BRANCH  10  13
HETATM   13  C   UNK N   1      21.694  17.281   4.730  0.00  0.00     0.135 C 
BRANCH  13  14
HETATM   14  C   UNK N   1      21.712  17.916   6.113  0.00  0.00     0.144 C 
BRANCH  14  15
HETATM   15  P   UNK N   1      20.425  17.077   7.173  0.00  0.00     0.237 P 
HETATM   16  O   UNK N   1      20.713  16.980   8.694  0.00  0.00    -0.653 OA
BRANCH  15  17
HETATM   17  O   UNK N   1      21.880  16.131   7.103  0.00  0.00    -0.329 OA
HETATM   18  H   UNK N   1      22.125  15.280   7.499  0.00  0.00     0.220 HD
ENDBRANCH  15  17
BRANCH  15  19
HETATM   19  O   UNK N   1      20.769  18.738   7.538  0.00  0.00    -0.329 OA
HETATM   20  H   UNK N   1      21.602  19.220   7.410  0.00  0.00     0.220 HD
ENDBRANCH  15  19
ENDBRANCH  14  15
ENDBRANCH  13  14
ENDBRANCH  10  13
TORSDOF 5
ENDMDL
MODEL 4
REMARK VINA RESULT:      -5.4     16.279     17.952
REMARK  5 active torsions:
REMARK  status: ('A' for Active; 'I' for Inactive)
REMARK    1  A    between atoms: N_10  and  C_12 
REMARK    2  A    between atoms: C_12  and  C_13 
REMARK    3  A    between atoms: C_13  and  P_14 
REMARK    4  A    between atoms: P_14  and  O_16 
REMARK    5  A    between atoms: P_14  and  O_17 
ROOT
HETATM    1  C   UNK N   1      35.114  10.561  11.149  0.00  0.00     0.039 C 
HETATM    2  C   UNK N   1      33.996  10.337  12.160  0.00  0.00     0.121 C 
HETATM    3  N   UNK N   1      34.296  10.904  13.457  0.00  0.00    -0.385 N 
HETATM    4  C   UNK N   1      34.899  12.180  13.616  0.00  0.00     0.114 A 
HETATM    5  C   UNK N   1      35.471  13.030  12.749  0.00  0.00     0.116 A 
HETATM    6  C   UNK N   1      35.883  13.935  13.831  0.00  0.00     0.252 A 
HETATM    7  O   UNK N   1      36.507  14.979  13.918  0.00  0.00    -0.281 OA
HETATM    8  C   UNK N   1      35.262  13.011  14.765  0.00  0.00     0.252 A 
HETATM    9  O   UNK N   1      35.167  12.921  15.978  0.00  0.00    -0.281 OA
HETATM   10  N   UNK N   1      35.669  12.947  11.341  0.00  0.00    -0.375 N 
HETATM   11  C   UNK N   1      34.970  11.956  10.555  0.00  0.00     0.125 C 
HETATM   12  H   UNK N   1      34.076  10.383  14.262  0.00  0.00     0.159 HD
ENDROOT
BRANCH  10  13
HETATM   13  C   UNK N   1      36.670  13.755  10.693  0.00  0.00     0.135 C 
BRANCH  13  14
HETATM   14  C   UNK N   1      36.069  14.726   9.687  0.00  0.00     0.144 C 
BRANCH  14  15
HETATM   15  P   UNK N   1      35.255  16.124  10.618  0.00  0.00     0.237 P 
HETATM   16  O   UNK N   1      35.644  17.569  10.210  0.00  0.00    -0.653 OA
BRANCH  15  17
HETATM   17  O   UNK N   1      36.953  16.048  10.978  0.00  0.00    -0.329 OA
HETATM   18  H   UNK N   1      37.739  15.998  10.411  0.00  0.00     0.220 HD
ENDBRANCH  15  17
BRANCH  15  19
HETATM   19  O   UNK N   1      34.968  16.059   8.908  0.00  0.00    -0.329 OA
HETATM   20  H   UNK N   1      35.520  15.650   8.223  0.00  0.00     0.220 HD
ENDBRANCH  15  19
ENDBRANCH  14  15
ENDBRANCH  13  14
ENDBRANCH  10  13
TORSDOF 5
ENDMDL
MODEL 5
REMARK VINA RESULT:      -5.2     12.327     13.630
REMARK  5 active torsions:
REMARK  status: ('A' for Active; 'I' for Inactive)
REMARK    1  A    between atoms: N_10  and  C_12 
REMARK    2  A    between atoms: C_12  and  C_13 
REMARK    3  A    between atoms: C_13  and  P_14 
REMARK    4  A    between atoms: P_14  and  O_16 
REMARK    5  A    between atoms: P_14  and  O_17 
ROOT
HETATM    1  C   UNK N   1      34.228  14.122   9.749  0.00  0.00     0.039 C 
HETATM    2  C   UNK N   1      34.086  15.225  10.791  0.00  0.00     0.121 C 
HETATM    3  N   UNK N   1      34.596  16.497  10.326  0.00  0.00    -0.385 N 
HETATM    4  C   UNK N   1      34.363  16.984   9.013  0.00  0.00     0.114 A 
HETATM    5  C   UNK N   1      33.856  16.414   7.908  0.00  0.00     0.116 A 
HETATM    6  C   UNK N   1      34.146  17.606   7.099  0.00  0.00     0.252 A 
HETATM    7  O   UNK N   1      34.025  17.929   5.930  0.00  0.00    -0.281 OA
HETATM    8  C   UNK N   1      34.696  18.217   8.298  0.00  0.00     0.252 A 
HETATM    9  O   UNK N   1      35.266  19.262   8.567  0.00  0.00    -0.281 OA
HETATM   10  N   UNK N   1      33.358  15.101   7.670  0.00  0.00    -0.375 N 
HETATM   11  C   UNK N   1      33.064  14.213   8.772  0.00  0.00     0.125 C 
HETATM   12  H   UNK N   1      35.126  17.048  10.946  0.00  0.00     0.159 HD
ENDROOT
BRANCH  10  13
HETATM   13  C   UNK N   1      33.268  14.583   6.329  0.00  0.00     0.135 C 
BRANCH  13  14
HETATM   14  C   UNK N   1      31.864  14.705   5.754  0.00  0.00     0.144 C 
BRANCH  14  15
HETATM   15  P   UNK N   1      31.995  14.997   3.915  0.00  0.00     0.237 P 
HETATM   16  O   UNK N   1      33.225  15.794   3.409  0.00  0.00    -0.653 OA
BRANCH  15  17
HETATM   17  O   UNK N   1      31.704  16.488   4.758  0.00  0.00    -0.329 OA
HETATM   18  H   UNK N   1      31.732  17.415   4.473  0.00  0.00     0.220 HD
ENDBRANCH  15  17
BRANCH  15  19
HETATM   19  O   UNK N   1      33.282  14.096   4.652  0.00  0.00    -0.329 OA
HETATM   20  H   UNK N   1      33.800  13.369   4.271  0.00  0.00     0.220 HD
ENDBRANCH  15  19
ENDBRANCH  14  15
ENDBRANCH  13  14
ENDBRANCH  10  13
TORSDOF 5
ENDMDL
MODEL 6
REMARK VINA RESULT:      -5.2      2.664      5.463
REMARK  5 active torsions:
REMARK  status: ('A' for Active; 'I' for Inactive)
REMARK    1  A    between atoms: N_10  and  C_12 
REMARK    2  A    between atoms: C_12  and  C_13 
REMARK    3  A    between atoms: C_13  and  P_14 
REMARK    4  A    between atoms: P_14  and  O_16 
REMARK    5  A    between atoms: P_14  and  O_17 
ROOT
HETATM    1  C   UNK N   1      22.768  15.497   3.511  0.00  0.00     0.039 C 
HETATM    2  C   UNK N   1      21.924  14.402   4.152  0.00  0.00     0.121 C 
HETATM    3  N   UNK N   1      21.681  14.637   5.559  0.00  0.00    -0.385 N 
HETATM    4  C   UNK N   1      21.358  15.919   6.078  0.00  0.00     0.114 A 
HETATM    5  C   UNK N   1      21.377  17.149   5.541  0.00  0.00     0.116 A 
HETATM    6  C   UNK N   1      21.036  17.771   6.828  0.00  0.00     0.252 A 
HETATM    7  O   UNK N   1      20.880  18.906   7.245  0.00  0.00    -0.281 OA
HETATM    8  C   UNK N   1      21.019  16.437   7.405  0.00  0.00     0.252 A 
HETATM    9  O   UNK N   1      20.875  15.965   8.521  0.00  0.00    -0.281 OA
HETATM   10  N   UNK N   1      21.727  17.601   4.236  0.00  0.00    -0.375 N 
HETATM   11  C   UNK N   1      21.864  16.665   3.144  0.00  0.00     0.125 C 
HETATM   12  H   UNK N   1      21.744  13.878   6.182  0.00  0.00     0.159 HD
ENDROOT
BRANCH  10  13
HETATM   13  C   UNK N   1      22.085  18.978   4.010  0.00  0.00     0.135 C 
BRANCH  13  14
HETATM   14  C   UNK N   1      20.918  19.801   3.485  0.00  0.00     0.144 C 
BRANCH  14  15
HETATM   15  P   UNK N   1      21.229  20.200   1.688  0.00  0.00     0.237 P 
HETATM   16  O   UNK N   1      20.519  21.451   1.106  0.00  0.00    -0.653 OA
BRANCH  15  17
HETATM   17  O   UNK N   1      19.582  19.705   1.935  0.00  0.00    -0.329 OA
HETATM   18  H   UNK N   1      19.184  19.009   2.482  0.00  0.00     0.220 HD
ENDBRANCH  15  17
BRANCH  15  19
HETATM   19  O   UNK N   1      21.706  21.402   2.844  0.00  0.00    -0.329 OA
HETATM   20  H   UNK N   1      21.424  22.329   2.897  0.00  0.00     0.220 HD
ENDBRANCH  15  19
ENDBRANCH  14  15
ENDBRANCH  13  14
ENDBRANCH  10  13
TORSDOF 5
ENDMDL
MODEL 7
REMARK VINA RESULT:      -5.2     12.382     13.877
REMARK  5 active torsions:
REMARK  status: ('A' for Active; 'I' for Inactive)
REMARK    1  A    between atoms: N_10  and  C_12 
REMARK    2  A    between atoms: C_12  and  C_13 
REMARK    3  A    between atoms: C_13  and  P_14 
REMARK    4  A    between atoms: P_14  and  O_16 
REMARK    5  A    between atoms: P_14  and  O_17 
ROOT
HETATM    1  C   UNK N   1      27.776  27.803  -7.770  0.00  0.00     0.039 C 
HETATM    2  C   UNK N   1      28.102  28.858  -6.719  0.00  0.00     0.121 C 
HETATM    3  N   UNK N   1      27.248  28.766  -5.555  0.00  0.00    -0.385 N 
HETATM    4  C   UNK N   1      26.892  27.527  -4.960  0.00  0.00     0.114 A 
HETATM    5  C   UNK N   1      27.045  26.253  -5.352  0.00  0.00     0.116 A 
HETATM    6  C   UNK N   1      26.277  25.754  -4.203  0.00  0.00     0.252 A 
HETATM    7  O   UNK N   1      25.901  24.667  -3.798  0.00  0.00    -0.281 OA
HETATM    8  C   UNK N   1      26.113  27.136  -3.783  0.00  0.00     0.252 A 
HETATM    9  O   UNK N   1      25.514  27.718  -2.894  0.00  0.00    -0.281 OA
HETATM   10  N   UNK N   1      27.635  25.692  -6.521  0.00  0.00    -0.375 N 
HETATM   11  C   UNK N   1      28.462  26.499  -7.389  0.00  0.00     0.125 C 
HETATM   12  H   UNK N   1      26.898  29.597  -5.159  0.00  0.00     0.159 HD
ENDROOT
BRANCH  10  13
HETATM   13  C   UNK N   1      27.310  24.351  -6.935  0.00  0.00     0.135 C 
BRANCH  13  14
HETATM   14  C   UNK N   1      26.050  24.298  -7.786  0.00  0.00     0.144 C 
BRANCH  14  15
HETATM   15  P   UNK N   1      25.544  22.513  -7.995  0.00  0.00     0.237 P 
HETATM   16  O   UNK N   1      24.025  22.198  -7.967  0.00  0.00    -0.653 OA
BRANCH  15  17
HETATM   17  O   UNK N   1      25.191  23.071  -6.388  0.00  0.00    -0.329 OA
HETATM   18  H   UNK N   1      25.050  23.957  -6.020  0.00  0.00     0.220 HD
ENDBRANCH  15  17
BRANCH  15  19
HETATM   19  O   UNK N   1      24.966  23.630  -9.191  0.00  0.00    -0.329 OA
HETATM   20  H   UNK N   1      25.482  24.244  -9.738  0.00  0.00     0.220 HD
ENDBRANCH  15  19
ENDBRANCH  14  15
ENDBRANCH  13  14
ENDBRANCH  10  13
TORSDOF 5
ENDMDL
MODEL 8
REMARK VINA RESULT:      -5.1     14.439     15.821
REMARK  5 active torsions:
REMARK  status: ('A' for Active; 'I' for Inactive)
REMARK    1  A    between atoms: N_10  and  C_12 
REMARK    2  A    between atoms: C_12  and  C_13 
REMARK    3  A    between atoms: C_13  and  P_14 
REMARK    4  A    between atoms: P_14  and  O_16 
REMARK    5  A    between atoms: P_14  and  O_17 
ROOT
HETATM    1  C   UNK N   1      33.185  13.041   8.472  0.00  0.00     0.039 C 
HETATM    2  C   UNK N   1      33.615  13.360   7.045  0.00  0.00     0.121 C 
HETATM    3  N   UNK N   1      33.701  14.782   6.795  0.00  0.00    -0.385 N 
HETATM    4  C   UNK N   1      34.264  15.693   7.727  0.00  0.00     0.114 A 
HETATM    5  C   UNK N   1      34.642  15.565   9.009  0.00  0.00     0.116 A 
HETATM    6  C   UNK N   1      34.939  17.000   9.117  0.00  0.00     0.252 A 
HETATM    7  O   UNK N   1      35.320  17.759   9.993  0.00  0.00    -0.281 OA
HETATM    8  C   UNK N   1      34.527  17.133   7.730  0.00  0.00     0.252 A 
HETATM    9  O   UNK N   1      34.379  18.054   6.943  0.00  0.00    -0.281 OA
HETATM   10  N   UNK N   1      34.616  14.447   9.891  0.00  0.00    -0.375 N 
HETATM   11  C   UNK N   1      34.404  13.111   9.382  0.00  0.00     0.125 C 
HETATM   12  H   UNK N   1      33.354  15.134   5.944  0.00  0.00     0.159 HD
ENDROOT
BRANCH  10  13
HETATM   13  C   UNK N   1      34.662  14.639  11.318  0.00  0.00     0.135 C 
BRANCH  13  14
HETATM   14  C   UNK N   1      35.399  13.513  12.029  0.00  0.00     0.144 C 
BRANCH  14  15
HETATM   15  P   UNK N   1      36.164  14.192  13.591  0.00  0.00     0.237 P 
HETATM   16  O   UNK N   1      36.887  13.183  14.522  0.00  0.00    -0.653 OA
BRANCH  15  17
HETATM   17  O   UNK N   1      34.814  13.163  13.961  0.00  0.00    -0.329 OA
HETATM   18  H   UNK N   1      33.855  13.312  13.946  0.00  0.00     0.220 HD
ENDBRANCH  15  17
BRANCH  15  19
HETATM   19  O   UNK N   1      37.243  13.435  12.462  0.00  0.00    -0.329 OA
HETATM   20  H   UNK N   1      37.162  12.560  12.049  0.00  0.00     0.220 HD
ENDBRANCH  15  19
ENDBRANCH  14  15
ENDBRANCH  13  14
ENDBRANCH  10  13
TORSDOF 5
ENDMDL
MODEL 9
REMARK VINA RESULT:      -5.1      9.554     10.697
REMARK  5 active torsions:
REMARK  status: ('A' for Active; 'I' for Inactive)
REMARK    1  A    between atoms: N_10  and  C_12 
REMARK    2  A    between atoms: C_12  and  C_13 
REMARK    3  A    between atoms: C_13  and  P_14 
REMARK    4  A    between atoms: P_14  and  O_16 
REMARK    5  A    between atoms: P_14  and  O_17 
ROOT
HETATM    1  C   UNK N   1      30.284  18.355   9.113  0.00  0.00     0.039 C 
HETATM    2  C   UNK N   1      28.811  18.419   9.498  0.00  0.00     0.121 C 
HETATM    3  N   UNK N   1      27.967  18.841   8.400  0.00  0.00    -0.385 N 
HETATM    4  C   UNK N   1      28.142  18.369   7.072  0.00  0.00     0.114 A 
HETATM    5  C   UNK N   1      29.116  17.659   6.480  0.00  0.00     0.116 A 
HETATM    6  C   UNK N   1      28.485  17.800   5.161  0.00  0.00     0.252 A 
HETATM    7  O   UNK N   1      28.745  17.463   4.018  0.00  0.00    -0.281 OA
HETATM    8  C   UNK N   1      27.434  18.570   5.807  0.00  0.00     0.252 A 
HETATM    9  O   UNK N   1      26.448  19.187   5.441  0.00  0.00    -0.281 OA
HETATM   10  N   UNK N   1      30.329  17.116   6.991  0.00  0.00    -0.375 N 
HETATM   11  C   UNK N   1      30.555  17.029   8.416  0.00  0.00     0.125 C 
HETATM   12  H   UNK N   1      27.243  19.482   8.581  0.00  0.00     0.159 HD
ENDROOT
BRANCH  10  13
HETATM   13  C   UNK N   1      31.410  16.772   6.103  0.00  0.00     0.135 C 
BRANCH  13  14
HETATM   14  C   UNK N   1      32.704  17.487   6.463  0.00  0.00     0.144 C 
BRANCH  14  15
HETATM   15  P   UNK N   1      34.003  16.207   6.861  0.00  0.00     0.237 P 
HETATM   16  O   UNK N   1      35.173  16.047   5.854  0.00  0.00    -0.653 OA
BRANCH  15  17
HETATM   17  O   UNK N   1      33.083  15.740   5.463  0.00  0.00    -0.329 OA
HETATM   18  H   UNK N   1      32.397  15.067   5.328  0.00  0.00     0.220 HD
ENDBRANCH  15  17
BRANCH  15  19
HETATM   19  O   UNK N   1      34.544  17.851   6.738  0.00  0.00    -0.329 OA
HETATM   20  H   UNK N   1      34.328  18.505   6.054  0.00  0.00     0.220 HD
ENDBRANCH  15  19
ENDBRANCH  14  15
ENDBRANCH  13  14
ENDBRANCH  10  13
TORSDOF 5
ENDMDL
