REMARK  3 active torsions:
REMARK  status: ('A' for Active; 'I' for Inactive)
REMARK    1  A    between atoms: C_2  and  C_3 
REMARK    2  A    between atoms: C_3  and  C_4 
REMARK    3  A    between atoms: C_4  and  C_5 
ROOT
HETATM    1  C   UNK N   1       0.235   0.391   0.827  0.00  0.00     0.166 A 
HETATM    2  C   UNK N   1       1.070  -0.765   0.319  0.00  0.00    -0.013 A 
HETATM    3  C   UNK N   1       0.258  -1.756  -0.144  0.00  0.00     0.048 A 
HETATM    4  C   UNK N   1       0.754  -2.955  -0.652  0.00  0.00     0.018 A 
HETATM    5  C   UNK N   1       2.149  -3.125  -0.682  0.00  0.00     0.001 A 
HETATM    6  C   UNK N   1       2.999  -2.104  -0.207  0.00  0.00     0.001 A 
HETATM    7  C   UNK N   1       2.458  -0.908   0.303  0.00  0.00     0.011 A 
HETATM    8  O   UNK N   1      -1.070  -0.055   0.574  0.00  0.00    -0.307 OA
HETATM    9  C   UNK N   1      -1.077  -1.288   0.026  0.00  0.00     0.294 A 
HETATM   10  O   UNK N   1      -2.091  -1.897  -0.264  0.00  0.00    -0.259 OA
ENDROOT
BRANCH   1  11
HETATM   11  C   UNK N   1       0.577   1.693   0.084  0.00  0.00     0.037 C 
BRANCH  11  12
HETATM   12  C   UNK N   1      -0.599   2.360  -0.626  0.00  0.00     0.002 C 
BRANCH  12  13
HETATM   13  C   UNK N   1      -1.660   2.826   0.355  0.00  0.00    -0.004 C 
HETATM   14  C   UNK N   1      -2.877   3.290  -0.418  0.00  0.00     0.005 C 
ENDBRANCH  12  13
ENDBRANCH  11  12
ENDBRANCH   1  11
TORSDOF 3
