REMARK  4 active torsions:
REMARK  status: ('A' for Active; 'I' for Inactive)
REMARK    1  A    between atoms: C_10  and  N_3 
REMARK    2  A    between atoms: C_8  and  N_9 
REMARK    3  A    between atoms: C_13  and  C_15 
REMARK    4  A    between atoms: C_15  and  O_16 
ROOT
HETATM    1  C   UNK N   1       0.134   5.341   0.168  0.00  0.00     0.065 A 
HETATM    2  C   UNK N   1      -0.069   3.976  -0.016  0.00  0.00     0.101 A 
HETATM    3  N   UNK N   1      -1.323   3.468  -0.219  0.00  0.00    -0.293 N 
HETATM    4  C   UNK N   1      -2.401   4.338  -0.244  0.00  0.00     0.329 A 
HETATM    5  O   UNK N   1      -3.532   3.923  -0.435  0.00  0.00    -0.246 OA
HETATM    6  N   UNK N   1      -2.207   5.682  -0.053  0.00  0.00    -0.295 N 
ATOM      7  HN  UNK N   1      -3.009   6.311  -0.062  1.00  0.00     0.172 HD
HETATM    8  C   UNK N   1      -0.965   6.189   0.148  0.00  0.00     0.103 A 
ENDROOT
BRANCH   3   9
HETATM    9  C   UNK N   1      -1.505   2.017  -0.467  0.00  0.00     0.182 C 
HETATM   10  C   UNK N   1      -0.254   1.214  -0.172  0.00  0.00     0.206 C 
HETATM   11  O   UNK N   1      -0.582  -0.143  -0.187  0.00  0.00    -0.370 OA
HETATM   12  C   UNK N   1      -1.756  -0.294   0.574  0.00  0.00     0.208 C 
HETATM   13  S   UNK N   1      -2.720   1.258   0.624  0.00  0.00    -0.107 SA
BRANCH  12  14
HETATM   14  C   UNK N   1      -2.604  -1.381  -0.063  0.00  0.00     0.207 C 
BRANCH  14  15
HETATM   15  O   UNK N   1      -1.935  -2.604   0.011  0.00  0.00    -0.398 OA
HETATM   16  H   UNK N   1      -2.439  -3.432   0.062  0.00  0.00     0.209 HD
ENDBRANCH  14  15
ENDBRANCH  12  14
ENDBRANCH   3   9
BRANCH   8  17
HETATM   17  N   UNK N   1      -0.790   7.574   0.331  0.00  0.00    -0.385 N 
HETATM   18  H   UNK N   1       0.110   7.952   0.459  0.00  0.00     0.157 HD
HETATM   19  H   UNK N   1      -1.574   8.169   0.331  0.00  0.00     0.157 HD
ENDBRANCH   8  17
TORSDOF 4
