MODEL 1
REMARK VINA RESULT:      -7.9      0.000      0.000
REMARK  8 active torsions:
REMARK  status: ('A' for Active; 'I' for Inactive)
REMARK    1  A    between atoms: C_9  and  O_12 
REMARK    2  A    between atoms: O_12  and  C_13 
REMARK    3  A    between atoms: C_13  and  C_14 
REMARK    4  A    between atoms: C_14  and  C_15 
REMARK    5  A    between atoms: C_15  and  N_16 
REMARK       I    between atoms: N_16  and  C_17 
REMARK       I    between atoms: C_17  and  N_19 
REMARK    6  A    between atoms: C_20  and  N_19 
REMARK    7  A    between atoms: N_19  and  C_27 
REMARK    8  A    between atoms: C_25  and  O_26 
ROOT
HETATM    1  C   UNK N   1      37.559  14.446   9.876  0.00  0.00     0.126 C 
ENDROOT
BRANCH   1   2
HETATM    2  C   UNK N   1      37.814  13.133  10.631  0.00  0.00     0.046 C 
BRANCH   2   3
HETATM    3  C   UNK N   1      36.706  12.750  11.627  0.00  0.00     0.177 C 
BRANCH   3   4
HETATM    4  O   UNK N   1      37.258  12.325  12.820  0.00  0.00    -0.351 OA
BRANCH   4   5
HETATM    5  C   UNK N   1      36.777  12.688  14.033  0.00  0.00     0.069 A 
HETATM    6  C   UNK N   1      36.470  11.728  15.013  0.00  0.00     0.050 A 
HETATM    7  C   UNK N   1      36.027  12.131  16.271  0.00  0.00    -0.007 A 
HETATM    8  C   UNK N   1      35.903  13.506  16.570  0.00  0.00     0.045 A 
HETATM    9  C   UNK N   1      35.716  11.186  17.247  0.00  0.00     0.019 A 
HETATM   10  N   UNK N   1      35.497  13.896  17.807  0.00  0.00    -0.323 N 
HETATM   11  C   UNK N   1      36.198  14.458  15.593  0.00  0.00     0.033 A 
HETATM   12  C   UNK N   1      35.196  12.976  18.781  0.00  0.00     0.245 A 
HETATM   13  H   UNK N   1      35.417  14.857  18.009  0.00  0.00     0.169 HD
HETATM   14  C   UNK N   1      35.295  11.609  18.509  0.00  0.00     0.075 A 
HETATM   15  O   UNK N   1      34.841  13.351  19.882  0.00  0.00    -0.268 OA
HETATM   16  C   UNK N   1      36.625  14.050  14.325  0.00  0.00     0.039 A 
ENDBRANCH   4   5
ENDBRANCH   3   4
ENDBRANCH   2   3
ENDBRANCH   1   2
BRANCH   1  17
HETATM   17  N   UNK N   1      36.852  15.386  10.715  0.00  0.00    -0.343 N 
HETATM   18  C   UNK N   1      35.687  16.065  10.477  0.00  0.00     0.319 C 
HETATM   19  O   UNK N   1      35.280  16.776  11.378  0.00  0.00    -0.247 OA
HETATM   20  N   UNK N   1      34.964  15.991   9.290  0.00  0.00    -0.322 N 
HETATM   21  H   UNK N   1      37.272  15.565  11.588  0.00  0.00     0.164 HD
BRANCH  20  22
HETATM   22  C   UNK N   1      33.806  16.916   9.083  0.00  0.00     0.118 C 
HETATM   23  C   UNK N   1      32.514  16.188   8.612  0.00  0.00     0.028 C 
HETATM   24  C   UNK N   1      31.622  16.999   7.667  0.00  0.00     0.002 C 
HETATM   25  C   UNK N   1      32.389  17.388   6.394  0.00  0.00     0.003 C 
HETATM   26  C   UNK N   1      33.842  17.810   6.654  0.00  0.00     0.034 C 
HETATM   27  C   UNK N   1      34.037  18.133   8.126  0.00  0.00     0.141 C 
BRANCH  27  28
HETATM   28  O   UNK N   1      35.163  18.921   8.343  0.00  0.00    -0.394 OA
HETATM   29  H   UNK N   1      36.015  18.669   7.955  0.00  0.00     0.210 HD
ENDBRANCH  27  28
ENDBRANCH  20  22
BRANCH  20  30
HETATM   30  C   UNK N   1      35.306  14.997   8.260  0.00  0.00     0.089 A 
HETATM   31  C   UNK N   1      34.723  13.624   8.643  0.00  0.00     0.027 A 
HETATM   32  C   UNK N   1      34.073  14.401   7.559  0.00  0.00     0.027 A 
ENDBRANCH  20  30
ENDBRANCH   1  17
TORSDOF 8
ENDMDL
MODEL 2
REMARK VINA RESULT:      -7.6      9.128     12.013
REMARK  8 active torsions:
REMARK  status: ('A' for Active; 'I' for Inactive)
REMARK    1  A    between atoms: C_9  and  O_12 
REMARK    2  A    between atoms: O_12  and  C_13 
REMARK    3  A    between atoms: C_13  and  C_14 
REMARK    4  A    between atoms: C_14  and  C_15 
REMARK    5  A    between atoms: C_15  and  N_16 
REMARK       I    between atoms: N_16  and  C_17 
REMARK       I    between atoms: C_17  and  N_19 
REMARK    6  A    between atoms: C_20  and  N_19 
REMARK    7  A    between atoms: N_19  and  C_27 
REMARK    8  A    between atoms: C_25  and  O_26 
ROOT
HETATM    1  C   UNK N   1      24.379  16.634   4.499  0.00  0.00     0.126 C 
ENDROOT
BRANCH   1   2
HETATM    2  C   UNK N   1      23.116  15.762   4.544  0.00  0.00     0.046 C 
BRANCH   2   3
HETATM    3  C   UNK N   1      22.709  15.311   5.958  0.00  0.00     0.177 C 
BRANCH   3   4
HETATM    4  O   UNK N   1      23.444  14.204   6.339  0.00  0.00    -0.351 OA
BRANCH   4   5
HETATM    5  C   UNK N   1      23.548  13.789   7.624  0.00  0.00     0.069 A 
HETATM    6  C   UNK N   1      22.409  13.453   8.376  0.00  0.00     0.050 A 
HETATM    7  C   UNK N   1      22.548  12.976   9.678  0.00  0.00    -0.007 A 
HETATM    8  C   UNK N   1      23.834  12.812  10.237  0.00  0.00     0.045 A 
HETATM    9  C   UNK N   1      21.424  12.646  10.434  0.00  0.00     0.019 A 
HETATM   10  N   UNK N   1      23.966  12.322  11.498  0.00  0.00    -0.323 N 
HETATM   11  C   UNK N   1      24.964  13.155   9.493  0.00  0.00     0.033 A 
HETATM   12  C   UNK N   1      22.868  11.983  12.250  0.00  0.00     0.245 A 
HETATM   13  H   UNK N   1      24.867  12.205  11.880  0.00  0.00     0.169 HD
HETATM   14  C   UNK N   1      21.582  12.149  11.728  0.00  0.00     0.075 A 
HETATM   15  O   UNK N   1      23.014  11.540  13.373  0.00  0.00    -0.268 OA
HETATM   16  C   UNK N   1      24.820  13.650   8.193  0.00  0.00     0.039 A 
ENDBRANCH   4   5
ENDBRANCH   3   4
ENDBRANCH   2   3
ENDBRANCH   1   2
BRANCH   1  17
HETATM   17  N   UNK N   1      25.416  16.071   5.332  0.00  0.00    -0.343 N 
HETATM   18  C   UNK N   1      26.499  16.680   5.909  0.00  0.00     0.319 C 
HETATM   19  O   UNK N   1      27.208  15.976   6.607  0.00  0.00    -0.247 OA
HETATM   20  N   UNK N   1      26.828  18.021   5.743  0.00  0.00    -0.322 N 
HETATM   21  H   UNK N   1      25.331  15.107   5.511  0.00  0.00     0.164 HD
BRANCH  20  22
HETATM   22  C   UNK N   1      28.131  18.525   6.276  0.00  0.00     0.118 C 
HETATM   23  C   UNK N   1      29.298  17.508   6.110  0.00  0.00     0.028 C 
HETATM   24  C   UNK N   1      30.347  17.540   7.225  0.00  0.00     0.002 C 
HETATM   25  C   UNK N   1      29.703  17.242   8.588  0.00  0.00     0.003 C 
HETATM   26  C   UNK N   1      28.334  17.909   8.781  0.00  0.00     0.034 C 
HETATM   27  C   UNK N   1      28.144  19.019   7.762  0.00  0.00     0.141 C 
BRANCH  27  28
HETATM   28  O   UNK N   1      27.160  19.923   8.150  0.00  0.00    -0.394 OA
HETATM   29  H   UNK N   1      26.832  19.922   9.063  0.00  0.00     0.210 HD
ENDBRANCH  27  28
ENDBRANCH  20  22
BRANCH  20  30
HETATM   30  C   UNK N   1      25.896  18.948   5.079  0.00  0.00     0.089 A 
HETATM   31  C   UNK N   1      26.597  20.293   4.812  0.00  0.00     0.027 A 
HETATM   32  C   UNK N   1      26.359  19.371   3.674  0.00  0.00     0.027 A 
ENDBRANCH  20  30
ENDBRANCH   1  17
TORSDOF 8
ENDMDL
MODEL 3
REMARK VINA RESULT:      -7.6      7.931     11.126
REMARK  8 active torsions:
REMARK  status: ('A' for Active; 'I' for Inactive)
REMARK    1  A    between atoms: C_9  and  O_12 
REMARK    2  A    between atoms: O_12  and  C_13 
REMARK    3  A    between atoms: C_13  and  C_14 
REMARK    4  A    between atoms: C_14  and  C_15 
REMARK    5  A    between atoms: C_15  and  N_16 
REMARK       I    between atoms: N_16  and  C_17 
REMARK       I    between atoms: C_17  and  N_19 
REMARK    6  A    between atoms: C_20  and  N_19 
REMARK    7  A    between atoms: N_19  and  C_27 
REMARK    8  A    between atoms: C_25  and  O_26 
ROOT
HETATM    1  C   UNK N   1      25.694  16.478   3.883  0.00  0.00     0.126 C 
ENDROOT
BRANCH   1   2
HETATM    2  C   UNK N   1      26.086  15.437   2.824  0.00  0.00     0.046 C 
BRANCH   2   3
HETATM    3  C   UNK N   1      27.588  15.406   2.493  0.00  0.00     0.177 C 
BRANCH   3   4
HETATM    4  O   UNK N   1      28.251  14.549   3.351  0.00  0.00    -0.351 OA
BRANCH   4   5
HETATM    5  C   UNK N   1      29.435  14.851   3.934  0.00  0.00     0.069 A 
HETATM    6  C   UNK N   1      30.136  16.023   3.596  0.00  0.00     0.050 A 
HETATM    7  C   UNK N   1      31.326  16.338   4.250  0.00  0.00    -0.007 A 
HETATM    8  C   UNK N   1      31.820  15.490   5.265  0.00  0.00     0.045 A 
HETATM    9  C   UNK N   1      32.030  17.494   3.918  0.00  0.00     0.019 A 
HETATM   10  N   UNK N   1      32.967  15.814   5.919  0.00  0.00    -0.323 N 
HETATM   11  C   UNK N   1      31.129  14.322   5.592  0.00  0.00     0.033 A 
HETATM   12  C   UNK N   1      33.665  16.955   5.609  0.00  0.00     0.245 A 
HETATM   13  H   UNK N   1      33.303  15.220   6.629  0.00  0.00     0.169 HD
HETATM   14  C   UNK N   1      33.208  17.805   4.598  0.00  0.00     0.075 A 
HETATM   15  O   UNK N   1      34.685  17.226   6.214  0.00  0.00    -0.268 OA
HETATM   16  C   UNK N   1      29.945  13.999   4.922  0.00  0.00     0.039 A 
ENDBRANCH   4   5
ENDBRANCH   3   4
ENDBRANCH   2   3
ENDBRANCH   1   2
BRANCH   1  17
HETATM   17  N   UNK N   1      26.171  16.082   5.187  0.00  0.00    -0.343 N 
HETATM   18  C   UNK N   1      27.005  16.743   6.051  0.00  0.00     0.319 C 
HETATM   19  O   UNK N   1      27.221  16.198   7.119  0.00  0.00    -0.247 OA
HETATM   20  N   UNK N   1      27.604  17.969   5.779  0.00  0.00    -0.322 N 
HETATM   21  H   UNK N   1      25.850  15.205   5.501  0.00  0.00     0.164 HD
BRANCH  20  22
HETATM   22  C   UNK N   1      28.634  18.502   6.725  0.00  0.00     0.118 C 
HETATM   23  C   UNK N   1      29.804  17.510   6.983  0.00  0.00     0.028 C 
HETATM   24  C   UNK N   1      30.403  17.569   8.392  0.00  0.00     0.002 C 
HETATM   25  C   UNK N   1      29.333  17.262   9.451  0.00  0.00     0.003 C 
HETATM   26  C   UNK N   1      27.970  17.900   9.152  0.00  0.00     0.034 C 
HETATM   27  C   UNK N   1      28.123  19.002   8.117  0.00  0.00     0.141 C 
BRANCH  27  28
HETATM   28  O   UNK N   1      27.049  19.886   8.132  0.00  0.00    -0.394 OA
HETATM   29  H   UNK N   1      26.584  20.073   8.963  0.00  0.00     0.210 HD
ENDBRANCH  27  28
ENDBRANCH  20  22
BRANCH  20  30
HETATM   30  C   UNK N   1      27.215  18.752   4.596  0.00  0.00     0.089 A 
HETATM   31  C   UNK N   1      26.391  19.980   5.029  0.00  0.00     0.027 A 
HETATM   32  C   UNK N   1      27.795  20.177   4.594  0.00  0.00     0.027 A 
ENDBRANCH  20  30
ENDBRANCH   1  17
TORSDOF 8
ENDMDL
MODEL 4
REMARK VINA RESULT:      -7.5      2.450      9.403
REMARK  8 active torsions:
REMARK  status: ('A' for Active; 'I' for Inactive)
REMARK    1  A    between atoms: C_9  and  O_12 
REMARK    2  A    between atoms: O_12  and  C_13 
REMARK    3  A    between atoms: C_13  and  C_14 
REMARK    4  A    between atoms: C_14  and  C_15 
REMARK    5  A    between atoms: C_15  and  N_16 
REMARK       I    between atoms: N_16  and  C_17 
REMARK       I    between atoms: C_17  and  N_19 
REMARK    6  A    between atoms: C_20  and  N_19 
REMARK    7  A    between atoms: N_19  and  C_27 
REMARK    8  A    between atoms: C_25  and  O_26 
ROOT
HETATM    1  C   UNK N   1      34.908  13.841  10.169  0.00  0.00     0.126 C 
ENDROOT
BRANCH   1   2
HETATM    2  C   UNK N   1      35.477  15.176   9.665  0.00  0.00     0.046 C 
BRANCH   2   3
HETATM    3  C   UNK N   1      34.951  16.412  10.415  0.00  0.00     0.177 C 
BRANCH   3   4
HETATM    4  O   UNK N   1      34.736  17.454   9.533  0.00  0.00    -0.351 OA
BRANCH   4   5
HETATM    5  C   UNK N   1      33.895  17.371   8.476  0.00  0.00     0.069 A 
HETATM    6  C   UNK N   1      32.504  17.273   8.657  0.00  0.00     0.050 A 
HETATM    7  C   UNK N   1      31.656  17.244   7.551  0.00  0.00    -0.007 A 
HETATM    8  C   UNK N   1      32.192  17.330   6.248  0.00  0.00     0.045 A 
HETATM    9  C   UNK N   1      30.276  17.142   7.721  0.00  0.00     0.019 A 
HETATM   10  N   UNK N   1      31.360  17.328   5.172  0.00  0.00    -0.323 N 
HETATM   11  C   UNK N   1      33.573  17.416   6.068  0.00  0.00     0.033 A 
HETATM   12  C   UNK N   1      29.998  17.238   5.326  0.00  0.00     0.245 A 
HETATM   13  H   UNK N   1      31.741  17.393   4.266  0.00  0.00     0.169 HD
HETATM   14  C   UNK N   1      29.441  17.137   6.603  0.00  0.00     0.075 A 
HETATM   15  O   UNK N   1      29.275  17.245   4.347  0.00  0.00    -0.268 OA
HETATM   16  C   UNK N   1      34.423  17.427   7.180  0.00  0.00     0.039 A 
ENDBRANCH   4   5
ENDBRANCH   3   4
ENDBRANCH   2   3
ENDBRANCH   1   2
BRANCH   1  17
HETATM   17  N   UNK N   1      34.618  13.913  11.582  0.00  0.00    -0.343 N 
HETATM   18  C   UNK N   1      35.004  13.077  12.597  0.00  0.00     0.319 C 
HETATM   19  O   UNK N   1      34.652  13.390  13.720  0.00  0.00    -0.247 OA
HETATM   20  N   UNK N   1      35.753  11.918  12.417  0.00  0.00    -0.322 N 
HETATM   21  H   UNK N   1      34.060  14.677  11.856  0.00  0.00     0.164 HD
BRANCH  20  22
HETATM   22  C   UNK N   1      35.958  10.995  13.577  0.00  0.00     0.118 C 
HETATM   23  C   UNK N   1      34.626  10.535  14.238  0.00  0.00     0.028 C 
HETATM   24  C   UNK N   1      34.701  10.307  15.751  0.00  0.00     0.002 C 
HETATM   25  C   UNK N   1      35.121  11.595  16.476  0.00  0.00     0.003 C 
HETATM   26  C   UNK N   1      36.220  12.381  15.746  0.00  0.00     0.034 C 
HETATM   27  C   UNK N   1      36.904  11.495  14.719  0.00  0.00     0.141 C 
BRANCH  27  28
HETATM   28  O   UNK N   1      38.154  11.985  14.355  0.00  0.00    -0.394 OA
HETATM   29  H   UNK N   1      38.564  11.701  13.523  0.00  0.00     0.210 HD
ENDBRANCH  27  28
ENDBRANCH  20  22
BRANCH  20  30
HETATM   30  C   UNK N   1      36.367  11.612  11.115  0.00  0.00     0.089 A 
HETATM   31  C   UNK N   1      37.847  12.038  11.120  0.00  0.00     0.027 A 
HETATM   32  C   UNK N   1      37.516  10.594  11.211  0.00  0.00     0.027 A 
ENDBRANCH  20  30
ENDBRANCH   1  17
TORSDOF 8
ENDMDL
MODEL 5
REMARK VINA RESULT:      -7.5     18.023     22.564
REMARK  8 active torsions:
REMARK  status: ('A' for Active; 'I' for Inactive)
REMARK    1  A    between atoms: C_9  and  O_12 
REMARK    2  A    between atoms: O_12  and  C_13 
REMARK    3  A    between atoms: C_13  and  C_14 
REMARK    4  A    between atoms: C_14  and  C_15 
REMARK    5  A    between atoms: C_15  and  N_16 
REMARK       I    between atoms: N_16  and  C_17 
REMARK       I    between atoms: C_17  and  N_19 
REMARK    6  A    between atoms: C_20  and  N_19 
REMARK    7  A    between atoms: N_19  and  C_27 
REMARK    8  A    between atoms: C_25  and  O_26 
ROOT
HETATM    1  C   UNK N   1      27.898  22.707  -7.364  0.00  0.00     0.126 C 
ENDROOT
BRANCH   1   2
HETATM    2  C   UNK N   1      26.439  22.265  -7.182  0.00  0.00     0.046 C 
BRANCH   2   3
HETATM    3  C   UNK N   1      25.607  23.186  -6.273  0.00  0.00     0.177 C 
BRANCH   3   4
HETATM    4  O   UNK N   1      25.234  24.327  -6.957  0.00  0.00    -0.351 OA
BRANCH   4   5
HETATM    5  C   UNK N   1      25.740  25.554  -6.687  0.00  0.00     0.069 A 
HETATM    6  C   UNK N   1      25.401  26.238  -5.506  0.00  0.00     0.050 A 
HETATM    7  C   UNK N   1      25.978  27.476  -5.227  0.00  0.00    -0.007 A 
HETATM    8  C   UNK N   1      26.916  28.036  -6.121  0.00  0.00     0.045 A 
HETATM    9  C   UNK N   1      25.645  28.164  -4.061  0.00  0.00     0.019 A 
HETATM   10  N   UNK N   1      27.496  29.231  -5.832  0.00  0.00    -0.323 N 
HETATM   11  C   UNK N   1      27.244  27.361  -7.298  0.00  0.00     0.033 A 
HETATM   12  C   UNK N   1      27.184  29.915  -4.682  0.00  0.00     0.245 A 
HETATM   13  H   UNK N   1      28.154  29.613  -6.458  0.00  0.00     0.169 HD
HETATM   14  C   UNK N   1      26.248  29.392  -3.787  0.00  0.00     0.075 A 
HETATM   15  O   UNK N   1      27.723  30.979  -4.444  0.00  0.00    -0.268 OA
HETATM   16  C   UNK N   1      26.650  26.127  -7.584  0.00  0.00     0.039 A 
ENDBRANCH   4   5
ENDBRANCH   3   4
ENDBRANCH   2   3
ENDBRANCH   1   2
BRANCH   1  17
HETATM   17  N   UNK N   1      28.796  21.773  -6.724  0.00  0.00    -0.343 N 
HETATM   18  C   UNK N   1      29.842  22.012  -5.872  0.00  0.00     0.319 C 
HETATM   19  O   UNK N   1      30.421  21.032  -5.438  0.00  0.00    -0.247 OA
HETATM   20  N   UNK N   1      30.271  23.279  -5.491  0.00  0.00    -0.322 N 
HETATM   21  H   UNK N   1      28.631  20.825  -6.931  0.00  0.00     0.164 HD
BRANCH  20  22
HETATM   22  C   UNK N   1      31.535  23.416  -4.702  0.00  0.00     0.118 C 
HETATM   23  C   UNK N   1      32.749  22.696  -5.357  0.00  0.00     0.028 C 
HETATM   24  C   UNK N   1      33.762  22.108  -4.369  0.00  0.00     0.002 C 
HETATM   25  C   UNK N   1      33.091  21.076  -3.450  0.00  0.00     0.003 C 
HETATM   26  C   UNK N   1      31.688  21.488  -2.981  0.00  0.00     0.034 C 
HETATM   27  C   UNK N   1      31.480  22.977  -3.200  0.00  0.00     0.141 C 
BRANCH  27  28
HETATM   28  O   UNK N   1      30.447  23.482  -2.417  0.00  0.00    -0.394 OA
HETATM   29  H   UNK N   1      30.639  23.868  -1.548  0.00  0.00     0.210 HD
ENDBRANCH  27  28
ENDBRANCH  20  22
BRANCH  20  30
HETATM   30  C   UNK N   1      29.482  24.475  -5.828  0.00  0.00     0.089 A 
HETATM   31  C   UNK N   1      28.702  24.954  -4.590  0.00  0.00     0.027 A 
HETATM   32  C   UNK N   1      29.894  25.721  -5.026  0.00  0.00     0.027 A 
ENDBRANCH  20  30
ENDBRANCH   1  17
TORSDOF 8
ENDMDL
MODEL 6
REMARK VINA RESULT:      -7.4      2.569      9.856
REMARK  8 active torsions:
REMARK  status: ('A' for Active; 'I' for Inactive)
REMARK    1  A    between atoms: C_9  and  O_12 
REMARK    2  A    between atoms: O_12  and  C_13 
REMARK    3  A    between atoms: C_13  and  C_14 
REMARK    4  A    between atoms: C_14  and  C_15 
REMARK    5  A    between atoms: C_15  and  N_16 
REMARK       I    between atoms: N_16  and  C_17 
REMARK       I    between atoms: C_17  and  N_19 
REMARK    6  A    between atoms: C_20  and  N_19 
REMARK    7  A    between atoms: N_19  and  C_27 
REMARK    8  A    between atoms: C_25  and  O_26 
ROOT
HETATM    1  C   UNK N   1      36.120  14.692  11.286  0.00  0.00     0.126 C 
ENDROOT
BRANCH   1   2
HETATM    2  C   UNK N   1      36.052  15.901  10.342  0.00  0.00     0.046 C 
BRANCH   2   3
HETATM    3  C   UNK N   1      34.716  16.663  10.385  0.00  0.00     0.177 C 
BRANCH   3   4
HETATM    4  O   UNK N   1      34.616  17.518   9.305  0.00  0.00    -0.351 OA
BRANCH   4   5
HETATM    5  C   UNK N   1      33.651  17.413   8.361  0.00  0.00     0.069 A 
HETATM    6  C   UNK N   1      33.951  17.551   6.994  0.00  0.00     0.050 A 
HETATM    7  C   UNK N   1      32.949  17.384   6.039  0.00  0.00    -0.007 A 
HETATM    8  C   UNK N   1      31.636  17.059   6.443  0.00  0.00     0.045 A 
HETATM    9  C   UNK N   1      33.235  17.525   4.682  0.00  0.00     0.019 A 
HETATM   10  N   UNK N   1      30.667  16.871   5.507  0.00  0.00    -0.323 N 
HETATM   11  C   UNK N   1      31.337  16.932   7.800  0.00  0.00     0.033 A 
HETATM   12  C   UNK N   1      30.938  16.996   4.167  0.00  0.00     0.245 A 
HETATM   13  H   UNK N   1      29.754  16.639   5.796  0.00  0.00     0.169 HD
HETATM   14  C   UNK N   1      32.225  17.333   3.739  0.00  0.00     0.075 A 
HETATM   15  O   UNK N   1      30.055  16.816   3.350  0.00  0.00    -0.268 OA
HETATM   16  C   UNK N   1      32.341  17.118   8.757  0.00  0.00     0.039 A 
ENDBRANCH   4   5
ENDBRANCH   3   4
ENDBRANCH   2   3
ENDBRANCH   1   2
BRANCH   1  17
HETATM   17  N   UNK N   1      36.427  15.114  12.633  0.00  0.00    -0.343 N 
HETATM   18  C   UNK N   1      36.541  14.370  13.778  0.00  0.00     0.319 C 
HETATM   19  O   UNK N   1      36.852  14.974  14.789  0.00  0.00    -0.247 OA
HETATM   20  N   UNK N   1      36.322  12.997  13.847  0.00  0.00    -0.322 N 
HETATM   21  H   UNK N   1      36.577  16.081  12.744  0.00  0.00     0.164 HD
BRANCH  20  22
HETATM   22  C   UNK N   1      36.300  12.328  15.185  0.00  0.00     0.118 C 
HETATM   23  C   UNK N   1      37.133  11.014  15.229  0.00  0.00     0.028 C 
HETATM   24  C   UNK N   1      36.578   9.928  16.156  0.00  0.00     0.002 C 
HETATM   25  C   UNK N   1      35.156   9.527  15.736  0.00  0.00     0.003 C 
HETATM   26  C   UNK N   1      34.282  10.714  15.309  0.00  0.00     0.034 C 
HETATM   27  C   UNK N   1      34.893  12.016  15.796  0.00  0.00     0.141 C 
BRANCH  27  28
HETATM   28  O   UNK N   1      33.962  13.049  15.835  0.00  0.00    -0.394 OA
HETATM   29  H   UNK N   1      33.588  13.335  16.683  0.00  0.00     0.210 HD
ENDBRANCH  27  28
ENDBRANCH  20  22
BRANCH  20  30
HETATM   30  C   UNK N   1      36.145  12.200  12.622  0.00  0.00     0.089 A 
HETATM   31  C   UNK N   1      37.512  11.942  11.963  0.00  0.00     0.027 A 
HETATM   32  C   UNK N   1      36.843  10.831  12.684  0.00  0.00     0.027 A 
ENDBRANCH  20  30
ENDBRANCH   1  17
TORSDOF 8
ENDMDL
MODEL 7
REMARK VINA RESULT:      -7.4      1.988      2.621
REMARK  8 active torsions:
REMARK  status: ('A' for Active; 'I' for Inactive)
REMARK    1  A    between atoms: C_9  and  O_12 
REMARK    2  A    between atoms: O_12  and  C_13 
REMARK    3  A    between atoms: C_13  and  C_14 
REMARK    4  A    between atoms: C_14  and  C_15 
REMARK    5  A    between atoms: C_15  and  N_16 
REMARK       I    between atoms: N_16  and  C_17 
REMARK       I    between atoms: C_17  and  N_19 
REMARK    6  A    between atoms: C_20  and  N_19 
REMARK    7  A    between atoms: N_19  and  C_27 
REMARK    8  A    between atoms: C_25  and  O_26 
ROOT
HETATM    1  C   UNK N   1      35.759  12.830  10.934  0.00  0.00     0.126 C 
ENDROOT
BRANCH   1   2
HETATM    2  C   UNK N   1      36.642  13.271  12.111  0.00  0.00     0.046 C 
BRANCH   2   3
HETATM    3  C   UNK N   1      35.900  14.079  13.190  0.00  0.00     0.177 C 
BRANCH   3   4
HETATM    4  O   UNK N   1      34.879  13.326  13.738  0.00  0.00    -0.351 OA
BRANCH   4   5
HETATM    5  C   UNK N   1      35.005  12.636  14.896  0.00  0.00     0.069 A 
HETATM    6  C   UNK N   1      35.080  13.297  16.134  0.00  0.00     0.050 A 
HETATM    7  C   UNK N   1      35.154  12.561  17.316  0.00  0.00    -0.007 A 
HETATM    8  C   UNK N   1      35.135  11.151  17.272  0.00  0.00     0.045 A 
HETATM    9  C   UNK N   1      35.234  13.209  18.548  0.00  0.00     0.019 A 
HETATM   10  N   UNK N   1      35.180  10.436  18.428  0.00  0.00    -0.323 N 
HETATM   11  C   UNK N   1      35.071  10.494  16.041  0.00  0.00     0.033 A 
HETATM   12  C   UNK N   1      35.250  11.061  19.649  0.00  0.00     0.245 A 
HETATM   13  H   UNK N   1      35.162   9.452  18.389  0.00  0.00     0.169 HD
HETATM   14  C   UNK N   1      35.285  12.456  19.722  0.00  0.00     0.075 A 
HETATM   15  O   UNK N   1      35.282  10.399  20.669  0.00  0.00    -0.268 OA
HETATM   16  C   UNK N   1      35.014  11.236  14.856  0.00  0.00     0.039 A 
ENDBRANCH   4   5
ENDBRANCH   3   4
ENDBRANCH   2   3
ENDBRANCH   1   2
BRANCH   1  17
HETATM   17  N   UNK N   1      34.574  13.652  10.851  0.00  0.00    -0.343 N 
HETATM   18  C   UNK N   1      34.182  14.523   9.869  0.00  0.00     0.319 C 
HETATM   19  O   UNK N   1      33.104  15.069  10.027  0.00  0.00    -0.247 OA
HETATM   20  N   UNK N   1      34.930  14.812   8.732  0.00  0.00    -0.322 N 
HETATM   21  H   UNK N   1      33.957  13.575  11.615  0.00  0.00     0.164 HD
BRANCH  20  22
HETATM   22  C   UNK N   1      34.480  15.912   7.823  0.00  0.00     0.118 C 
HETATM   23  C   UNK N   1      34.340  17.285   8.543  0.00  0.00     0.028 C 
HETATM   24  C   UNK N   1      33.222  18.185   8.007  0.00  0.00     0.002 C 
HETATM   25  C   UNK N   1      31.857  17.490   8.131  0.00  0.00     0.003 C 
HETATM   26  C   UNK N   1      31.894  15.995   7.784  0.00  0.00     0.034 C 
HETATM   27  C   UNK N   1      33.162  15.667   7.015  0.00  0.00     0.141 C 
BRANCH  27  28
HETATM   28  O   UNK N   1      33.051  14.474   6.307  0.00  0.00    -0.394 OA
HETATM   29  H   UNK N   1      33.828  13.906   6.187  0.00  0.00     0.210 HD
ENDBRANCH  27  28
ENDBRANCH  20  22
BRANCH  20  30
HETATM   30  C   UNK N   1      36.133  14.031   8.402  0.00  0.00     0.089 A 
HETATM   31  C   UNK N   1      35.776  12.916   7.401  0.00  0.00     0.027 A 
HETATM   32  C   UNK N   1      36.516  14.106   6.914  0.00  0.00     0.027 A 
ENDBRANCH  20  30
ENDBRANCH   1  17
TORSDOF 8
ENDMDL
MODEL 8
REMARK VINA RESULT:      -7.4     17.524     21.890
REMARK  8 active torsions:
REMARK  status: ('A' for Active; 'I' for Inactive)
REMARK    1  A    between atoms: C_9  and  O_12 
REMARK    2  A    between atoms: O_12  and  C_13 
REMARK    3  A    between atoms: C_13  and  C_14 
REMARK    4  A    between atoms: C_14  and  C_15 
REMARK    5  A    between atoms: C_15  and  N_16 
REMARK       I    between atoms: N_16  and  C_17 
REMARK       I    between atoms: C_17  and  N_19 
REMARK    6  A    between atoms: C_20  and  N_19 
REMARK    7  A    between atoms: N_19  and  C_27 
REMARK    8  A    between atoms: C_25  and  O_26 
ROOT
HETATM    1  C   UNK N   1      25.121  22.062  -7.804  0.00  0.00     0.126 C 
ENDROOT
BRANCH   1   2
HETATM    2  C   UNK N   1      25.869  20.742  -8.043  0.00  0.00     0.046 C 
BRANCH   2   3
HETATM    3  C   UNK N   1      27.284  20.912  -8.622  0.00  0.00     0.177 C 
BRANCH   3   4
HETATM    4  O   UNK N   1      27.957  21.919  -7.958  0.00  0.00    -0.351 OA
BRANCH   4   5
HETATM    5  C   UNK N   1      28.882  21.686  -6.997  0.00  0.00     0.069 A 
HETATM    6  C   UNK N   1      29.059  22.577  -5.924  0.00  0.00     0.050 A 
HETATM    7  C   UNK N   1      29.980  22.286  -4.919  0.00  0.00    -0.007 A 
HETATM    8  C   UNK N   1      30.723  21.087  -4.967  0.00  0.00     0.045 A 
HETATM    9  C   UNK N   1      30.166  23.166  -3.855  0.00  0.00     0.019 A 
HETATM   10  N   UNK N   1      31.601  20.793  -3.972  0.00  0.00    -0.323 N 
HETATM   11  C   UNK N   1      30.554  20.207  -6.038  0.00  0.00     0.033 A 
HETATM   12  C   UNK N   1      31.787  21.647  -2.912  0.00  0.00     0.245 A 
HETATM   13  H   UNK N   1      32.112  19.952  -4.010  0.00  0.00     0.169 HD
HETATM   14  C   UNK N   1      31.076  22.848  -2.846  0.00  0.00     0.075 A 
HETATM   15  O   UNK N   1      32.573  21.357  -2.030  0.00  0.00    -0.268 OA
HETATM   16  C   UNK N   1      29.642  20.511  -7.055  0.00  0.00     0.039 A 
ENDBRANCH   4   5
ENDBRANCH   3   4
ENDBRANCH   2   3
ENDBRANCH   1   2
BRANCH   1  17
HETATM   17  N   UNK N   1      25.412  22.581  -6.488  0.00  0.00    -0.343 N 
HETATM   18  C   UNK N   1      25.796  23.841  -6.110  0.00  0.00     0.319 C 
HETATM   19  O   UNK N   1      25.941  24.028  -4.915  0.00  0.00    -0.247 OA
HETATM   20  N   UNK N   1      26.027  24.889  -6.995  0.00  0.00    -0.322 N 
HETATM   21  H   UNK N   1      25.321  21.932  -5.753  0.00  0.00     0.164 HD
BRANCH  20  22
HETATM   22  C   UNK N   1      26.615  26.164  -6.478  0.00  0.00     0.118 C 
HETATM   23  C   UNK N   1      27.975  25.963  -5.750  0.00  0.00     0.028 C 
HETATM   24  C   UNK N   1      28.233  26.924  -4.585  0.00  0.00     0.002 C 
HETATM   25  C   UNK N   1      27.143  26.785  -3.512  0.00  0.00     0.003 C 
HETATM   26  C   UNK N   1      25.730  26.615  -4.089  0.00  0.00     0.034 C 
HETATM   27  C   UNK N   1      25.706  27.035  -5.548  0.00  0.00     0.141 C 
BRANCH  27  28
HETATM   28  O   UNK N   1      24.418  27.322  -5.988  0.00  0.00    -0.394 OA
HETATM   29  H   UNK N   1      24.284  27.869  -6.778  0.00  0.00     0.210 HD
ENDBRANCH  27  28
ENDBRANCH  20  22
BRANCH  20  30
HETATM   30  C   UNK N   1      25.671  24.767  -8.418  0.00  0.00     0.089 A 
HETATM   31  C   UNK N   1      25.939  26.099  -9.142  0.00  0.00     0.027 A 
HETATM   32  C   UNK N   1      26.869  24.965  -9.363  0.00  0.00     0.027 A 
ENDBRANCH  20  30
ENDBRANCH   1  17
TORSDOF 8
ENDMDL
MODEL 9
REMARK VINA RESULT:      -7.1     18.727     22.951
REMARK  8 active torsions:
REMARK  status: ('A' for Active; 'I' for Inactive)
REMARK    1  A    between atoms: C_9  and  O_12 
REMARK    2  A    between atoms: O_12  and  C_13 
REMARK    3  A    between atoms: C_13  and  C_14 
REMARK    4  A    between atoms: C_14  and  C_15 
REMARK    5  A    between atoms: C_15  and  N_16 
REMARK       I    between atoms: N_16  and  C_17 
REMARK       I    between atoms: C_17  and  N_19 
REMARK    6  A    between atoms: C_20  and  N_19 
REMARK    7  A    between atoms: N_19  and  C_27 
REMARK    8  A    between atoms: C_25  and  O_26 
ROOT
HETATM    1  C   UNK N   1      26.979  21.883  -8.137  0.00  0.00     0.126 C 
ENDROOT
BRANCH   1   2
HETATM    2  C   UNK N   1      25.593  22.417  -8.527  0.00  0.00     0.046 C 
BRANCH   2   3
HETATM    3  C   UNK N   1      25.513  23.950  -8.634  0.00  0.00     0.177 C 
BRANCH   3   4
HETATM    4  O   UNK N   1      25.280  24.507  -7.391  0.00  0.00    -0.351 OA
BRANCH   4   5
HETATM    5  C   UNK N   1      25.800  25.695  -7.000  0.00  0.00     0.069 A 
HETATM    6  C   UNK N   1      25.387  26.314  -5.807  0.00  0.00     0.050 A 
HETATM    7  C   UNK N   1      25.978  27.509  -5.400  0.00  0.00    -0.007 A 
HETATM    8  C   UNK N   1      27.004  28.090  -6.175  0.00  0.00     0.045 A 
HETATM    9  C   UNK N   1      25.570  28.133  -4.222  0.00  0.00     0.019 A 
HETATM   10  N   UNK N   1      27.597  29.241  -5.761  0.00  0.00    -0.323 N 
HETATM   11  C   UNK N   1      27.407  27.480  -7.365  0.00  0.00     0.033 A 
HETATM   12  C   UNK N   1      27.212  29.861  -4.598  0.00  0.00     0.245 A 
HETATM   13  H   UNK N   1      28.316  29.638  -6.305  0.00  0.00     0.169 HD
HETATM   14  C   UNK N   1      26.188  29.317  -3.818  0.00  0.00     0.075 A 
HETATM   15  O   UNK N   1      27.763  30.887  -4.246  0.00  0.00    -0.268 OA
HETATM   16  C   UNK N   1      26.800  26.290  -7.780  0.00  0.00     0.039 A 
ENDBRANCH   4   5
ENDBRANCH   3   4
ENDBRANCH   2   3
ENDBRANCH   1   2
BRANCH   1  17
HETATM   17  N   UNK N   1      27.457  22.534  -6.940  0.00  0.00    -0.343 N 
HETATM   18  C   UNK N   1      28.623  22.342  -6.246  0.00  0.00     0.319 C 
HETATM   19  O   UNK N   1      28.803  23.059  -5.278  0.00  0.00    -0.247 OA
HETATM   20  N   UNK N   1      29.586  21.394  -6.578  0.00  0.00    -0.322 N 
HETATM   21  H   UNK N   1      26.854  23.217  -6.566  0.00  0.00     0.164 HD
BRANCH  20  22
HETATM   22  C   UNK N   1      30.729  21.157  -5.642  0.00  0.00     0.118 C 
HETATM   23  C   UNK N   1      30.296  21.083  -4.149  0.00  0.00     0.028 C 
HETATM   24  C   UNK N   1      31.322  21.626  -3.150  0.00  0.00     0.002 C 
HETATM   25  C   UNK N   1      31.634  23.103  -3.438  0.00  0.00     0.003 C 
HETATM   26  C   UNK N   1      31.748  23.428  -4.934  0.00  0.00     0.034 C 
HETATM   27  C   UNK N   1      31.936  22.150  -5.734  0.00  0.00     0.141 C 
BRANCH  27  28
HETATM   28  O   UNK N   1      32.475  22.396  -6.993  0.00  0.00    -0.394 OA
HETATM   29  H   UNK N   1      33.396  22.157  -7.182  0.00  0.00     0.210 HD
ENDBRANCH  27  28
ENDBRANCH  20  22
BRANCH  20  30
HETATM   30  C   UNK N   1      29.507  20.651  -7.846  0.00  0.00     0.089 A 
HETATM   31  C   UNK N   1      30.550  19.518  -7.855  0.00  0.00     0.027 A 
HETATM   32  C   UNK N   1      29.121  19.173  -7.660  0.00  0.00     0.027 A 
ENDBRANCH  20  30
ENDBRANCH   1  17
TORSDOF 8
ENDMDL
