MODEL 1
REMARK VINA RESULT:      -7.8      0.000      0.000
REMARK  6 active torsions:
REMARK  status: ('A' for Active; 'I' for Inactive)
REMARK    1  A    between atoms: C_3  and  N_24 
REMARK    2  A    between atoms: C_6  and  C_7 
REMARK    3  A    between atoms: C_7  and  O_9 
REMARK    4  A    between atoms: O_9  and  C_10 
REMARK    5  A    between atoms: C_15  and  C_20 
REMARK    6  A    between atoms: C_20  and  N_23 
REMARK       I    between atoms: N_24  and  C_25 
REMARK       I    between atoms: C_25  and  N_28 
ROOT
HETATM    1  O   UNK N   1      27.182  23.434  -6.839  0.00  0.00    -0.275 OA
ENDROOT
BRANCH   1   2
HETATM    2  C   UNK N   1      26.078  23.696  -6.082  0.00  0.00     0.298 C 
HETATM    3  O   UNK N   1      25.190  22.864  -5.939  0.00  0.00    -0.259 OA
BRANCH   2   4
HETATM    4  C   UNK N   1      25.960  25.004  -5.428  0.00  0.00     0.040 A 
HETATM    5  C   UNK N   1      25.298  26.038  -6.095  0.00  0.00     0.020 A 
HETATM    6  C   UNK N   1      25.171  27.287  -5.499  0.00  0.00     0.031 A 
HETATM    7  C   UNK N   1      25.704  27.526  -4.226  0.00  0.00     0.049 A 
HETATM    8  C   UNK N   1      26.367  26.492  -3.555  0.00  0.00     0.031 A 
HETATM    9  C   UNK N   1      26.496  25.233  -4.153  0.00  0.00     0.020 A 
BRANCH   7  10
HETATM   10  N   UNK N   1      25.586  28.796  -3.597  0.00  0.00    -0.193 N 
HETATM   11  C   UNK N   1      26.393  29.940  -3.875  0.00  0.00     0.669 C 
HETATM   12  N   UNK N   1      26.180  31.026  -3.233  0.00  0.00    -0.235 N 
HETATM   13  N   UNK N   1      27.422  29.901  -4.844  0.00  0.00    -0.235 N 
HETATM   14  H   UNK N   1      26.730  31.822  -3.417  0.00  0.00     0.174 HD
ATOM     15  HN  UNK N   1      25.441  31.068  -2.532  1.00  0.00     0.174 HD
HETATM   16  H   UNK N   1      27.597  29.072  -5.345  0.00  0.00     0.174 HD
HETATM   17  H   UNK N   1      27.966  30.704  -5.018  0.00  0.00     0.174 HD
HETATM   18  H   UNK N   1      24.887  28.894  -2.910  0.00  0.00     0.184 HD
ENDBRANCH   7  10
ENDBRANCH   2   4
ENDBRANCH   1   2
BRANCH   1  19
HETATM   19  C   UNK N   1      28.277  22.718  -6.478  0.00  0.00     0.080 A 
HETATM   20  C   UNK N   1      28.577  21.538  -7.172  0.00  0.00     0.038 A 
HETATM   21  C   UNK N   1      29.700  20.776  -6.825  0.00  0.00     0.015 A 
HETATM   22  C   UNK N   1      30.528  21.196  -5.779  0.00  0.00    -0.025 A 
HETATM   23  C   UNK N   1      31.653  20.448  -5.418  0.00  0.00     0.027 A 
HETATM   24  C   UNK N   1      30.226  22.383  -5.081  0.00  0.00    -0.023 A 
HETATM   25  C   UNK N   1      32.477  20.880  -4.365  0.00  0.00     0.008 A 
HETATM   26  C   UNK N   1      32.163  22.065  -3.680  0.00  0.00     0.016 A 
HETATM   27  C   UNK N   1      31.042  22.812  -4.037  0.00  0.00     0.013 A 
HETATM   28  C   UNK N   1      29.112  23.131  -5.432  0.00  0.00     0.049 A 
BRANCH  25  29
HETATM   29  C   UNK N   1      33.667  20.098  -3.976  0.00  0.00     0.102 C 
HETATM   30  N   UNK N   1      34.793  20.684  -3.782  0.00  0.00    -0.385 N 
HETATM   31  H   UNK N   1      34.865  21.660  -3.892  0.00  0.00     0.157 HD
ATOM     32  HN  UNK N   1      35.612  20.139  -3.514  1.00  0.00     0.157 HD
BRANCH  29  33
HETATM   33  N   UNK N   1      33.578  18.697  -3.815  0.00  0.00    -0.385 N 
HETATM   34  H   UNK N   1      33.780  18.288  -2.942  0.00  0.00     0.157 HD
HETATM   35  H   UNK N   1      33.315  18.130  -4.575  0.00  0.00     0.157 HD
ENDBRANCH  29  33
ENDBRANCH  25  29
ENDBRANCH   1  19
TORSDOF 6
ENDMDL
MODEL 2
REMARK VINA RESULT:      -7.8     11.423     14.773
REMARK  6 active torsions:
REMARK  status: ('A' for Active; 'I' for Inactive)
REMARK    1  A    between atoms: C_3  and  N_24 
REMARK    2  A    between atoms: C_6  and  C_7 
REMARK    3  A    between atoms: C_7  and  O_9 
REMARK    4  A    between atoms: O_9  and  C_10 
REMARK    5  A    between atoms: C_15  and  C_20 
REMARK    6  A    between atoms: C_20  and  N_23 
REMARK       I    between atoms: N_24  and  C_25 
REMARK       I    between atoms: C_25  and  N_28 
ROOT
HETATM    1  O   UNK N   1      28.168  18.860   5.541  0.00  0.00    -0.275 OA
ENDROOT
BRANCH   1   2
HETATM    2  C   UNK N   1      28.900  17.721   5.372  0.00  0.00     0.298 C 
HETATM    3  O   UNK N   1      28.696  16.965   4.431  0.00  0.00    -0.259 OA
BRANCH   2   4
HETATM    4  C   UNK N   1      29.953  17.404   6.344  0.00  0.00     0.040 A 
HETATM    5  C   UNK N   1      29.859  17.922   7.638  0.00  0.00     0.020 A 
HETATM    6  C   UNK N   1      30.842  17.638   8.578  0.00  0.00     0.031 A 
HETATM    7  C   UNK N   1      31.937  16.831   8.243  0.00  0.00     0.049 A 
HETATM    8  C   UNK N   1      32.033  16.311   6.947  0.00  0.00     0.031 A 
HETATM    9  C   UNK N   1      31.044  16.596   5.998  0.00  0.00     0.020 A 
BRANCH   7  10
HETATM   10  N   UNK N   1      32.954  16.527   9.189  0.00  0.00    -0.193 N 
HETATM   11  C   UNK N   1      34.180  17.239   9.350  0.00  0.00     0.669 C 
HETATM   12  N   UNK N   1      35.012  16.857  10.244  0.00  0.00    -0.235 N 
HETATM   13  N   UNK N   1      34.497  18.357   8.544  0.00  0.00    -0.235 N 
HETATM   14  H   UNK N   1      35.861  17.341  10.364  0.00  0.00     0.174 HD
ATOM     15  HN  UNK N   1      34.796  16.054  10.832  1.00  0.00     0.174 HD
HETATM   16  H   UNK N   1      33.866  18.661   7.852  0.00  0.00     0.174 HD
HETATM   17  H   UNK N   1      35.350  18.832   8.674  0.00  0.00     0.174 HD
HETATM   18  H   UNK N   1      32.798  15.759   9.785  0.00  0.00     0.184 HD
ENDBRANCH   7  10
ENDBRANCH   2   4
ENDBRANCH   1   2
BRANCH   1  19
HETATM   19  C   UNK N   1      27.050  19.227   4.865  0.00  0.00     0.080 A 
HETATM   20  C   UNK N   1      27.151  20.195   3.857  0.00  0.00     0.038 A 
HETATM   21  C   UNK N   1      26.015  20.596   3.141  0.00  0.00     0.015 A 
HETATM   22  C   UNK N   1      24.773  20.027   3.435  0.00  0.00    -0.025 A 
HETATM   23  C   UNK N   1      23.628  20.415   2.731  0.00  0.00     0.027 A 
HETATM   24  C   UNK N   1      24.670  19.053   4.449  0.00  0.00    -0.023 A 
HETATM   25  C   UNK N   1      22.384  19.836   3.035  0.00  0.00     0.008 A 
HETATM   26  C   UNK N   1      22.300  18.868   4.048  0.00  0.00     0.016 A 
HETATM   27  C   UNK N   1      23.438  18.479   4.751  0.00  0.00     0.013 A 
HETATM   28  C   UNK N   1      25.800  18.662   5.153  0.00  0.00     0.049 A 
BRANCH  25  29
HETATM   29  C   UNK N   1      21.171  20.239   2.298  0.00  0.00     0.102 C 
HETATM   30  N   UNK N   1      20.817  21.472   2.255  0.00  0.00    -0.385 N 
HETATM   31  H   UNK N   1      21.357  22.155   2.716  0.00  0.00     0.157 HD
ATOM     32  HN  UNK N   1      19.978  21.744   1.744  1.00  0.00     0.157 HD
BRANCH  29  33
HETATM   33  N   UNK N   1      20.386  19.270   1.632  0.00  0.00    -0.385 N 
HETATM   34  H   UNK N   1      20.817  18.485   1.221  0.00  0.00     0.157 HD
HETATM   35  H   UNK N   1      19.410  19.379   1.578  0.00  0.00     0.157 HD
ENDBRANCH  29  33
ENDBRANCH  25  29
ENDBRANCH   1  19
TORSDOF 6
ENDMDL
MODEL 3
REMARK VINA RESULT:      -7.6     20.623     23.677
REMARK  6 active torsions:
REMARK  status: ('A' for Active; 'I' for Inactive)
REMARK    1  A    between atoms: C_3  and  N_24 
REMARK    2  A    between atoms: C_6  and  C_7 
REMARK    3  A    between atoms: C_7  and  O_9 
REMARK    4  A    between atoms: O_9  and  C_10 
REMARK    5  A    between atoms: C_15  and  C_20 
REMARK    6  A    between atoms: C_20  and  N_23 
REMARK       I    between atoms: N_24  and  C_25 
REMARK       I    between atoms: C_25  and  N_28 
ROOT
HETATM    1  O   UNK N   1      34.671  13.060  13.766  0.00  0.00    -0.275 OA
ENDROOT
BRANCH   1   2
HETATM    2  C   UNK N   1      35.697  13.595  13.043  0.00  0.00     0.298 C 
HETATM    3  O   UNK N   1      36.862  13.469  13.400  0.00  0.00    -0.259 OA
BRANCH   2   4
HETATM    4  C   UNK N   1      35.389  14.333  11.813  0.00  0.00     0.040 A 
HETATM    5  C   UNK N   1      35.745  15.681  11.726  0.00  0.00     0.020 A 
HETATM    6  C   UNK N   1      35.465  16.405  10.573  0.00  0.00     0.031 A 
HETATM    7  C   UNK N   1      34.826  15.796   9.486  0.00  0.00     0.049 A 
HETATM    8  C   UNK N   1      34.469  14.444   9.571  0.00  0.00     0.031 A 
HETATM    9  C   UNK N   1      34.749  13.713  10.732  0.00  0.00     0.020 A 
BRANCH   7  10
HETATM   10  N   UNK N   1      34.531  16.517   8.297  0.00  0.00    -0.193 N 
HETATM   11  C   UNK N   1      33.325  17.234   8.037  0.00  0.00     0.669 C 
HETATM   12  N   UNK N   1      33.188  17.843   6.919  0.00  0.00    -0.235 N 
HETATM   13  N   UNK N   1      32.278  17.289   8.985  0.00  0.00    -0.235 N 
HETATM   14  H   UNK N   1      32.361  18.341   6.729  0.00  0.00     0.174 HD
ATOM     15  HN  UNK N   1      33.935  17.812   6.226  1.00  0.00     0.174 HD
HETATM   16  H   UNK N   1      32.370  16.825   9.849  0.00  0.00     0.174 HD
HETATM   17  H   UNK N   1      31.455  17.791   8.782  0.00  0.00     0.174 HD
HETATM   18  H   UNK N   1      35.218  16.521   7.591  0.00  0.00     0.184 HD
ENDBRANCH   7  10
ENDBRANCH   2   4
ENDBRANCH   1   2
BRANCH   1  19
HETATM   19  C   UNK N   1      34.756  12.371  14.931  0.00  0.00     0.080 A 
HETATM   20  C   UNK N   1      34.623  10.976  14.908  0.00  0.00     0.038 A 
HETATM   21  C   UNK N   1      34.706  10.235  16.095  0.00  0.00     0.015 A 
HETATM   22  C   UNK N   1      34.924  10.891  17.310  0.00  0.00    -0.025 A 
HETATM   23  C   UNK N   1      35.009  10.169  18.504  0.00  0.00     0.027 A 
HETATM   24  C   UNK N   1      35.058  12.295  17.333  0.00  0.00    -0.023 A 
HETATM   25  C   UNK N   1      35.228  10.840  19.719  0.00  0.00     0.008 A 
HETATM   26  C   UNK N   1      35.360  12.238  19.725  0.00  0.00     0.016 A 
HETATM   27  C   UNK N   1      35.274  12.960  18.537  0.00  0.00     0.013 A 
HETATM   28  C   UNK N   1      34.974  13.020  16.153  0.00  0.00     0.049 A 
BRANCH  25  29
HETATM   29  C   UNK N   1      35.320  10.086  20.985  0.00  0.00     0.102 C 
HETATM   30  N   UNK N   1      34.401   9.251  21.310  0.00  0.00    -0.385 N 
HETATM   31  H   UNK N   1      33.630   9.111  20.715  0.00  0.00     0.157 HD
ATOM     32  HN  UNK N   1      34.470   8.733  22.186  1.00  0.00     0.157 HD
BRANCH  29  33
HETATM   33  N   UNK N   1      36.422  10.277  21.850  0.00  0.00    -0.385 N 
HETATM   34  H   UNK N   1      37.223  10.751  21.529  0.00  0.00     0.157 HD
HETATM   35  H   UNK N   1      36.387   9.936  22.772  0.00  0.00     0.157 HD
ENDBRANCH  29  33
ENDBRANCH  25  29
ENDBRANCH   1  19
TORSDOF 6
ENDMDL
MODEL 4
REMARK VINA RESULT:      -7.6     13.565     17.508
REMARK  6 active torsions:
REMARK  status: ('A' for Active; 'I' for Inactive)
REMARK    1  A    between atoms: C_3  and  N_24 
REMARK    2  A    between atoms: C_6  and  C_7 
REMARK    3  A    between atoms: C_7  and  O_9 
REMARK    4  A    between atoms: O_9  and  C_10 
REMARK    5  A    between atoms: C_15  and  C_20 
REMARK    6  A    between atoms: C_20  and  N_23 
REMARK       I    between atoms: N_24  and  C_25 
REMARK       I    between atoms: C_25  and  N_28 
ROOT
HETATM    1  O   UNK N   1      34.373  17.516   6.791  0.00  0.00    -0.275 OA
ENDROOT
BRANCH   1   2
HETATM    2  C   UNK N   1      34.711  17.864   8.065  0.00  0.00     0.298 C 
HETATM    3  O   UNK N   1      34.896  19.035   8.379  0.00  0.00    -0.259 OA
BRANCH   2   4
HETATM    4  C   UNK N   1      34.855  16.810   9.075  0.00  0.00     0.040 A 
HETATM    5  C   UNK N   1      34.560  15.491   8.724  0.00  0.00     0.020 A 
HETATM    6  C   UNK N   1      34.687  14.472   9.661  0.00  0.00     0.031 A 
HETATM    7  C   UNK N   1      35.112  14.753  10.966  0.00  0.00     0.049 A 
HETATM    8  C   UNK N   1      35.409  16.075  11.320  0.00  0.00     0.031 A 
HETATM    9  C   UNK N   1      35.281  17.102  10.378  0.00  0.00     0.020 A 
BRANCH   7  10
HETATM   10  N   UNK N   1      35.249  13.727  11.940  0.00  0.00    -0.193 N 
HETATM   11  C   UNK N   1      36.463  13.055  12.275  0.00  0.00     0.669 C 
HETATM   12  N   UNK N   1      36.446  12.146  13.176  0.00  0.00    -0.235 N 
HETATM   13  N   UNK N   1      37.684  13.371  11.636  0.00  0.00    -0.235 N 
HETATM   14  H   UNK N   1      37.277  11.676  13.416  0.00  0.00     0.174 HD
ATOM     15  HN  UNK N   1      35.573  11.909  13.645  1.00  0.00     0.174 HD
HETATM   16  H   UNK N   1      37.711  14.068  10.941  0.00  0.00     0.174 HD
HETATM   17  H   UNK N   1      38.508  12.893  11.885  0.00  0.00     0.174 HD
HETATM   18  H   UNK N   1      34.436  13.456  12.426  0.00  0.00     0.184 HD
ENDBRANCH   7  10
ENDBRANCH   2   4
ENDBRANCH   1   2
BRANCH   1  19
HETATM   19  C   UNK N   1      33.130  17.479   6.249  0.00  0.00     0.080 A 
HETATM   20  C   UNK N   1      32.989  17.598   4.860  0.00  0.00     0.038 A 
HETATM   21  C   UNK N   1      31.719  17.563   4.270  0.00  0.00     0.015 A 
HETATM   22  C   UNK N   1      30.584  17.410   5.071  0.00  0.00    -0.025 A 
HETATM   23  C   UNK N   1      29.308  17.373   4.500  0.00  0.00     0.027 A 
HETATM   24  C   UNK N   1      30.726  17.290   6.469  0.00  0.00    -0.023 A 
HETATM   25  C   UNK N   1      28.175  17.218   5.317  0.00  0.00     0.008 A 
HETATM   26  C   UNK N   1      28.333  17.100   6.707  0.00  0.00     0.016 A 
HETATM   27  C   UNK N   1      29.603  17.137   7.279  0.00  0.00     0.013 A 
HETATM   28  C   UNK N   1      31.987  17.325   7.045  0.00  0.00     0.049 A 
BRANCH  25  29
HETATM   29  C   UNK N   1      26.824  17.178   4.723  0.00  0.00     0.102 C 
HETATM   30  N   UNK N   1      25.805  17.559   5.405  0.00  0.00    -0.385 N 
HETATM   31  H   UNK N   1      25.923  17.880   6.328  0.00  0.00     0.157 HD
ATOM     32  HN  UNK N   1      24.874  17.530   4.989  1.00  0.00     0.157 HD
BRANCH  29  33
HETATM   33  N   UNK N   1      26.640  16.720   3.399  0.00  0.00    -0.385 N 
HETATM   34  H   UNK N   1      27.270  16.992   2.692  0.00  0.00     0.157 HD
HETATM   35  H   UNK N   1      25.884  16.129   3.183  0.00  0.00     0.157 HD
ENDBRANCH  29  33
ENDBRANCH  25  29
ENDBRANCH   1  19
TORSDOF 6
ENDMDL
MODEL 5
REMARK VINA RESULT:      -7.4     11.618     12.660
REMARK  6 active torsions:
REMARK  status: ('A' for Active; 'I' for Inactive)
REMARK    1  A    between atoms: C_3  and  N_24 
REMARK    2  A    between atoms: C_6  and  C_7 
REMARK    3  A    between atoms: C_7  and  O_9 
REMARK    4  A    between atoms: O_9  and  C_10 
REMARK    5  A    between atoms: C_15  and  C_20 
REMARK    6  A    between atoms: C_20  and  N_23 
REMARK       I    between atoms: N_24  and  C_25 
REMARK       I    between atoms: C_25  and  N_28 
ROOT
HETATM    1  O   UNK N   1      26.933  18.335   3.811  0.00  0.00    -0.275 OA
ENDROOT
BRANCH   1   2
HETATM    2  C   UNK N   1      26.263  19.521   3.896  0.00  0.00     0.298 C 
HETATM    3  O   UNK N   1      26.854  20.575   4.097  0.00  0.00    -0.259 OA
BRANCH   2   4
HETATM    4  C   UNK N   1      24.804  19.524   3.741  0.00  0.00     0.040 A 
HETATM    5  C   UNK N   1      24.212  20.490   2.924  0.00  0.00     0.020 A 
HETATM    6  C   UNK N   1      22.832  20.516   2.759  0.00  0.00     0.031 A 
HETATM    7  C   UNK N   1      22.019  19.578   3.408  0.00  0.00     0.049 A 
HETATM    8  C   UNK N   1      22.610  18.609   4.227  0.00  0.00     0.031 A 
HETATM    9  C   UNK N   1      24.000  18.581   4.394  0.00  0.00     0.020 A 
BRANCH   7  10
HETATM   10  N   UNK N   1      20.605  19.587   3.254  0.00  0.00    -0.193 N 
HETATM   11  C   UNK N   1      19.851  18.678   2.453  0.00  0.00     0.669 C 
HETATM   12  N   UNK N   1      18.577  18.798   2.403  0.00  0.00    -0.235 N 
HETATM   13  N   UNK N   1      20.476  17.648   1.714  0.00  0.00    -0.235 N 
HETATM   14  H   UNK N   1      18.046  18.177   1.854  0.00  0.00     0.174 HD
ATOM     15  HN  UNK N   1      18.113  19.536   2.931  1.00  0.00     0.174 HD
HETATM   16  H   UNK N   1      21.455  17.544   1.743  0.00  0.00     0.174 HD
HETATM   17  H   UNK N   1      19.933  17.033   1.169  0.00  0.00     0.174 HD
HETATM   18  H   UNK N   1      20.104  20.279   3.742  0.00  0.00     0.184 HD
ENDBRANCH   7  10
ENDBRANCH   2   4
ENDBRANCH   1   2
BRANCH   1  19
HETATM   19  C   UNK N   1      27.960  17.913   4.590  0.00  0.00     0.080 A 
HETATM   20  C   UNK N   1      29.075  17.320   3.983  0.00  0.00     0.038 A 
HETATM   21  C   UNK N   1      30.152  16.873   4.759  0.00  0.00     0.015 A 
HETATM   22  C   UNK N   1      30.115  17.019   6.149  0.00  0.00    -0.025 A 
HETATM   23  C   UNK N   1      31.181  16.579   6.941  0.00  0.00     0.027 A 
HETATM   24  C   UNK N   1      28.993  17.615   6.760  0.00  0.00    -0.023 A 
HETATM   25  C   UNK N   1      31.131  16.731   8.337  0.00  0.00     0.008 A 
HETATM   26  C   UNK N   1      30.006  17.326   8.929  0.00  0.00     0.016 A 
HETATM   27  C   UNK N   1      28.943  17.766   8.144  0.00  0.00     0.013 A 
HETATM   28  C   UNK N   1      27.931  18.055   5.984  0.00  0.00     0.049 A 
BRANCH  25  29
HETATM   29  C   UNK N   1      32.251  16.269   9.180  0.00  0.00     0.102 C 
HETATM   30  N   UNK N   1      33.350  16.931   9.218  0.00  0.00    -0.385 N 
HETATM   31  H   UNK N   1      33.449  17.751   8.683  0.00  0.00     0.157 HD
ATOM     32  HN  UNK N   1      34.120  16.608   9.803  1.00  0.00     0.157 HD
BRANCH  29  33
HETATM   33  N   UNK N   1      32.123  15.093   9.955  0.00  0.00    -0.385 N 
HETATM   34  H   UNK N   1      31.911  14.237   9.517  0.00  0.00     0.157 HD
HETATM   35  H   UNK N   1      32.246  15.131  10.930  0.00  0.00     0.157 HD
ENDBRANCH  29  33
ENDBRANCH  25  29
ENDBRANCH   1  19
TORSDOF 6
ENDMDL
MODEL 6
REMARK VINA RESULT:      -7.3     19.865     23.084
REMARK  6 active torsions:
REMARK  status: ('A' for Active; 'I' for Inactive)
REMARK    1  A    between atoms: C_3  and  N_24 
REMARK    2  A    between atoms: C_6  and  C_7 
REMARK    3  A    between atoms: C_7  and  O_9 
REMARK    4  A    between atoms: O_9  and  C_10 
REMARK    5  A    between atoms: C_15  and  C_20 
REMARK    6  A    between atoms: C_20  and  N_23 
REMARK       I    between atoms: N_24  and  C_25 
REMARK       I    between atoms: C_25  and  N_28 
ROOT
HETATM    1  O   UNK N   1      36.168  11.468  12.289  0.00  0.00    -0.275 OA
ENDROOT
BRANCH   1   2
HETATM    2  C   UNK N   1      36.819  12.425  11.567  0.00  0.00     0.298 C 
HETATM    3  O   UNK N   1      38.014  12.329  11.312  0.00  0.00    -0.259 OA
BRANCH   2   4
HETATM    4  C   UNK N   1      36.066  13.590  11.089  0.00  0.00     0.040 A 
HETATM    5  C   UNK N   1      36.706  14.829  11.021  0.00  0.00     0.020 A 
HETATM    6  C   UNK N   1      36.016  15.949  10.572  0.00  0.00     0.031 A 
HETATM    7  C   UNK N   1      34.674  15.852  10.184  0.00  0.00     0.049 A 
HETATM    8  C   UNK N   1      34.030  14.610  10.253  0.00  0.00     0.031 A 
HETATM    9  C   UNK N   1      34.723  13.481  10.704  0.00  0.00     0.020 A 
BRANCH   7  10
HETATM   10  N   UNK N   1      33.949  16.984   9.723  0.00  0.00    -0.193 N 
HETATM   11  C   UNK N   1      33.869  17.425   8.368  0.00  0.00     0.669 C 
HETATM   12  N   UNK N   1      33.178  18.465   8.088  0.00  0.00    -0.235 N 
HETATM   13  N   UNK N   1      34.537  16.739   7.326  0.00  0.00    -0.235 N 
HETATM   14  H   UNK N   1      33.116  18.779   7.157  0.00  0.00     0.174 HD
ATOM     15  HN  UNK N   1      32.692  18.969   8.829  1.00  0.00     0.174 HD
HETATM   16  H   UNK N   1      35.072  15.938   7.527  0.00  0.00     0.174 HD
HETATM   17  H   UNK N   1      34.466  17.064   6.399  0.00  0.00     0.174 HD
HETATM   18  H   UNK N   1      33.459  17.509  10.396  0.00  0.00     0.184 HD
ENDBRANCH   7  10
ENDBRANCH   2   4
ENDBRANCH   1   2
BRANCH   1  19
HETATM   19  C   UNK N   1      35.994  11.428  13.634  0.00  0.00     0.080 A 
HETATM   20  C   UNK N   1      35.984  10.185  14.281  0.00  0.00     0.038 A 
HETATM   21  C   UNK N   1      35.806  10.109  15.669  0.00  0.00     0.015 A 
HETATM   22  C   UNK N   1      35.638  11.281  16.413  0.00  0.00    -0.025 A 
HETATM   23  C   UNK N   1      35.459  11.225  17.799  0.00  0.00     0.027 A 
HETATM   24  C   UNK N   1      35.648  12.531  15.762  0.00  0.00    -0.023 A 
HETATM   25  C   UNK N   1      35.291  12.409  18.536  0.00  0.00     0.008 A 
HETATM   26  C   UNK N   1      35.304  13.646  17.872  0.00  0.00     0.016 A 
HETATM   27  C   UNK N   1      35.481  13.705  16.491  0.00  0.00     0.013 A 
HETATM   28  C   UNK N   1      35.825  12.597  14.387  0.00  0.00     0.049 A 
BRANCH  25  29
HETATM   29  C   UNK N   1      35.102  12.360  19.999  0.00  0.00     0.102 C 
HETATM   30  N   UNK N   1      35.447  11.317  20.663  0.00  0.00    -0.385 N 
HETATM   31  H   UNK N   1      35.840  10.545  20.196  0.00  0.00     0.157 HD
ATOM     32  HN  UNK N   1      35.314  11.289  21.674  1.00  0.00     0.157 HD
BRANCH  29  33
HETATM   33  N   UNK N   1      34.538  13.462  20.683  0.00  0.00    -0.385 N 
HETATM   34  H   UNK N   1      34.112  14.190  20.175  0.00  0.00     0.157 HD
HETATM   35  H   UNK N   1      34.573  13.501  21.665  0.00  0.00     0.157 HD
ENDBRANCH  29  33
ENDBRANCH  25  29
ENDBRANCH   1  19
TORSDOF 6
ENDMDL
MODEL 7
REMARK VINA RESULT:      -7.3     18.619     21.964
REMARK  6 active torsions:
REMARK  status: ('A' for Active; 'I' for Inactive)
REMARK    1  A    between atoms: C_3  and  N_24 
REMARK    2  A    between atoms: C_6  and  C_7 
REMARK    3  A    between atoms: C_7  and  O_9 
REMARK    4  A    between atoms: O_9  and  C_10 
REMARK    5  A    between atoms: C_15  and  C_20 
REMARK    6  A    between atoms: C_20  and  N_23 
REMARK       I    between atoms: N_24  and  C_25 
REMARK       I    between atoms: C_25  and  N_28 
ROOT
HETATM    1  O   UNK N   1      35.134  10.441  11.193  0.00  0.00    -0.275 OA
ENDROOT
BRANCH   1   2
HETATM    2  C   UNK N   1      34.383  10.753  10.098  0.00  0.00     0.298 C 
HETATM    3  O   UNK N   1      33.663   9.921   9.560  0.00  0.00    -0.259 OA
BRANCH   2   4
HETATM    4  C   UNK N   1      34.446  12.117   9.559  0.00  0.00     0.040 A 
HETATM    5  C   UNK N   1      33.256  12.776   9.245  0.00  0.00     0.020 A 
HETATM    6  C   UNK N   1      33.286  14.068   8.733  0.00  0.00     0.031 A 
HETATM    7  C   UNK N   1      34.506  14.724   8.526  0.00  0.00     0.049 A 
HETATM    8  C   UNK N   1      35.700  14.064   8.841  0.00  0.00     0.031 A 
HETATM    9  C   UNK N   1      35.672  12.763   9.356  0.00  0.00     0.020 A 
BRANCH   7  10
HETATM   10  N   UNK N   1      34.560  16.045   8.004  0.00  0.00    -0.193 N 
HETATM   11  C   UNK N   1      34.627  17.243   8.777  0.00  0.00     0.669 C 
HETATM   12  N   UNK N   1      34.672  18.372   8.177  0.00  0.00    -0.235 N 
HETATM   13  N   UNK N   1      34.645  17.211  10.190  0.00  0.00    -0.235 N 
HETATM   14  H   UNK N   1      34.718  19.206   8.699  0.00  0.00     0.174 HD
ATOM     15  HN  UNK N   1      34.660  18.410   7.158  1.00  0.00     0.174 HD
HETATM   16  H   UNK N   1      34.611  16.349  10.665  0.00  0.00     0.174 HD
HETATM   17  H   UNK N   1      34.691  18.052  10.702  0.00  0.00     0.174 HD
HETATM   18  H   UNK N   1      34.551  16.142   7.024  0.00  0.00     0.184 HD
ENDBRANCH   7  10
ENDBRANCH   2   4
ENDBRANCH   1   2
BRANCH   1  19
HETATM   19  C   UNK N   1      35.022  10.957  12.443  0.00  0.00     0.080 A 
HETATM   20  C   UNK N   1      33.991  10.503  13.277  0.00  0.00     0.038 A 
HETATM   21  C   UNK N   1      33.849  11.017  14.573  0.00  0.00     0.015 A 
HETATM   22  C   UNK N   1      34.740  11.988  15.037  0.00  0.00    -0.025 A 
HETATM   23  C   UNK N   1      34.613  12.512  16.328  0.00  0.00     0.027 A 
HETATM   24  C   UNK N   1      35.777  12.445  14.198  0.00  0.00    -0.023 A 
HETATM   25  C   UNK N   1      35.516  13.488  16.783  0.00  0.00     0.008 A 
HETATM   26  C   UNK N   1      36.543  13.932  15.935  0.00  0.00     0.016 A 
HETATM   27  C   UNK N   1      36.672  13.412  14.649  0.00  0.00     0.013 A 
HETATM   28  C   UNK N   1      35.911  11.931  12.917  0.00  0.00     0.049 A 
BRANCH  25  29
HETATM   29  C   UNK N   1      35.390  14.047  18.144  0.00  0.00     0.102 C 
HETATM   30  N   UNK N   1      35.101  13.284  19.134  0.00  0.00    -0.385 N 
HETATM   31  H   UNK N   1      34.961  12.320  18.988  0.00  0.00     0.157 HD
ATOM     32  HN  UNK N   1      35.015  13.675  20.072  1.00  0.00     0.157 HD
BRANCH  29  33
HETATM   33  N   UNK N   1      35.588  15.429  18.368  0.00  0.00    -0.385 N 
HETATM   34  H   UNK N   1      35.414  15.813  19.258  0.00  0.00     0.157 HD
HETATM   35  H   UNK N   1      35.899  16.006  17.635  0.00  0.00     0.157 HD
ENDBRANCH  29  33
ENDBRANCH  25  29
ENDBRANCH   1  19
TORSDOF 6
ENDMDL
MODEL 8
REMARK VINA RESULT:      -7.2     17.658     21.346
REMARK  6 active torsions:
REMARK  status: ('A' for Active; 'I' for Inactive)
REMARK    1  A    between atoms: C_3  and  N_24 
REMARK    2  A    between atoms: C_6  and  C_7 
REMARK    3  A    between atoms: C_7  and  O_9 
REMARK    4  A    between atoms: O_9  and  C_10 
REMARK    5  A    between atoms: C_15  and  C_20 
REMARK    6  A    between atoms: C_20  and  N_23 
REMARK       I    between atoms: N_24  and  C_25 
REMARK       I    between atoms: C_25  and  N_28 
ROOT
HETATM    1  O   UNK N   1      35.601  15.382  11.984  0.00  0.00    -0.275 OA
ENDROOT
BRANCH   1   2
HETATM    2  C   UNK N   1      36.196  14.236  12.423  0.00  0.00     0.298 C 
HETATM    3  O   UNK N   1      36.894  13.555  11.681  0.00  0.00    -0.259 OA
BRANCH   2   4
HETATM    4  C   UNK N   1      35.991  13.817  13.814  0.00  0.00     0.040 A 
HETATM    5  C   UNK N   1      34.959  12.923  14.106  0.00  0.00     0.020 A 
HETATM    6  C   UNK N   1      34.741  12.509  15.415  0.00  0.00     0.031 A 
HETATM    7  C   UNK N   1      35.551  12.981  16.456  0.00  0.00     0.049 A 
HETATM    8  C   UNK N   1      36.587  13.878  16.164  0.00  0.00     0.031 A 
HETATM    9  C   UNK N   1      36.807  14.296  14.847  0.00  0.00     0.020 A 
BRANCH   7  10
HETATM   10  N   UNK N   1      35.348  12.571  17.801  0.00  0.00    -0.193 N 
HETATM   11  C   UNK N   1      35.162  13.442  18.917  0.00  0.00     0.669 C 
HETATM   12  N   UNK N   1      34.988  12.938  20.081  0.00  0.00    -0.235 N 
HETATM   13  N   UNK N   1      35.167  14.848  18.767  0.00  0.00    -0.235 N 
HETATM   14  H   UNK N   1      34.859  13.529  20.858  0.00  0.00     0.174 HD
ATOM     15  HN  UNK N   1      34.983  11.927  20.204  1.00  0.00     0.174 HD
HETATM   16  H   UNK N   1      35.300  15.248  17.877  0.00  0.00     0.174 HD
HETATM   17  H   UNK N   1      35.037  15.428  19.552  0.00  0.00     0.174 HD
HETATM   18  H   UNK N   1      35.333  11.603  17.979  0.00  0.00     0.184 HD
ENDBRANCH   7  10
ENDBRANCH   2   4
ENDBRANCH   1   2
BRANCH   1  19
HETATM   19  C   UNK N   1      34.830  15.539  10.879  0.00  0.00     0.080 A 
HETATM   20  C   UNK N   1      33.815  14.609  10.620  0.00  0.00     0.038 A 
HETATM   21  C   UNK N   1      33.002  14.742   9.487  0.00  0.00     0.015 A 
HETATM   22  C   UNK N   1      33.203  15.811   8.609  0.00  0.00    -0.025 A 
HETATM   23  C   UNK N   1      32.401  15.961   7.473  0.00  0.00     0.027 A 
HETATM   24  C   UNK N   1      34.225  16.748   8.869  0.00  0.00    -0.023 A 
HETATM   25  C   UNK N   1      32.614  17.040   6.598  0.00  0.00     0.008 A 
HETATM   26  C   UNK N   1      33.635  17.964   6.872  0.00  0.00     0.016 A 
HETATM   27  C   UNK N   1      34.436  17.817   8.003  0.00  0.00     0.013 A 
HETATM   28  C   UNK N   1      35.025  16.608   9.993  0.00  0.00     0.049 A 
BRANCH  25  29
HETATM   29  C   UNK N   1      31.772  17.207   5.397  0.00  0.00     0.102 C 
HETATM   30  N   UNK N   1      30.502  17.038   5.467  0.00  0.00    -0.385 N 
HETATM   31  H   UNK N   1      30.084  16.796   6.325  0.00  0.00     0.157 HD
ATOM     32  HN  UNK N   1      29.925  17.154   4.633  1.00  0.00     0.157 HD
BRANCH  29  33
HETATM   33  N   UNK N   1      32.358  17.554   4.158  0.00  0.00    -0.385 N 
HETATM   34  H   UNK N   1      32.673  16.849   3.547  0.00  0.00     0.157 HD
HETATM   35  H   UNK N   1      32.452  18.501   3.907  0.00  0.00     0.157 HD
ENDBRANCH  29  33
ENDBRANCH  25  29
ENDBRANCH   1  19
TORSDOF 6
ENDMDL
MODEL 9
REMARK VINA RESULT:      -7.2     13.627     17.510
REMARK  6 active torsions:
REMARK  status: ('A' for Active; 'I' for Inactive)
REMARK    1  A    between atoms: C_3  and  N_24 
REMARK    2  A    between atoms: C_6  and  C_7 
REMARK    3  A    between atoms: C_7  and  O_9 
REMARK    4  A    between atoms: O_9  and  C_10 
REMARK    5  A    between atoms: C_15  and  C_20 
REMARK    6  A    between atoms: C_20  and  N_23 
REMARK       I    between atoms: N_24  and  C_25 
REMARK       I    between atoms: C_25  and  N_28 
ROOT
HETATM    1  O   UNK N   1      32.993  16.063   6.803  0.00  0.00    -0.275 OA
ENDROOT
BRANCH   1   2
HETATM    2  C   UNK N   1      34.113  16.700   7.251  0.00  0.00     0.298 C 
HETATM    3  O   UNK N   1      34.565  17.680   6.670  0.00  0.00    -0.259 OA
BRANCH   2   4
HETATM    4  C   UNK N   1      34.784  16.194   8.454  0.00  0.00     0.040 A 
HETATM    5  C   UNK N   1      34.723  16.944   9.629  0.00  0.00     0.020 A 
HETATM    6  C   UNK N   1      35.350  16.489  10.783  0.00  0.00     0.031 A 
HETATM    7  C   UNK N   1      36.049  15.275  10.783  0.00  0.00     0.049 A 
HETATM    8  C   UNK N   1      36.111  14.521   9.605  0.00  0.00     0.031 A 
HETATM    9  C   UNK N   1      35.481  14.978   8.442  0.00  0.00     0.020 A 
BRANCH   7  10
HETATM   10  N   UNK N   1      36.697  14.790  11.952  0.00  0.00    -0.193 N 
HETATM   11  C   UNK N   1      36.165  13.824  12.858  0.00  0.00     0.669 C 
HETATM   12  N   UNK N   1      36.857  13.474  13.876  0.00  0.00    -0.235 N 
HETATM   13  N   UNK N   1      34.891  13.245  12.657  0.00  0.00    -0.235 N 
HETATM   14  H   UNK N   1      36.501  12.809  14.508  0.00  0.00     0.174 HD
ATOM     15  HN  UNK N   1      37.777  13.884  14.033  1.00  0.00     0.174 HD
HETATM   16  H   UNK N   1      34.348  13.505  11.879  0.00  0.00     0.174 HD
HETATM   17  H   UNK N   1      34.546  12.580  13.297  0.00  0.00     0.174 HD
HETATM   18  H   UNK N   1      37.590  15.152  12.153  0.00  0.00     0.184 HD
ENDBRANCH   7  10
ENDBRANCH   2   4
ENDBRANCH   1   2
BRANCH   1  19
HETATM   19  C   UNK N   1      31.747  16.584   6.669  0.00  0.00     0.080 A 
HETATM   20  C   UNK N   1      31.118  17.139   7.792  0.00  0.00     0.038 A 
HETATM   21  C   UNK N   1      29.832  17.685   7.688  0.00  0.00     0.015 A 
HETATM   22  C   UNK N   1      29.171  17.676   6.456  0.00  0.00    -0.025 A 
HETATM   23  C   UNK N   1      27.887  18.217   6.333  0.00  0.00     0.027 A 
HETATM   24  C   UNK N   1      29.804  17.118   5.326  0.00  0.00    -0.023 A 
HETATM   25  C   UNK N   1      27.234  18.202   5.089  0.00  0.00     0.008 A 
HETATM   26  C   UNK N   1      27.878  17.643   3.974  0.00  0.00     0.016 A 
HETATM   27  C   UNK N   1      29.157  17.104   4.093  0.00  0.00     0.013 A 
HETATM   28  C   UNK N   1      31.078  16.580   5.438  0.00  0.00     0.049 A 
BRANCH  25  29
HETATM   29  C   UNK N   1      25.878  18.770   4.949  0.00  0.00     0.102 C 
HETATM   30  N   UNK N   1      25.565  19.856   5.556  0.00  0.00    -0.385 N 
HETATM   31  H   UNK N   1      26.229  20.315   6.119  0.00  0.00     0.157 HD
ATOM     32  HN  UNK N   1      24.627  20.244   5.456  1.00  0.00     0.157 HD
BRANCH  29  33
HETATM   33  N   UNK N   1      24.914  18.122   4.144  0.00  0.00    -0.385 N 
HETATM   34  H   UNK N   1      25.168  17.765   3.262  0.00  0.00     0.157 HD
HETATM   35  H   UNK N   1      23.988  18.030   4.464  0.00  0.00     0.157 HD
ENDBRANCH  29  33
ENDBRANCH  25  29
ENDBRANCH   1  19
TORSDOF 6
ENDMDL
