REMARK  31 active torsions:
REMARK  status: ('A' for Active; 'I' for Inactive)
REMARK    1  A    between atoms: C_2  and  C_3 
REMARK    2  A    between atoms: C_3  and  C_4 
REMARK    3  A    between atoms: C_4  and  C_5 
REMARK    4  A    between atoms: C_5  and  C_6 
REMARK    5  A    between atoms: C_5  and  N_47 
REMARK       I    between atoms: C_6  and  N_8 
REMARK    6  A    between atoms: C_9  and  N_8 
REMARK    7  A    between atoms: C_9  and  C_10 
REMARK    8  A    between atoms: C_9  and  C_18 
REMARK    9  A    between atoms: C_10  and  C_11 
REMARK   10  A    between atoms: C_14  and  O_17 
REMARK       I    between atoms: C_18  and  N_20 
REMARK   11  A    between atoms: C_21  and  N_20 
REMARK   12  A    between atoms: C_21  and  C_22 
REMARK   13  A    between atoms: C_21  and  C_26 
REMARK   14  A    between atoms: C_22  and  C_24 
REMARK       I    between atoms: C_26  and  N_28 
REMARK   15  A    between atoms: C_29  and  N_28 
REMARK   16  A    between atoms: C_29  and  C_30 
REMARK   17  A    between atoms: C_29  and  C_37 
REMARK   18  A    between atoms: C_30  and  C_31 
REMARK       I    between atoms: C_37  and  N_39 
REMARK   19  A    between atoms: C_43  and  C_44 
REMARK   20  A    between atoms: C_44  and  O_46 
REMARK       I    between atoms: N_47  and  C_48 
REMARK   21  A    between atoms: C_48  and  C_50 
REMARK   22  A    between atoms: C_50  and  C_51 
REMARK   23  A    between atoms: C_50  and  N_59 
REMARK   24  A    between atoms: C_51  and  C_52 
REMARK   25  A    between atoms: C_52  and  C_53 
REMARK   26  A    between atoms: C_53  and  N_54 
REMARK       I    between atoms: N_54  and  C_55 
REMARK       I    between atoms: C_55  and  N_58 
REMARK       I    between atoms: N_59  and  C_60 
REMARK   27  A    between atoms: C_60  and  C_62 
REMARK   28  A    between atoms: C_62  and  C_63 
REMARK   29  A    between atoms: C_62  and  N_67 
REMARK   30  A    between atoms: C_63  and  C_64 
REMARK   31  A    between atoms: C_64  and  O_66 
ROOT
HETATM    1  C   UNK N   1       2.052   1.646   0.162  0.00  0.00     0.180 C 
ENDROOT
BRANCH   1   2
HETATM    2  N   UNK N   1       2.298   0.344  -0.402  0.00  0.00    -0.346 N 
HETATM    3  C   UNK N   1       3.463   0.062  -1.020  0.00  0.00     0.241 C 
HETATM    4  O   UNK N   1       4.305   0.942  -1.155  0.00  0.00    -0.271 OA
HETATM    5  H   UNK N   1       1.605  -0.352  -0.335  0.00  0.00     0.163 HD
BRANCH   3   6
HETATM    6  C   UNK N   1       3.775  -1.351  -1.441  0.00  0.00     0.176 C 
BRANCH   6   7
HETATM    7  C   UNK N   1       3.371  -2.288  -0.295  0.00  0.00     0.035 C 
BRANCH   7   8
HETATM    8  C   UNK N   1       2.945  -3.648  -0.805  0.00  0.00     0.002 C 
BRANCH   8   9
HETATM    9  C   UNK N   1       1.479  -3.840  -0.473  0.00  0.00    -0.004 C 
HETATM   10  C   UNK N   1       1.029  -5.228  -0.869  0.00  0.00     0.005 C 
ENDBRANCH   8   9
ENDBRANCH   7   8
ENDBRANCH   6   7
BRANCH   6  11
HETATM   11  N   UNK N   1       5.199  -1.343  -1.744  0.00  0.00    -0.346 N 
HETATM   12  C   UNK N   1       6.193  -1.795  -0.939  0.00  0.00     0.241 C 
HETATM   13  O   UNK N   1       5.971  -2.562  -0.014  0.00  0.00    -0.271 OA
HETATM   14  H   UNK N   1       5.467  -0.975  -2.617  0.00  0.00     0.163 HD
BRANCH  12  15
HETATM   15  C   UNK N   1       7.529  -1.136  -1.045  0.00  0.00     0.176 C 
BRANCH  15  16
HETATM   16  C   UNK N   1       8.660  -2.108  -1.380  0.00  0.00     0.036 C 
BRANCH  16  17
HETATM   17  C   UNK N   1       8.862  -3.234  -0.363  0.00  0.00     0.023 C 
BRANCH  17  18
HETATM   18  C   UNK N   1       9.390  -2.742   0.985  0.00  0.00     0.138 C 
BRANCH  18  19
HETATM   19  N   UNK N   1      10.511  -1.845   0.821  0.00  0.00    -0.227 N 
HETATM   20  C   UNK N   1      11.743  -2.261   0.256  0.00  0.00     0.665 C 
HETATM   21  N   UNK N   1      12.683  -1.409   0.091  0.00  0.00    -0.235 N 
HETATM   22  N   UNK N   1      11.935  -3.603  -0.146  0.00  0.00    -0.235 N 
HETATM   23  H   UNK N   1      13.613  -1.707  -0.035  0.00  0.00     0.174 HD
ATOM     24  HN  UNK N   1      12.468  -0.411   0.091  1.00  0.00     0.174 HD
HETATM   25  H   UNK N   1      11.193  -4.186  -0.425  0.00  0.00     0.174 HD
HETATM   26  H   UNK N   1      12.849  -3.969  -0.146  0.00  0.00     0.174 HD
HETATM   27  H   UNK N   1      10.415  -0.910   1.113  0.00  0.00     0.177 HD
ENDBRANCH  18  19
ENDBRANCH  17  18
ENDBRANCH  16  17
ENDBRANCH  15  16
BRANCH  15  28
HETATM   28  N   UNK N   1       7.762  -0.449   0.208  0.00  0.00    -0.346 N 
HETATM   29  C   UNK N   1       7.848   0.897   0.340  0.00  0.00     0.241 C 
HETATM   30  O   UNK N   1       7.947   1.373   1.460  0.00  0.00    -0.271 OA
HETATM   31  H   UNK N   1       7.865  -0.997   1.019  0.00  0.00     0.163 HD
BRANCH  29  32
HETATM   32  C   UNK N   1       7.814   1.813  -0.857  0.00  0.00     0.177 C 
BRANCH  32  33
HETATM   33  C   UNK N   1       9.100   2.643  -0.970  0.00  0.00     0.144 C 
BRANCH  33  34
HETATM   34  C   UNK N   1       9.323   3.582   0.184  0.00  0.00     0.141 C 
HETATM   35  O   UNK N   1       8.556   4.510   0.384  0.00  0.00    -0.650 OA
BRANCH  34  36
HETATM   36  O   UNK N   1      10.377   3.398   1.002  0.00  0.00    -0.776 OA
HETATM   37  H   UNK N   1      10.632   2.699   1.571  0.00  0.00     0.167 HD
ENDBRANCH  34  36
ENDBRANCH  33  34
ENDBRANCH  32  33
BRANCH  32  38
HETATM   38  N   UNK N   1       6.647   2.680  -0.808  0.00  0.00    -0.418 N 
HETATM   39  H   UNK N   1       6.765   3.693  -0.774  0.00  0.00     0.150 HD
HETATM   40  H   UNK N   1       5.711   2.276  -0.808  0.00  0.00     0.150 HD
ENDBRANCH  32  38
ENDBRANCH  29  32
ENDBRANCH  15  28
ENDBRANCH  12  15
ENDBRANCH   6  11
ENDBRANCH   3   6
ENDBRANCH   1   2
BRANCH   1  41
HETATM   41  C   UNK N   1       1.904   2.699  -0.940  0.00  0.00     0.073 C 
BRANCH  41  42
HETATM   42  C   UNK N   1       1.880   4.097  -0.418  0.00  0.00    -0.056 A 
HETATM   43  C   UNK N   1       0.824   4.942  -0.768  0.00  0.00     0.010 A 
HETATM   44  C   UNK N   1       0.803   6.263  -0.313  0.00  0.00     0.037 A 
HETATM   45  C   UNK N   1       1.837   6.742   0.495  0.00  0.00     0.065 A 
HETATM   46  C   UNK N   1       2.900   5.902   0.841  0.00  0.00     0.037 A 
HETATM   47  C   UNK N   1       2.926   4.582   0.379  0.00  0.00     0.010 A 
BRANCH  45  48
HETATM   48  O   UNK N   1       1.809   8.008   0.938  0.00  0.00    -0.361 OA
HETATM   49  H   UNK N   1       2.565   8.468   1.248  0.00  0.00     0.217 HD
ENDBRANCH  45  48
ENDBRANCH  41  42
ENDBRANCH   1  41
BRANCH   1  50
HETATM   50  C   UNK N   1       0.902   1.550   1.112  0.00  0.00     0.241 C 
HETATM   51  O   UNK N   1       1.094   1.787   2.292  0.00  0.00    -0.271 OA
HETATM   52  N   UNK N   1      -0.331   1.170   0.706  0.00  0.00    -0.346 N 
HETATM   53  H   UNK N   1      -1.033   1.065   1.389  0.00  0.00     0.163 HD
BRANCH  52  54
HETATM   54  C   UNK N   1      -0.679   0.911  -0.676  0.00  0.00     0.180 C 
BRANCH  54  55
HETATM   55  C   UNK N   1      -1.533  -0.343  -0.872  0.00  0.00     0.013 C 
HETATM   56  C   UNK N   1      -0.634  -1.558  -0.974  0.00  0.00     0.012 C 
BRANCH  55  57
HETATM   57  C   UNK N   1      -2.567  -0.517   0.239  0.00  0.00     0.002 C 
HETATM   58  C   UNK N   1      -3.491  -1.690  -0.035  0.00  0.00     0.005 C 
ENDBRANCH  55  57
ENDBRANCH  54  55
BRANCH  54  59
HETATM   59  C   UNK N   1      -1.213   2.132  -1.380  0.00  0.00     0.241 C 
HETATM   60  O   UNK N   1      -0.891   2.317  -2.542  0.00  0.00    -0.271 OA
HETATM   61  N   UNK N   1      -1.998   3.051  -0.762  0.00  0.00    -0.346 N 
HETATM   62  H   UNK N   1      -2.296   3.834  -1.281  0.00  0.00     0.163 HD
BRANCH  61  63
HETATM   63  C   UNK N   1      -2.419   2.942   0.615  0.00  0.00     0.182 C 
BRANCH  63  64
HETATM   64  C   UNK N   1      -1.829   3.988   1.565  0.00  0.00     0.093 C 
BRANCH  64  65
HETATM   65  C   UNK N   1      -2.037   5.420   1.179  0.00  0.00     0.028 A 
HETATM   66  C   UNK N   1      -1.736   6.497   1.975  0.00  0.00     0.114 A 
HETATM   67  N   UNK N   1      -2.032   7.613   1.283  0.00  0.00    -0.360 N 
HETATM   68  C   UNK N   1      -2.498   7.195   0.087  0.00  0.00     0.180 A 
HETATM   69  H   UNK N   1      -1.931   8.544   1.588  0.00  0.00     0.166 HD
HETATM   70  N   UNK N   1      -2.507   5.851  -0.002  0.00  0.00    -0.354 N 
ATOM     71  HN  UNK N   1      -2.806   5.284  -0.795  1.00  0.00     0.166 HD
ENDBRANCH  64  65
ENDBRANCH  63  64
BRANCH  63  72
HETATM   72  C   UNK N   1      -3.880   2.641   0.814  0.00  0.00     0.243 C 
HETATM   73  O   UNK N   1      -4.182   1.879   1.720  0.00  0.00    -0.271 OA
HETATM   74  N   UNK N   1      -4.860   3.183   0.027  0.00  0.00    -0.336 N 
HETATM   75  C   UNK N   1      -4.595   4.111  -1.034  0.00  0.00     0.127 C 
HETATM   76  C   UNK N   1      -6.256   2.890   0.230  0.00  0.00     0.185 C 
HETATM   77  C   UNK N   1      -5.948   4.462  -1.619  0.00  0.00     0.022 C 
HETATM   78  C   UNK N   1      -6.998   3.813  -0.722  0.00  0.00     0.038 C 
BRANCH  76  79
HETATM   79  C   UNK N   1      -6.591   1.452  -0.080  0.00  0.00     0.163 C 
HETATM   80  O   UNK N   1      -7.733   1.052   0.075  0.00  0.00    -0.648 OA
BRANCH  79  81
HETATM   81  O   UNK N   1      -5.646   0.601  -0.525  0.00  0.00    -0.775 OA
HETATM   82  H   UNK N   1      -5.829  -0.264  -0.834  0.00  0.00     0.167 HD
ENDBRANCH  79  81
ENDBRANCH  76  79
ENDBRANCH  63  72
ENDBRANCH  61  63
ENDBRANCH  54  59
ENDBRANCH  52  54
ENDBRANCH   1  50
TORSDOF 31
