REMARK  11 active torsions:
REMARK  status: ('A' for Active; 'I' for Inactive)
REMARK    1  A    between atoms: C_5  and  O_48 
REMARK    2  A    between atoms: C_6  and  N_8 
REMARK       I    between atoms: N_8  and  C_9 
REMARK       I    between atoms: C_9  and  N_11 
REMARK    3  A    between atoms: N_11  and  C_12 
REMARK    4  A    between atoms: C_18  and  N_22 
REMARK    5  A    between atoms: N_22  and  C_23 
REMARK    6  A    between atoms: C_26  and  O_46 
REMARK    7  A    between atoms: C_27  and  O_35 
REMARK    8  A    between atoms: O_35  and  C_36 
REMARK    9  A    between atoms: C_36  and  C_37 
REMARK   10  A    between atoms: C_37  and  C_38 
REMARK   11  A    between atoms: C_38  and  N_39 
ROOT
HETATM    1  N   UNK N   1       1.833   1.226   1.390  0.00  0.00    -0.364 N 
HETATM    2  H   UNK N   1       2.210   1.565   2.234  0.00  0.00     0.162 HD
ENDROOT
BRANCH   1   3
HETATM    3  C   UNK N   1       1.591   2.111   0.307  0.00  0.00     0.131 C 
HETATM    4  C   UNK N   1       1.136   3.367   0.754  0.00  0.00     0.004 C 
HETATM    5  C   UNK N   1      -0.190   3.736   0.511  0.00  0.00     0.029 C 
HETATM    6  C   UNK N   1      -0.971   2.833  -0.201  0.00  0.00     0.051 A 
HETATM    7  N   UNK N   1      -2.326   2.819  -0.177  0.00  0.00    -0.335 N 
HETATM    8  C   UNK N   1      -0.395   1.766  -0.870  0.00  0.00     0.033 A 
HETATM    9  C   UNK N   1      -2.821   1.708  -0.794  0.00  0.00     0.153 A 
ATOM     10  HN  UNK N   1      -2.902   3.546   0.247  1.00  0.00     0.168 HD
HETATM   11  S   UNK N   1      -1.600   0.785  -1.403  0.00  0.00    -0.052 SA
HETATM   12  C   UNK N   1       0.918   1.468  -0.748  0.00  0.00     0.023 C 
BRANCH   9  13
HETATM   13  N   UNK N   1      -4.181   1.378  -0.696  0.00  0.00    -0.288 N 
HETATM   14  C   UNK N   1      -5.023   2.408  -0.864  0.00  0.00     0.326 C 
HETATM   15  N   UNK N   1      -6.119   2.525  -0.082  0.00  0.00    -0.306 N 
HETATM   16  O   UNK N   1      -4.708   3.318  -1.620  0.00  0.00    -0.247 OA
HETATM   17  H   UNK N   1      -6.488   1.737   0.379  0.00  0.00     0.171 HD
HETATM   18  H   UNK N   1      -4.492   0.461  -0.517  0.00  0.00     0.172 HD
BRANCH  15  19
HETATM   19  C   UNK N   1      -6.733   3.799   0.070  0.00  0.00     0.070 A 
HETATM   20  C   UNK N   1      -5.953   4.983   0.239  0.00  0.00     0.095 A 
HETATM   21  C   UNK N   1      -6.599   6.225   0.297  0.00  0.00     0.039 A 
HETATM   22  C   UNK N   1      -7.987   6.298   0.207  0.00  0.00     0.009 A 
HETATM   23  C   UNK N   1      -8.745   5.132   0.080  0.00  0.00    -0.060 A 
HETATM   24  C   UNK N   1     -10.222   5.217  -0.010  0.00  0.00     0.048 C 
HETATM   25  C   UNK N   1      -8.120   3.888   0.013  0.00  0.00     0.039 A 
BRANCH  20  26
HETATM   26  O   UNK N   1      -4.598   4.905   0.347  0.00  0.00    -0.354 OA
HETATM   27  C   UNK N   1      -3.764   6.000   0.401  0.00  0.00     0.210 C 
ENDBRANCH  20  26
ENDBRANCH  15  19
ENDBRANCH   9  13
ENDBRANCH   1   3
BRANCH   1  28
HETATM   28  C   UNK N   1       1.524  -0.164   1.247  0.00  0.00     0.115 A 
HETATM   29  C   UNK N   1       2.413  -0.953   0.572  0.00  0.00     0.037 A 
HETATM   30  C   UNK N   1       3.569  -0.379   0.081  0.00  0.00     0.057 A 
HETATM   31  C   UNK N   1       2.148  -2.313   0.407  0.00  0.00     0.050 A 
HETATM   32  C   UNK N   1       4.539  -1.151  -0.509  0.00  0.00     0.102 A 
HETATM   33  C   UNK N   1       4.359  -2.541  -0.564  0.00  0.00     0.104 A 
HETATM   34  C   UNK N   1       3.144  -3.127  -0.144  0.00  0.00     0.070 A 
HETATM   35  N   UNK N   1       0.962  -2.822   0.838  0.00  0.00    -0.351 N 
HETATM   36  C   UNK N   1       0.044  -2.007   1.439  0.00  0.00     0.182 A 
ATOM     37  HN  UNK N   1       0.758  -3.813   0.713  1.00  0.00     0.166 HD
HETATM   38  N   UNK N   1       0.332  -0.688   1.658  0.00  0.00    -0.338 N 
ATOM     39  HN  UNK N   1      -0.347  -0.092   2.132  1.00  0.00     0.168 HD
BRANCH  32  40
HETATM   40  O   UNK N   1       5.678  -0.581  -0.968  0.00  0.00    -0.353 OA
HETATM   41  C   UNK N   1       5.915   0.777  -0.911  0.00  0.00     0.210 C 
ENDBRANCH  32  40
BRANCH  33  42
HETATM   42  O   UNK N   1       5.403  -3.310  -0.909  0.00  0.00    -0.348 OA
BRANCH  42  43
HETATM   43  C   UNK N   1       6.186  -3.857   0.094  0.00  0.00     0.177 C 
BRANCH  43  44
HETATM   44  C   UNK N   1       6.731  -2.781   1.055  0.00  0.00     0.057 C 
BRANCH  44  45
HETATM   45  C   UNK N   1       7.760  -1.882   0.374  0.00  0.00     0.274 C 
BRANCH  45  46
HETATM   46  N   UNK N   1       9.093  -2.438   0.503  0.00  0.00     0.091 N 
HETATM   47  C   UNK N   1      10.051  -1.446   0.023  0.00  0.00     0.302 C 
HETATM   48  C   UNK N   1      11.464  -2.016   0.162  0.00  0.00     0.302 C 
HETATM   49  N   UNK N   1      11.590  -3.261  -0.602  0.00  0.00     0.087 N 
HETATM   50  C   UNK N   1      10.575  -4.223  -0.180  0.00  0.00     0.302 C 
HETATM   51  C   UNK N   1      12.874  -3.842  -0.260  0.00  0.00     0.310 C 
HETATM   52  C   UNK N   1       9.195  -3.615  -0.355  0.00  0.00     0.302 C 
ENDBRANCH  45  46
ENDBRANCH  44  45
ENDBRANCH  43  44
ENDBRANCH  42  43
ENDBRANCH  33  42
ENDBRANCH   1  28
TORSDOF 11
