MODEL 1
REMARK VINA RESULT:      -5.0      0.000      0.000
REMARK  5 active torsions:
REMARK  status: ('A' for Active; 'I' for Inactive)
REMARK    1  A    between atoms: C_9  and  C_1 
REMARK    2  A    between atoms: O_7  and  C_4 
REMARK    3  A    between atoms: O_8  and  C_5 
REMARK    4  A    between atoms: C_10  and  C_9 
REMARK    5  A    between atoms: O_11  and  C_10 
ROOT
HETATM    1  C   UNK N   1      20.811  18.376   3.712  0.00  0.00    -0.053 A 
HETATM    2  C   UNK N   1      20.412  17.749   2.528  0.00  0.00     0.010 A 
HETATM    3  C   UNK N   1      20.367  18.472   1.332  0.00  0.00     0.040 A 
HETATM    4  C   UNK N   1      20.720  19.824   1.317  0.00  0.00     0.098 A 
HETATM    5  C   UNK N   1      21.120  20.458   2.499  0.00  0.00     0.099 A 
HETATM    6  C   UNK N   1      21.164  19.733   3.692  0.00  0.00     0.046 A 
ENDROOT
BRANCH   1   7
HETATM    7  C   UNK N   1      20.849  17.573   4.976  0.00  0.00     0.064 C 
BRANCH   7   8
HETATM    8  C   UNK N   1      21.748  18.180   6.041  0.00  0.00     0.168 C 
BRANCH   8   9
HETATM    9  O   UNK N   1      20.965  18.720   7.057  0.00  0.00    -0.401 OA
HETATM   10  H   UNK N   1      21.387  19.169   7.807  0.00  0.00     0.209 HD
ENDBRANCH   8   9
ENDBRANCH   7   8
ENDBRANCH   1   7
BRANCH   5  11
HETATM   11  O   UNK N   1      21.462  21.756   2.499  0.00  0.00    -0.358 OA
HETATM   12  H   UNK N   1      21.590  22.208   1.689  0.00  0.00     0.217 HD
ENDBRANCH   5  11
BRANCH   4  13
HETATM   13  O   UNK N   1      20.674  20.512   0.162  0.00  0.00    -0.358 OA
HETATM   14  H   UNK N   1      19.884  20.948  -0.091  0.00  0.00     0.217 HD
ENDBRANCH   4  13
TORSDOF 5
ENDMDL
MODEL 2
REMARK VINA RESULT:      -5.0      9.492     11.393
REMARK  5 active torsions:
REMARK  status: ('A' for Active; 'I' for Inactive)
REMARK    1  A    between atoms: C_9  and  C_1 
REMARK    2  A    between atoms: O_7  and  C_4 
REMARK    3  A    between atoms: O_8  and  C_5 
REMARK    4  A    between atoms: C_10  and  C_9 
REMARK    5  A    between atoms: O_11  and  C_10 
ROOT
HETATM    1  C   UNK N   1      30.961  17.403   7.430  0.00  0.00    -0.053 A 
HETATM    2  C   UNK N   1      29.746  17.103   6.806  0.00  0.00     0.010 A 
HETATM    3  C   UNK N   1      28.537  17.400   7.442  0.00  0.00     0.040 A 
HETATM    4  C   UNK N   1      28.539  17.998   8.705  0.00  0.00     0.098 A 
HETATM    5  C   UNK N   1      29.752  18.301   9.336  0.00  0.00     0.099 A 
HETATM    6  C   UNK N   1      30.957  18.003   8.698  0.00  0.00     0.046 A 
ENDROOT
BRANCH   1   7
HETATM    7  C   UNK N   1      32.238  17.072   6.721  0.00  0.00     0.064 C 
BRANCH   7   8
HETATM    8  C   UNK N   1      33.447  17.783   7.309  0.00  0.00     0.168 C 
BRANCH   8   9
HETATM    9  O   UNK N   1      34.440  17.886   6.340  0.00  0.00    -0.401 OA
HETATM   10  H   UNK N   1      34.537  17.192   5.669  0.00  0.00     0.209 HD
ENDBRANCH   8   9
ENDBRANCH   7   8
ENDBRANCH   1   7
BRANCH   5  11
HETATM   11  O   UNK N   1      29.768  18.876  10.549  0.00  0.00    -0.358 OA
HETATM   12  H   UNK N   1      30.498  18.746  11.120  0.00  0.00     0.217 HD
ENDBRANCH   5  11
BRANCH   4  13
HETATM   13  O   UNK N   1      27.372  18.280   9.310  0.00  0.00    -0.358 OA
HETATM   14  H   UNK N   1      27.243  19.117   9.712  0.00  0.00     0.217 HD
ENDBRANCH   4  13
TORSDOF 5
ENDMDL
MODEL 3
REMARK VINA RESULT:      -5.0      8.420      9.859
REMARK  5 active torsions:
REMARK  status: ('A' for Active; 'I' for Inactive)
REMARK    1  A    between atoms: C_9  and  C_1 
REMARK    2  A    between atoms: O_7  and  C_4 
REMARK    3  A    between atoms: O_8  and  C_5 
REMARK    4  A    between atoms: C_10  and  C_9 
REMARK    5  A    between atoms: O_11  and  C_10 
ROOT
HETATM    1  C   UNK N   1      23.039  12.176  10.490  0.00  0.00    -0.053 A 
HETATM    2  C   UNK N   1      23.447  11.672   9.251  0.00  0.00     0.010 A 
HETATM    3  C   UNK N   1      22.655  11.875   8.116  0.00  0.00     0.040 A 
HETATM    4  C   UNK N   1      21.453  12.581   8.217  0.00  0.00     0.098 A 
HETATM    5  C   UNK N   1      21.040  13.089   9.455  0.00  0.00     0.099 A 
HETATM    6  C   UNK N   1      21.833  12.885  10.586  0.00  0.00     0.046 A 
ENDROOT
BRANCH   1   7
HETATM    7  C   UNK N   1      23.911  11.942  11.686  0.00  0.00     0.064 C 
BRANCH   7   8
HETATM    8  C   UNK N   1      23.128  11.867  12.987  0.00  0.00     0.168 C 
BRANCH   8   9
HETATM    9  O   UNK N   1      23.836  12.518  13.992  0.00  0.00    -0.401 OA
HETATM   10  H   UNK N   1      23.359  12.973  14.704  0.00  0.00     0.209 HD
ENDBRANCH   8   9
ENDBRANCH   7   8
ENDBRANCH   1   7
BRANCH   5  11
HETATM   11  O   UNK N   1      19.888  13.770   9.566  0.00  0.00    -0.358 OA
HETATM   12  H   UNK N   1      19.677  14.207  10.366  0.00  0.00     0.217 HD
ENDBRANCH   5  11
BRANCH   4  13
HETATM   13  O   UNK N   1      20.698  12.771   7.121  0.00  0.00    -0.358 OA
HETATM   14  H   UNK N   1      19.849  13.160   7.200  0.00  0.00     0.217 HD
ENDBRANCH   4  13
TORSDOF 5
ENDMDL
MODEL 4
REMARK VINA RESULT:      -4.9      0.885      2.062
REMARK  5 active torsions:
REMARK  status: ('A' for Active; 'I' for Inactive)
REMARK    1  A    between atoms: C_9  and  C_1 
REMARK    2  A    between atoms: O_7  and  C_4 
REMARK    3  A    between atoms: O_8  and  C_5 
REMARK    4  A    between atoms: C_10  and  C_9 
REMARK    5  A    between atoms: O_11  and  C_10 
ROOT
HETATM    1  C   UNK N   1      20.733  18.410   3.566  0.00  0.00    -0.053 A 
HETATM    2  C   UNK N   1      20.921  19.795   3.577  0.00  0.00     0.010 A 
HETATM    3  C   UNK N   1      20.894  20.516   2.380  0.00  0.00     0.040 A 
HETATM    4  C   UNK N   1      20.679  19.854   1.168  0.00  0.00     0.098 A 
HETATM    5  C   UNK N   1      20.491  18.467   1.150  0.00  0.00     0.099 A 
HETATM    6  C   UNK N   1      20.518  17.750   2.348  0.00  0.00     0.046 A 
ENDROOT
BRANCH   1   7
HETATM    7  C   UNK N   1      20.767  17.667   4.867  0.00  0.00     0.064 C 
BRANCH   7   8
HETATM    8  C   UNK N   1      21.713  18.288   5.883  0.00  0.00     0.168 C 
BRANCH   8   9
HETATM    9  O   UNK N   1      20.986  18.722   6.987  0.00  0.00    -0.401 OA
HETATM   10  H   UNK N   1      20.137  18.304   7.204  0.00  0.00     0.209 HD
ENDBRANCH   8   9
ENDBRANCH   7   8
ENDBRANCH   1   7
BRANCH   5  11
HETATM   11  O   UNK N   1      20.284  17.819  -0.007  0.00  0.00    -0.358 OA
HETATM   12  H   UNK N   1      20.312  16.883  -0.033  0.00  0.00     0.217 HD
ENDBRANCH   5  11
BRANCH   4  13
HETATM   13  O   UNK N   1      20.655  20.556   0.021  0.00  0.00    -0.358 OA
HETATM   14  H   UNK N   1      20.786  21.483   0.037  0.00  0.00     0.217 HD
ENDBRANCH   4  13
TORSDOF 5
ENDMDL
MODEL 5
REMARK VINA RESULT:      -4.9     20.487     22.270
REMARK  5 active torsions:
REMARK  status: ('A' for Active; 'I' for Inactive)
REMARK    1  A    between atoms: C_9  and  C_1 
REMARK    2  A    between atoms: O_7  and  C_4 
REMARK    3  A    between atoms: O_8  and  C_5 
REMARK    4  A    between atoms: C_10  and  C_9 
REMARK    5  A    between atoms: O_11  and  C_10 
ROOT
HETATM    1  C   UNK N   1      35.426  12.726  17.086  0.00  0.00    -0.053 A 
HETATM    2  C   UNK N   1      35.742  11.372  17.232  0.00  0.00     0.010 A 
HETATM    3  C   UNK N   1      35.710  10.776  18.496  0.00  0.00     0.040 A 
HETATM    4  C   UNK N   1      35.360  11.532  19.619  0.00  0.00     0.098 A 
HETATM    5  C   UNK N   1      35.043  12.889  19.480  0.00  0.00     0.099 A 
HETATM    6  C   UNK N   1      35.076  13.481  18.216  0.00  0.00     0.046 A 
ENDROOT
BRANCH   1   7
HETATM    7  C   UNK N   1      35.471  13.335  15.718  0.00  0.00     0.064 C 
BRANCH   7   8
HETATM    8  C   UNK N   1      36.852  13.278  15.086  0.00  0.00     0.168 C 
BRANCH   8   9
HETATM    9  O   UNK N   1      37.596  14.379  15.498  0.00  0.00    -0.401 OA
HETATM   10  H   UNK N   1      37.164  15.241  15.610  0.00  0.00     0.209 HD
ENDBRANCH   8   9
ENDBRANCH   7   8
ENDBRANCH   1   7
BRANCH   5  11
HETATM   11  O   UNK N   1      34.706  13.626  20.549  0.00  0.00    -0.358 OA
HETATM   12  H   UNK N   1      33.857  14.019  20.600  0.00  0.00     0.217 HD
ENDBRANCH   5  11
BRANCH   4  13
HETATM   13  O   UNK N   1      35.331  10.951  20.831  0.00  0.00    -0.358 OA
HETATM   14  H   UNK N   1      35.784  11.346  21.550  0.00  0.00     0.217 HD
ENDBRANCH   4  13
TORSDOF 5
ENDMDL
MODEL 6
REMARK VINA RESULT:      -4.8      9.248     11.221
REMARK  5 active torsions:
REMARK  status: ('A' for Active; 'I' for Inactive)
REMARK    1  A    between atoms: C_9  and  C_1 
REMARK    2  A    between atoms: O_7  and  C_4 
REMARK    3  A    between atoms: O_8  and  C_5 
REMARK    4  A    between atoms: C_10  and  C_9 
REMARK    5  A    between atoms: O_11  and  C_10 
ROOT
HETATM    1  C   UNK N   1      30.914  17.442   7.571  0.00  0.00    -0.053 A 
HETATM    2  C   UNK N   1      30.909  18.126   8.791  0.00  0.00     0.010 A 
HETATM    3  C   UNK N   1      29.698  18.438   9.415  0.00  0.00     0.040 A 
HETATM    4  C   UNK N   1      28.488  18.067   8.822  0.00  0.00     0.098 A 
HETATM    5  C   UNK N   1      28.486  17.382   7.601  0.00  0.00     0.099 A 
HETATM    6  C   UNK N   1      29.697  17.072   6.980  0.00  0.00     0.046 A 
ENDROOT
BRANCH   1   7
HETATM    7  C   UNK N   1      32.229  17.123   6.929  0.00  0.00     0.064 C 
BRANCH   7   8
HETATM    8  C   UNK N   1      33.389  17.905   7.524  0.00  0.00     0.168 C 
BRANCH   8   9
HETATM    9  O   UNK N   1      34.412  18.004   6.586  0.00  0.00    -0.401 OA
HETATM   10  H   UNK N   1      34.939  17.221   6.360  0.00  0.00     0.209 HD
ENDBRANCH   8   9
ENDBRANCH   7   8
ENDBRANCH   1   7
BRANCH   5  11
HETATM   11  O   UNK N   1      27.331  17.019   7.020  0.00  0.00    -0.358 OA
HETATM   12  H   UNK N   1      27.210  16.140   6.724  0.00  0.00     0.217 HD
ENDBRANCH   5  11
BRANCH   4  13
HETATM   13  O   UNK N   1      27.327  18.371   9.429  0.00  0.00    -0.358 OA
HETATM   14  H   UNK N   1      26.893  17.729   9.956  0.00  0.00     0.217 HD
ENDBRANCH   4  13
TORSDOF 5
ENDMDL
MODEL 7
REMARK VINA RESULT:      -4.8      7.303     10.597
REMARK  5 active torsions:
REMARK  status: ('A' for Active; 'I' for Inactive)
REMARK    1  A    between atoms: C_9  and  C_1 
REMARK    2  A    between atoms: O_7  and  C_4 
REMARK    3  A    between atoms: O_8  and  C_5 
REMARK    4  A    between atoms: C_10  and  C_9 
REMARK    5  A    between atoms: O_11  and  C_10 
ROOT
HETATM    1  C   UNK N   1      22.347  13.133   9.454  0.00  0.00    -0.053 A 
HETATM    2  C   UNK N   1      21.216  12.759  10.186  0.00  0.00     0.010 A 
HETATM    3  C   UNK N   1      21.357  12.161  11.442  0.00  0.00     0.040 A 
HETATM    4  C   UNK N   1      22.631  11.935  11.970  0.00  0.00     0.098 A 
HETATM    5  C   UNK N   1      23.769  12.307  11.243  0.00  0.00     0.099 A 
HETATM    6  C   UNK N   1      23.624  12.903   9.989  0.00  0.00     0.046 A 
ENDROOT
BRANCH   1   7
HETATM    7  C   UNK N   1      22.161  13.771   8.112  0.00  0.00     0.064 C 
BRANCH   7   8
HETATM    8  C   UNK N   1      20.727  14.206   7.853  0.00  0.00     0.168 C 
BRANCH   8   9
HETATM    9  O   UNK N   1      20.182  13.426   6.838  0.00  0.00    -0.401 OA
HETATM   10  H   UNK N   1      19.624  13.836   6.158  0.00  0.00     0.209 HD
ENDBRANCH   8   9
ENDBRANCH   7   8
ENDBRANCH   1   7
BRANCH   5  11
HETATM   11  O   UNK N   1      24.998  12.095  11.739  0.00  0.00    -0.358 OA
HETATM   12  H   UNK N   1      25.753  12.301  11.225  0.00  0.00     0.217 HD
ENDBRANCH   5  11
BRANCH   4  13
HETATM   13  O   UNK N   1      22.759  11.360  13.179  0.00  0.00    -0.358 OA
HETATM   14  H   UNK N   1      22.041  11.373  13.781  0.00  0.00     0.217 HD
ENDBRANCH   4  13
TORSDOF 5
ENDMDL
MODEL 8
REMARK VINA RESULT:      -4.7     10.292     11.858
REMARK  5 active torsions:
REMARK  status: ('A' for Active; 'I' for Inactive)
REMARK    1  A    between atoms: C_9  and  C_1 
REMARK    2  A    between atoms: O_7  and  C_4 
REMARK    3  A    between atoms: O_8  and  C_5 
REMARK    4  A    between atoms: C_10  and  C_9 
REMARK    5  A    between atoms: O_11  and  C_10 
ROOT
HETATM    1  C   UNK N   1      30.553  17.390   7.553  0.00  0.00    -0.053 A 
HETATM    2  C   UNK N   1      30.950  17.251   6.220  0.00  0.00     0.010 A 
HETATM    3  C   UNK N   1      32.306  17.309   5.882  0.00  0.00     0.040 A 
HETATM    4  C   UNK N   1      33.268  17.506   6.877  0.00  0.00     0.098 A 
HETATM    5  C   UNK N   1      32.876  17.646   8.214  0.00  0.00     0.099 A 
HETATM    6  C   UNK N   1      31.522  17.588   8.548  0.00  0.00     0.046 A 
ENDROOT
BRANCH   1   7
HETATM    7  C   UNK N   1      29.093  17.323   7.882  0.00  0.00     0.064 C 
BRANCH   7   8
HETATM    8  C   UNK N   1      28.776  17.804   9.289  0.00  0.00     0.168 C 
BRANCH   8   9
HETATM    9  O   UNK N   1      27.444  18.200   9.355  0.00  0.00    -0.401 OA
HETATM   10  H   UNK N   1      27.032  18.375  10.216  0.00  0.00     0.209 HD
ENDBRANCH   8   9
ENDBRANCH   7   8
ENDBRANCH   1   7
BRANCH   5  11
HETATM   11  O   UNK N   1      33.790  17.837   9.178  0.00  0.00    -0.358 OA
HETATM   12  H   UNK N   1      34.432  17.178   9.353  0.00  0.00     0.217 HD
ENDBRANCH   5  11
BRANCH   4  13
HETATM   13  O   UNK N   1      34.569  17.561   6.543  0.00  0.00    -0.358 OA
HETATM   14  H   UNK N   1      34.855  17.223   5.717  0.00  0.00     0.217 HD
ENDBRANCH   4  13
TORSDOF 5
ENDMDL
MODEL 9
REMARK VINA RESULT:      -4.6     10.144     11.696
REMARK  5 active torsions:
REMARK  status: ('A' for Active; 'I' for Inactive)
REMARK    1  A    between atoms: C_9  and  C_1 
REMARK    2  A    between atoms: O_7  and  C_4 
REMARK    3  A    between atoms: O_8  and  C_5 
REMARK    4  A    between atoms: C_10  and  C_9 
REMARK    5  A    between atoms: O_11  and  C_10 
ROOT
HETATM    1  C   UNK N   1      30.533  17.450   7.730  0.00  0.00    -0.053 A 
HETATM    2  C   UNK N   1      31.445  17.950   8.665  0.00  0.00     0.010 A 
HETATM    3  C   UNK N   1      32.793  18.092   8.324  0.00  0.00     0.040 A 
HETATM    4  C   UNK N   1      33.235  17.733   7.048  0.00  0.00     0.098 A 
HETATM    5  C   UNK N   1      32.327  17.232   6.107  0.00  0.00     0.099 A 
HETATM    6  C   UNK N   1      30.981  17.092   6.450  0.00  0.00     0.046 A 
ENDROOT
BRANCH   1   7
HETATM    7  C   UNK N   1      29.096  17.311   8.127  0.00  0.00     0.064 C 
BRANCH   7   8
HETATM    8  C   UNK N   1      28.537  18.560   8.789  0.00  0.00     0.168 C 
BRANCH   8   9
HETATM    9  O   UNK N   1      27.317  18.262   9.389  0.00  0.00    -0.401 OA
HETATM   10  H   UNK N   1      27.279  17.621  10.117  0.00  0.00     0.209 HD
ENDBRANCH   8   9
ENDBRANCH   7   8
ENDBRANCH   1   7
BRANCH   5  11
HETATM   11  O   UNK N   1      32.738  16.883   4.877  0.00  0.00    -0.358 OA
HETATM   12  H   UNK N   1      32.690  17.500   4.174  0.00  0.00     0.217 HD
ENDBRANCH   5  11
BRANCH   4  13
HETATM   13  O   UNK N   1      34.534  17.873   6.728  0.00  0.00    -0.358 OA
HETATM   14  H   UNK N   1      34.929  18.722   6.738  0.00  0.00     0.217 HD
ENDBRANCH   4  13
TORSDOF 5
ENDMDL
