MODEL 1
REMARK VINA RESULT:      -7.7      0.000      0.000
REMARK  6 active torsions:
REMARK  status: ('A' for Active; 'I' for Inactive)
REMARK    1  A    between atoms: N_9  and  C_14 
REMARK    2  A    between atoms: C_14  and  C_15 
REMARK    3  A    between atoms: C_15  and  C_16 
REMARK    4  A    between atoms: C_16  and  C_17 
REMARK    5  A    between atoms: C_17  and  N_18 
REMARK    6  A    between atoms: C_21  and  C_24 
ROOT
HETATM    1  C   UNK N   1      20.769  16.506   3.214  0.00  0.00     0.022 C 
ENDROOT
BRANCH   1   2
HETATM    2  C   UNK N   1      21.088  17.502   4.322  0.00  0.00     0.133 C 
BRANCH   2   3
HETATM    3  N   UNK N   1      22.149  18.405   3.902  0.00  0.00    -0.302 N 
HETATM    4  C   UNK N   1      23.445  18.032   4.180  0.00  0.00     0.261 C 
HETATM    5  C   UNK N   1      24.678  18.832   3.967  0.00  0.00     0.066 A 
HETATM    6  O   UNK N   1      23.621  16.930   4.698  0.00  0.00    -0.267 OA
HETATM    7  C   UNK N   1      24.809  20.010   3.195  0.00  0.00     0.090 A 
HETATM    8  C   UNK N   1      25.834  18.335   4.607  0.00  0.00     0.020 A 
HETATM    9  C   UNK N   1      26.066  20.621   3.085  0.00  0.00     0.038 A 
HETATM   10  O   UNK N   1      23.811  20.606   2.526  0.00  0.00    -0.319 OA
HETATM   11  C   UNK N   1      27.184  20.113   3.739  0.00  0.00     0.003 A 
HETATM   12  C   UNK N   1      27.067  18.966   4.508  0.00  0.00     0.001 A 
HETATM   13  C   UNK N   1      22.476  20.526   2.654  0.00  0.00     0.185 C 
HETATM   14  C   UNK N   1      21.715  19.619   3.259  0.00  0.00     0.131 C 
HETATM   15 Cl   UNK N   1      19.983  19.966   3.167  0.00  0.00    -0.062 Cl
ENDBRANCH   2   3
ENDBRANCH   1   2
BRANCH   1  16
HETATM   16  C   UNK N   1      20.137  15.243   3.788  0.00  0.00     0.032 C 
BRANCH  16  17
HETATM   17  C   UNK N   1      21.083  14.612   4.810  0.00  0.00     0.273 C 
BRANCH  17  18
HETATM   18  N   UNK N   1      20.411  13.977   5.950  0.00  0.00     0.092 N 
HETATM   19  C   UNK N   1      20.448  14.842   7.136  0.00  0.00     0.277 C 
HETATM   20  C   UNK N   1      21.765  14.687   7.876  0.00  0.00     0.070 C 
HETATM   21  C   UNK N   1      21.934  13.250   8.270  0.00  0.00    -0.032 C 
HETATM   22  C   UNK N   1      21.508  12.280   7.452  0.00  0.00     0.012 C 
HETATM   23  C   UNK N   1      20.780  12.560   6.165  0.00  0.00     0.300 C 
BRANCH  21  24
HETATM   24  C   UNK N   1      22.341  12.876   9.636  0.00  0.00     0.038 A 
HETATM   25  C   UNK N   1      21.371  12.595  10.606  0.00  0.00     0.030 A 
HETATM   26  C   UNK N   1      21.767  12.077  11.839  0.00  0.00     0.004 A 
HETATM   27  C   UNK N   1      23.120  11.857  12.098  0.00  0.00     0.017 A 
HETATM   28  C   UNK N   1      24.063  12.172  11.119  0.00  0.00     0.088 A 
HETATM   29  N   UNK N   1      23.658  12.654   9.915  0.00  0.00    -0.365 N 
ATOM     30  HN  UNK N   1      24.357  12.855   9.200  1.00  0.00     0.165 HD
ENDBRANCH  21  24
ENDBRANCH  17  18
ENDBRANCH  16  17
ENDBRANCH   1  16
TORSDOF 6
ENDMDL
MODEL 2
REMARK VINA RESULT:      -7.7     10.306     14.168
REMARK  6 active torsions:
REMARK  status: ('A' for Active; 'I' for Inactive)
REMARK    1  A    between atoms: N_9  and  C_14 
REMARK    2  A    between atoms: C_14  and  C_15 
REMARK    3  A    between atoms: C_15  and  C_16 
REMARK    4  A    between atoms: C_16  and  C_17 
REMARK    5  A    between atoms: C_17  and  N_18 
REMARK    6  A    between atoms: C_21  and  C_24 
ROOT
HETATM    1  C   UNK N   1      34.543  13.558   8.755  0.00  0.00     0.022 C 
ENDROOT
BRANCH   1   2
HETATM    2  C   UNK N   1      35.877  13.356   9.461  0.00  0.00     0.133 C 
BRANCH   2   3
HETATM    3  N   UNK N   1      35.695  13.366  10.905  0.00  0.00    -0.302 N 
HETATM    4  C   UNK N   1      35.292  12.192  11.500  0.00  0.00     0.261 C 
HETATM    5  C   UNK N   1      34.924  11.985  12.924  0.00  0.00     0.066 A 
HETATM    6  O   UNK N   1      35.184  11.199  10.783  0.00  0.00    -0.267 OA
HETATM    7  C   UNK N   1      35.167  12.863  14.006  0.00  0.00     0.090 A 
HETATM    8  C   UNK N   1      34.269  10.765  13.203  0.00  0.00     0.020 A 
HETATM    9  C   UNK N   1      34.768  12.487  15.297  0.00  0.00     0.038 A 
HETATM   10  O   UNK N   1      35.778  14.052  13.908  0.00  0.00    -0.319 OA
HETATM   11  C   UNK N   1      34.113  11.284  15.537  0.00  0.00     0.003 A 
HETATM   12  C   UNK N   1      33.858  10.420  14.483  0.00  0.00     0.001 A 
HETATM   13  C   UNK N   1      35.986  14.868  12.861  0.00  0.00     0.185 C 
HETATM   14  C   UNK N   1      35.934  14.630  11.553  0.00  0.00     0.131 C 
HETATM   15 Cl   UNK N   1      36.275  16.052  10.557  0.00  0.00    -0.062 Cl
ENDBRANCH   2   3
ENDBRANCH   1   2
BRANCH   1  16
HETATM   16  C   UNK N   1      34.751  13.817   7.267  0.00  0.00     0.032 C 
BRANCH  16  17
HETATM   17  C   UNK N   1      35.364  15.203   7.066  0.00  0.00     0.273 C 
BRANCH  17  18
HETATM   18  N   UNK N   1      34.462  16.183   6.449  0.00  0.00     0.092 N 
HETATM   19  C   UNK N   1      34.308  17.371   7.299  0.00  0.00     0.277 C 
HETATM   20  C   UNK N   1      33.256  17.136   8.368  0.00  0.00     0.070 C 
HETATM   21  C   UNK N   1      31.956  16.794   7.704  0.00  0.00    -0.032 C 
HETATM   22  C   UNK N   1      31.953  16.056   6.587  0.00  0.00     0.012 C 
HETATM   23  C   UNK N   1      33.215  15.606   5.903  0.00  0.00     0.300 C 
BRANCH  21  24
HETATM   24  C   UNK N   1      30.698  17.445   8.109  0.00  0.00     0.038 A 
HETATM   25  C   UNK N   1      29.541  17.282   7.337  0.00  0.00     0.030 A 
HETATM   26  C   UNK N   1      28.323  17.757   7.821  0.00  0.00     0.004 A 
HETATM   27  C   UNK N   1      28.270  18.400   9.058  0.00  0.00     0.017 A 
HETATM   28  C   UNK N   1      29.446  18.569   9.790  0.00  0.00     0.088 A 
HETATM   29  N   UNK N   1      30.619  18.079   9.315  0.00  0.00    -0.365 N 
ATOM     30  HN  UNK N   1      31.465  18.187   9.874  1.00  0.00     0.165 HD
ENDBRANCH  21  24
ENDBRANCH  17  18
ENDBRANCH  16  17
ENDBRANCH   1  16
TORSDOF 6
ENDMDL
MODEL 3
REMARK VINA RESULT:      -7.5     12.317     16.756
REMARK  6 active torsions:
REMARK  status: ('A' for Active; 'I' for Inactive)
REMARK    1  A    between atoms: N_9  and  C_14 
REMARK    2  A    between atoms: C_14  and  C_15 
REMARK    3  A    between atoms: C_15  and  C_16 
REMARK    4  A    between atoms: C_16  and  C_17 
REMARK    5  A    between atoms: C_17  and  N_18 
REMARK    6  A    between atoms: C_21  and  C_24 
ROOT
HETATM    1  C   UNK N   1      36.740  11.380  12.419  0.00  0.00     0.022 C 
ENDROOT
BRANCH   1   2
HETATM    2  C   UNK N   1      35.314  11.191  12.919  0.00  0.00     0.133 C 
BRANCH   2   3
HETATM    3  N   UNK N   1      35.303  10.985  14.359  0.00  0.00    -0.302 N 
HETATM    4  C   UNK N   1      35.088  12.087  15.155  0.00  0.00     0.261 C 
HETATM    5  C   UNK N   1      35.154  12.155  16.637  0.00  0.00     0.066 A 
HETATM    6  O   UNK N   1      34.849  13.156  14.594  0.00  0.00    -0.267 OA
HETATM    7  C   UNK N   1      35.177  11.068  17.541  0.00  0.00     0.090 A 
HETATM    8  C   UNK N   1      35.184  13.460  17.177  0.00  0.00     0.020 A 
HETATM    9  C   UNK N   1      35.215  11.324  18.920  0.00  0.00     0.038 A 
HETATM   10  O   UNK N   1      35.152   9.775  17.189  0.00  0.00    -0.319 OA
HETATM   11  C   UNK N   1      35.257  12.621  19.420  0.00  0.00     0.003 A 
HETATM   12  C   UNK N   1      35.246  13.695  18.544  0.00  0.00     0.001 A 
HETATM   13  C   UNK N   1      35.443   9.156  16.033  0.00  0.00     0.185 C 
HETATM   14  C   UNK N   1      35.549   9.634  14.796  0.00  0.00     0.131 C 
HETATM   15 Cl   UNK N   1      35.975   8.409  13.593  0.00  0.00    -0.062 Cl
ENDBRANCH   2   3
ENDBRANCH   1   2
BRANCH   1  16
HETATM   16  C   UNK N   1      36.770  12.292  11.198  0.00  0.00     0.032 C 
BRANCH  16  17
HETATM   17  C   UNK N   1      36.809  13.753  11.646  0.00  0.00     0.273 C 
BRANCH  17  18
HETATM   18  N   UNK N   1      36.766  14.727  10.550  0.00  0.00     0.092 N 
HETATM   19  C   UNK N   1      36.019  15.930  10.938  0.00  0.00     0.277 C 
HETATM   20  C   UNK N   1      34.526  15.721  10.756  0.00  0.00     0.070 C 
HETATM   21  C   UNK N   1      34.255  15.375   9.322  0.00  0.00    -0.032 C 
HETATM   22  C   UNK N   1      35.126  14.617   8.644  0.00  0.00     0.012 C 
HETATM   23  C   UNK N   1      36.429  14.148   9.231  0.00  0.00     0.300 C 
BRANCH  21  24
HETATM   24  C   UNK N   1      33.179  16.040   8.567  0.00  0.00     0.038 A 
HETATM   25  C   UNK N   1      32.637  15.430   7.430  0.00  0.00     0.030 A 
HETATM   26  C   UNK N   1      31.508  15.984   6.828  0.00  0.00     0.004 A 
HETATM   27  C   UNK N   1      30.939  17.144   7.355  0.00  0.00     0.017 A 
HETATM   28  C   UNK N   1      31.519  17.741   8.475  0.00  0.00     0.088 A 
HETATM   29  N   UNK N   1      32.604  17.175   9.062  0.00  0.00    -0.365 N 
ATOM     30  HN  UNK N   1      33.001  17.608   9.896  1.00  0.00     0.165 HD
ENDBRANCH  21  24
ENDBRANCH  17  18
ENDBRANCH  16  17
ENDBRANCH   1  16
TORSDOF 6
ENDMDL
MODEL 4
REMARK VINA RESULT:      -7.5     13.975     16.828
REMARK  6 active torsions:
REMARK  status: ('A' for Active; 'I' for Inactive)
REMARK    1  A    between atoms: N_9  and  C_14 
REMARK    2  A    between atoms: C_14  and  C_15 
REMARK    3  A    between atoms: C_15  and  C_16 
REMARK    4  A    between atoms: C_16  and  C_17 
REMARK    5  A    between atoms: C_17  and  N_18 
REMARK    6  A    between atoms: C_21  and  C_24 
ROOT
HETATM    1  C   UNK N   1      25.677  27.620  -5.514  0.00  0.00     0.022 C 
ENDROOT
BRANCH   1   2
HETATM    2  C   UNK N   1      25.199  26.193  -5.275  0.00  0.00     0.133 C 
BRANCH   2   3
HETATM    3  N   UNK N   1      26.304  25.257  -5.415  0.00  0.00    -0.302 N 
HETATM    4  C   UNK N   1      26.846  24.740  -4.260  0.00  0.00     0.261 C 
HETATM    5  C   UNK N   1      28.046  23.873  -4.137  0.00  0.00     0.066 A 
HETATM    6  O   UNK N   1      26.314  25.048  -3.195  0.00  0.00    -0.267 OA
HETATM    7  C   UNK N   1      28.710  23.182  -5.178  0.00  0.00     0.090 A 
HETATM    8  C   UNK N   1      28.552  23.731  -2.827  0.00  0.00     0.020 A 
HETATM    9  C   UNK N   1      29.820  22.382  -4.869  0.00  0.00     0.038 A 
HETATM   10  O   UNK N   1      28.354  23.211  -6.470  0.00  0.00    -0.319 OA
HETATM   11  C   UNK N   1      30.303  22.273  -3.569  0.00  0.00     0.003 A 
HETATM   12  C   UNK N   1      29.668  22.955  -2.543  0.00  0.00     0.001 A 
HETATM   13  C   UNK N   1      27.603  24.076  -7.171  0.00  0.00     0.185 C 
HETATM   14  C   UNK N   1      26.730  24.994  -6.766  0.00  0.00     0.131 C 
HETATM   15 Cl   UNK N   1      25.997  25.912  -8.089  0.00  0.00    -0.062 Cl
ENDBRANCH   2   3
ENDBRANCH   1   2
BRANCH   1  16
HETATM   16  C   UNK N   1      25.834  28.366  -4.194  0.00  0.00     0.032 C 
BRANCH  16  17
HETATM   17  C   UNK N   1      26.644  29.643  -4.417  0.00  0.00     0.273 C 
BRANCH  17  18
HETATM   18  N   UNK N   1      28.068  29.526  -4.083  0.00  0.00     0.092 N 
HETATM   19  C   UNK N   1      28.904  29.609  -5.288  0.00  0.00     0.277 C 
HETATM   20  C   UNK N   1      28.995  28.258  -5.975  0.00  0.00     0.070 C 
HETATM   21  C   UNK N   1      29.563  27.260  -5.010  0.00  0.00    -0.032 C 
HETATM   22  C   UNK N   1      29.243  27.331  -3.712  0.00  0.00     0.012 C 
HETATM   23  C   UNK N   1      28.387  28.430  -3.142  0.00  0.00     0.300 C 
BRANCH  21  24
HETATM   24  C   UNK N   1      30.650  26.348  -5.408  0.00  0.00     0.038 A 
HETATM   25  C   UNK N   1      31.599  25.932  -4.466  0.00  0.00     0.030 A 
HETATM   26  C   UNK N   1      32.514  24.939  -4.810  0.00  0.00     0.004 A 
HETATM   27  C   UNK N   1      32.486  24.380  -6.088  0.00  0.00     0.017 A 
HETATM   28  C   UNK N   1      31.543  24.836  -7.011  0.00  0.00     0.088 A 
HETATM   29  N   UNK N   1      30.644  25.787  -6.652  0.00  0.00    -0.365 N 
ATOM     30  HN  UNK N   1      29.944  26.091  -7.329  1.00  0.00     0.165 HD
ENDBRANCH  21  24
ENDBRANCH  17  18
ENDBRANCH  16  17
ENDBRANCH   1  16
TORSDOF 6
ENDMDL
MODEL 5
REMARK VINA RESULT:      -7.4     11.583     15.684
REMARK  6 active torsions:
REMARK  status: ('A' for Active; 'I' for Inactive)
REMARK    1  A    between atoms: N_9  and  C_14 
REMARK    2  A    between atoms: C_14  and  C_15 
REMARK    3  A    between atoms: C_15  and  C_16 
REMARK    4  A    between atoms: C_16  and  C_17 
REMARK    5  A    between atoms: C_17  and  N_18 
REMARK    6  A    between atoms: C_21  and  C_24 
ROOT
HETATM    1  C   UNK N   1      35.955  13.078  10.687  0.00  0.00     0.022 C 
ENDROOT
BRANCH   1   2
HETATM    2  C   UNK N   1      37.046  13.238  11.738  0.00  0.00     0.133 C 
BRANCH   2   3
HETATM    3  N   UNK N   1      36.744  12.432  12.912  0.00  0.00    -0.302 N 
HETATM    4  C   UNK N   1      36.188  13.074  13.995  0.00  0.00     0.261 C 
HETATM    5  C   UNK N   1      35.907  12.501  15.336  0.00  0.00     0.066 A 
HETATM    6  O   UNK N   1      35.918  14.268  13.871  0.00  0.00    -0.267 OA
HETATM    7  C   UNK N   1      35.895  11.133  15.694  0.00  0.00     0.090 A 
HETATM    8  C   UNK N   1      35.613  13.446  16.343  0.00  0.00     0.020 A 
HETATM    9  C   UNK N   1      35.582  10.772  17.013  0.00  0.00     0.038 A 
HETATM   10  O   UNK N   1      36.150  10.117  14.858  0.00  0.00    -0.319 OA
HETATM   11  C   UNK N   1      35.309  11.729  17.986  0.00  0.00     0.003 A 
HETATM   12  C   UNK N   1      35.329  13.073  17.650  0.00  0.00     0.001 A 
HETATM   13  C   UNK N   1      36.786  10.070  13.675  0.00  0.00     0.185 C 
HETATM   14  C   UNK N   1      37.092  11.037  12.815  0.00  0.00     0.131 C 
HETATM   15 Cl   UNK N   1      37.962  10.469  11.384  0.00  0.00    -0.062 Cl
ENDBRANCH   2   3
ENDBRANCH   1   2
BRANCH   1  16
HETATM   16  C   UNK N   1      35.286  14.415  10.394  0.00  0.00     0.032 C 
BRANCH  16  17
HETATM   17  C   UNK N   1      35.694  14.902   9.004  0.00  0.00     0.273 C 
BRANCH  17  18
HETATM   18  N   UNK N   1      34.596  14.958   8.031  0.00  0.00     0.092 N 
HETATM   19  C   UNK N   1      34.440  16.310   7.483  0.00  0.00     0.277 C 
HETATM   20  C   UNK N   1      33.608  17.177   8.411  0.00  0.00     0.070 C 
HETATM   21  C   UNK N   1      32.268  16.532   8.605  0.00  0.00    -0.032 C 
HETATM   22  C   UNK N   1      32.174  15.198   8.669  0.00  0.00     0.012 C 
HETATM   23  C   UNK N   1      33.354  14.286   8.474  0.00  0.00     0.300 C 
BRANCH  21  24
HETATM   24  C   UNK N   1      31.023  17.311   8.490  0.00  0.00     0.038 A 
HETATM   25  C   UNK N   1      30.296  17.302   7.294  0.00  0.00     0.030 A 
HETATM   26  C   UNK N   1      29.037  17.899   7.253  0.00  0.00     0.004 A 
HETATM   27  C   UNK N   1      28.521  18.511   8.397  0.00  0.00     0.017 A 
HETATM   28  C   UNK N   1      29.283  18.525   9.566  0.00  0.00     0.088 A 
HETATM   29  N   UNK N   1      30.497  17.917   9.594  0.00  0.00    -0.365 N 
ATOM     30  HN  UNK N   1      31.031  17.913  10.463  1.00  0.00     0.165 HD
ENDBRANCH  21  24
ENDBRANCH  17  18
ENDBRANCH  16  17
ENDBRANCH   1  16
TORSDOF 6
ENDMDL
MODEL 6
REMARK VINA RESULT:      -7.4     13.659     16.436
REMARK  6 active torsions:
REMARK  status: ('A' for Active; 'I' for Inactive)
REMARK    1  A    between atoms: N_9  and  C_14 
REMARK    2  A    between atoms: C_14  and  C_15 
REMARK    3  A    between atoms: C_15  and  C_16 
REMARK    4  A    between atoms: C_16  and  C_17 
REMARK    5  A    between atoms: C_17  and  N_18 
REMARK    6  A    between atoms: C_21  and  C_24 
ROOT
HETATM    1  C   UNK N   1      29.167  26.525  -4.075  0.00  0.00     0.022 C 
ENDROOT
BRANCH   1   2
HETATM    2  C   UNK N   1      29.246  25.247  -4.901  0.00  0.00     0.133 C 
BRANCH   2   3
HETATM    3  N   UNK N   1      30.004  24.229  -4.191  0.00  0.00    -0.302 N 
HETATM    4  C   UNK N   1      31.276  23.958  -4.641  0.00  0.00     0.261 C 
HETATM    5  C   UNK N   1      32.191  22.888  -4.166  0.00  0.00     0.066 A 
HETATM    6  O   UNK N   1      31.711  24.644  -5.565  0.00  0.00    -0.267 OA
HETATM    7  C   UNK N   1      32.061  22.113  -2.990  0.00  0.00     0.090 A 
HETATM    8  C   UNK N   1      33.310  22.645  -4.993  0.00  0.00     0.020 A 
HETATM    9  C   UNK N   1      33.042  21.158  -2.687  0.00  0.00     0.038 A 
HETATM   10  O   UNK N   1      31.062  22.223  -2.103  0.00  0.00    -0.319 OA
HETATM   11  C   UNK N   1      34.127  20.933  -3.529  0.00  0.00     0.003 A 
HETATM   12  C   UNK N   1      34.259  21.677  -4.690  0.00  0.00     0.001 A 
HETATM   13  C   UNK N   1      29.829  22.748  -2.205  0.00  0.00     0.185 C 
HETATM   14  C   UNK N   1      29.316  23.590  -3.098  0.00  0.00     0.131 C 
HETATM   15 Cl   UNK N   1      27.614  23.980  -2.812  0.00  0.00    -0.062 Cl
ENDBRANCH   2   3
ENDBRANCH   1   2
BRANCH   1  16
HETATM   16  C   UNK N   1      28.673  27.690  -4.926  0.00  0.00     0.032 C 
BRANCH  16  17
HETATM   17  C   UNK N   1      27.175  27.893  -4.702  0.00  0.00     0.273 C 
BRANCH  17  18
HETATM   18  N   UNK N   1      26.338  27.595  -5.870  0.00  0.00     0.092 N 
HETATM   19  C   UNK N   1      25.233  26.696  -5.517  0.00  0.00     0.277 C 
HETATM   20  C   UNK N   1      25.690  25.249  -5.525  0.00  0.00     0.070 C 
HETATM   21  C   UNK N   1      26.221  24.916  -6.888  0.00  0.00    -0.032 C 
HETATM   22  C   UNK N   1      26.900  25.838  -7.582  0.00  0.00     0.012 C 
HETATM   23  C   UNK N   1      27.097  27.247  -7.091  0.00  0.00     0.300 C 
BRANCH  21  24
HETATM   24  C   UNK N   1      25.814  23.683  -7.585  0.00  0.00     0.038 A 
HETATM   25  C   UNK N   1      26.253  23.437  -8.892  0.00  0.00     0.030 A 
HETATM   26  C   UNK N   1      26.005  22.195  -9.474  0.00  0.00     0.004 A 
HETATM   27  C   UNK N   1      25.313  21.217  -8.758  0.00  0.00     0.017 A 
HETATM   28  C   UNK N   1      24.868  21.505  -7.467  0.00  0.00     0.088 A 
HETATM   29  N   UNK N   1      25.139  22.711  -6.906  0.00  0.00    -0.365 N 
ATOM     30  HN  UNK N   1      24.829  22.897  -5.953  1.00  0.00     0.165 HD
ENDBRANCH  21  24
ENDBRANCH  17  18
ENDBRANCH  16  17
ENDBRANCH   1  16
TORSDOF 6
ENDMDL
MODEL 7
REMARK VINA RESULT:      -7.4     13.745     16.081
REMARK  6 active torsions:
REMARK  status: ('A' for Active; 'I' for Inactive)
REMARK    1  A    between atoms: N_9  and  C_14 
REMARK    2  A    between atoms: C_14  and  C_15 
REMARK    3  A    between atoms: C_15  and  C_16 
REMARK    4  A    between atoms: C_16  and  C_17 
REMARK    5  A    between atoms: C_17  and  N_18 
REMARK    6  A    between atoms: C_21  and  C_24 
ROOT
HETATM    1  C   UNK N   1      25.181  25.856  -5.889  0.00  0.00     0.022 C 
ENDROOT
BRANCH   1   2
HETATM    2  C   UNK N   1      25.828  26.685  -4.786  0.00  0.00     0.133 C 
BRANCH   2   3
HETATM    3  N   UNK N   1      27.201  26.256  -4.567  0.00  0.00    -0.302 N 
HETATM    4  C   UNK N   1      27.395  25.036  -3.959  0.00  0.00     0.261 C 
HETATM    5  C   UNK N   1      28.684  24.443  -3.521  0.00  0.00     0.066 A 
HETATM    6  O   UNK N   1      26.397  24.362  -3.708  0.00  0.00    -0.267 OA
HETATM    7  C   UNK N   1      29.985  24.869  -3.876  0.00  0.00     0.090 A 
HETATM    8  C   UNK N   1      28.569  23.324  -2.666  0.00  0.00     0.020 A 
HETATM    9  C   UNK N   1      31.094  24.167  -3.383  0.00  0.00     0.038 A 
HETATM   10  O   UNK N   1      30.261  25.908  -4.677  0.00  0.00    -0.319 OA
HETATM   11  C   UNK N   1      30.949  23.076  -2.532  0.00  0.00     0.003 A 
HETATM   12  C   UNK N   1      29.679  22.656  -2.167  0.00  0.00     0.001 A 
HETATM   13  C   UNK N   1      29.530  26.972  -5.046  0.00  0.00     0.185 C 
HETATM   14  C   UNK N   1      28.218  27.183  -4.994  0.00  0.00     0.131 C 
HETATM   15 Cl   UNK N   1      27.728  28.775  -5.593  0.00  0.00    -0.062 Cl
ENDBRANCH   2   3
ENDBRANCH   1   2
BRANCH   1  16
HETATM   16  C   UNK N   1      25.800  26.181  -7.243  0.00  0.00     0.032 C 
BRANCH  16  17
HETATM   17  C   UNK N   1      25.543  25.030  -8.216  0.00  0.00     0.273 C 
BRANCH  17  18
HETATM   18  N   UNK N   1      26.756  24.432  -8.787  0.00  0.00     0.092 N 
HETATM   19  C   UNK N   1      26.827  22.995  -8.496  0.00  0.00     0.277 C 
HETATM   20  C   UNK N   1      27.405  22.752  -7.114  0.00  0.00     0.070 C 
HETATM   21  C   UNK N   1      28.770  23.369  -7.043  0.00  0.00    -0.032 C 
HETATM   22  C   UNK N   1      29.013  24.522  -7.679  0.00  0.00     0.012 C 
HETATM   23  C   UNK N   1      27.991  25.209  -8.543  0.00  0.00     0.300 C 
BRANCH  21  24
HETATM   24  C   UNK N   1      29.917  22.624  -6.494  0.00  0.00     0.038 A 
HETATM   25  C   UNK N   1      29.708  21.433  -5.787  0.00  0.00     0.030 A 
HETATM   26  C   UNK N   1      30.804  20.652  -5.425  0.00  0.00     0.004 A 
HETATM   27  C   UNK N   1      32.094  21.069  -5.756  0.00  0.00     0.017 A 
HETATM   28  C   UNK N   1      32.268  22.273  -6.438  0.00  0.00     0.088 A 
HETATM   29  N   UNK N   1      31.188  23.010  -6.805  0.00  0.00    -0.365 N 
ATOM     30  HN  UNK N   1      31.330  23.875  -7.326  1.00  0.00     0.165 HD
ENDBRANCH  21  24
ENDBRANCH  17  18
ENDBRANCH  16  17
ENDBRANCH   1  16
TORSDOF 6
ENDMDL
MODEL 8
REMARK VINA RESULT:      -7.4     14.149     16.808
REMARK  6 active torsions:
REMARK  status: ('A' for Active; 'I' for Inactive)
REMARK    1  A    between atoms: N_9  and  C_14 
REMARK    2  A    between atoms: C_14  and  C_15 
REMARK    3  A    between atoms: C_15  and  C_16 
REMARK    4  A    between atoms: C_16  and  C_17 
REMARK    5  A    between atoms: C_17  and  N_18 
REMARK    6  A    between atoms: C_21  and  C_24 
ROOT
HETATM    1  C   UNK N   1      28.059  22.369  -6.590  0.00  0.00     0.022 C 
ENDROOT
BRANCH   1   2
HETATM    2  C   UNK N   1      28.882  23.518  -6.024  0.00  0.00     0.133 C 
BRANCH   2   3
HETATM    3  N   UNK N   1      29.825  23.028  -5.030  0.00  0.00    -0.302 N 
HETATM    4  C   UNK N   1      30.977  22.432  -5.490  0.00  0.00     0.261 C 
HETATM    5  C   UNK N   1      32.022  21.749  -4.685  0.00  0.00     0.066 A 
HETATM    6  O   UNK N   1      31.165  22.419  -6.706  0.00  0.00    -0.267 OA
HETATM    7  C   UNK N   1      32.191  21.807  -3.282  0.00  0.00     0.090 A 
HETATM    8  C   UNK N   1      32.940  20.974  -5.426  0.00  0.00     0.020 A 
HETATM    9  C   UNK N   1      33.258  21.113  -2.691  0.00  0.00     0.038 A 
HETATM   10  O   UNK N   1      31.409  22.498  -2.440  0.00  0.00    -0.319 OA
HETATM   11  C   UNK N   1      34.138  20.347  -3.448  0.00  0.00     0.003 A 
HETATM   12  C   UNK N   1      33.976  20.273  -4.822  0.00  0.00     0.001 A 
HETATM   13  C   UNK N   1      30.162  22.980  -2.571  0.00  0.00     0.185 C 
HETATM   14  C   UNK N   1      29.426  23.200  -3.657  0.00  0.00     0.131 C 
HETATM   15 Cl   UNK N   1      27.813  23.838  -3.307  0.00  0.00    -0.062 Cl
ENDBRANCH   2   3
ENDBRANCH   1   2
BRANCH   1  16
HETATM   16  C   UNK N   1      26.584  22.747  -6.670  0.00  0.00     0.032 C 
BRANCH  16  17
HETATM   17  C   UNK N   1      26.392  23.857  -7.704  0.00  0.00     0.273 C 
BRANCH  17  18
HETATM   18  N   UNK N   1      25.555  24.974  -7.250  0.00  0.00     0.092 N 
HETATM   19  C   UNK N   1      25.919  26.222  -7.931  0.00  0.00     0.277 C 
HETATM   20  C   UNK N   1      27.103  26.884  -7.249  0.00  0.00     0.070 C 
HETATM   21  C   UNK N   1      26.749  27.153  -5.816  0.00  0.00    -0.032 C 
HETATM   22  C   UNK N   1      25.989  26.280  -5.143  0.00  0.00     0.012 C 
HETATM   23  C   UNK N   1      25.391  25.056  -5.782  0.00  0.00     0.300 C 
BRANCH  21  24
HETATM   24  C   UNK N   1      27.015  28.463  -5.198  0.00  0.00     0.038 A 
HETATM   25  C   UNK N   1      28.019  29.293  -5.712  0.00  0.00     0.030 A 
HETATM   26  C   UNK N   1      28.143  30.596  -5.230  0.00  0.00     0.004 A 
HETATM   27  C   UNK N   1      27.278  31.054  -4.235  0.00  0.00     0.017 A 
HETATM   28  C   UNK N   1      26.305  30.193  -3.727  0.00  0.00     0.088 A 
HETATM   29  N   UNK N   1      26.183  28.935  -4.224  0.00  0.00    -0.365 N 
ATOM     30  HN  UNK N   1      25.450  28.326  -3.861  1.00  0.00     0.165 HD
ENDBRANCH  21  24
ENDBRANCH  17  18
ENDBRANCH  16  17
ENDBRANCH   1  16
TORSDOF 6
ENDMDL
MODEL 9
REMARK VINA RESULT:      -7.4     12.259     17.001
REMARK  6 active torsions:
REMARK  status: ('A' for Active; 'I' for Inactive)
REMARK    1  A    between atoms: N_9  and  C_14 
REMARK    2  A    between atoms: C_14  and  C_15 
REMARK    3  A    between atoms: C_15  and  C_16 
REMARK    4  A    between atoms: C_16  and  C_17 
REMARK    5  A    between atoms: C_17  and  N_18 
REMARK    6  A    between atoms: C_21  and  C_24 
ROOT
HETATM    1  C   UNK N   1      36.491  13.326  12.754  0.00  0.00     0.022 C 
ENDROOT
BRANCH   1   2
HETATM    2  C   UNK N   1      35.351  12.388  13.131  0.00  0.00     0.133 C 
BRANCH   2   3
HETATM    3  N   UNK N   1      35.621  11.747  14.409  0.00  0.00    -0.302 N 
HETATM    4  C   UNK N   1      35.145  12.367  15.542  0.00  0.00     0.261 C 
HETATM    5  C   UNK N   1      35.394  11.979  16.954  0.00  0.00     0.066 A 
HETATM    6  O   UNK N   1      34.463  13.380  15.392  0.00  0.00    -0.267 OA
HETATM    7  C   UNK N   1      35.934  10.758  17.421  0.00  0.00     0.090 A 
HETATM    8  C   UNK N   1      35.035  12.950  17.915  0.00  0.00     0.020 A 
HETATM    9  C   UNK N   1      36.076  10.556  18.802  0.00  0.00     0.038 A 
HETATM   10  O   UNK N   1      36.320   9.740  16.641  0.00  0.00    -0.319 OA
HETATM   11  C   UNK N   1      35.724  11.537  19.724  0.00  0.00     0.003 A 
HETATM   12  C   UNK N   1      35.205  12.742  19.278  0.00  0.00     0.001 A 
HETATM   13  C   UNK N   1      36.644   9.684  15.338  0.00  0.00     0.185 C 
HETATM   14  C   UNK N   1      36.393  10.532  14.345  0.00  0.00     0.131 C 
HETATM   15 Cl   UNK N   1      37.050  10.017  12.785  0.00  0.00    -0.062 Cl
ENDBRANCH   2   3
ENDBRANCH   1   2
BRANCH   1  16
HETATM   16  C   UNK N   1      35.963  14.721  12.440  0.00  0.00     0.032 C 
BRANCH  16  17
HETATM   17  C   UNK N   1      35.953  14.940  10.927  0.00  0.00     0.273 C 
BRANCH  17  18
HETATM   18  N   UNK N   1      34.684  15.448  10.394  0.00  0.00     0.092 N 
HETATM   19  C   UNK N   1      34.038  14.456   9.525  0.00  0.00     0.277 C 
HETATM   20  C   UNK N   1      34.607  14.517   8.119  0.00  0.00     0.070 C 
HETATM   21  C   UNK N   1      34.407  15.900   7.574  0.00  0.00    -0.032 C 
HETATM   22  C   UNK N   1      34.514  16.958   8.388  0.00  0.00     0.012 C 
HETATM   23  C   UNK N   1      34.752  16.829   9.868  0.00  0.00     0.300 C 
BRANCH  21  24
HETATM   24  C   UNK N   1      33.863  16.117   6.223  0.00  0.00     0.038 A 
HETATM   25  C   UNK N   1      33.400  17.383   5.845  0.00  0.00     0.030 A 
HETATM   26  C   UNK N   1      33.051  17.616   4.516  0.00  0.00     0.004 A 
HETATM   27  C   UNK N   1      33.151  16.585   3.580  0.00  0.00     0.017 A 
HETATM   28  C   UNK N   1      33.591  15.327   3.996  0.00  0.00     0.088 A 
HETATM   29  N   UNK N   1      33.950  15.125   5.289  0.00  0.00    -0.365 N 
ATOM     30  HN  UNK N   1      34.294  14.208   5.572  1.00  0.00     0.165 HD
ENDBRANCH  21  24
ENDBRANCH  17  18
ENDBRANCH  16  17
ENDBRANCH   1  16
TORSDOF 6
ENDMDL
