MODEL 1
REMARK VINA RESULT:      -7.8      0.000      0.000
REMARK  7 active torsions:
REMARK  status: ('A' for Active; 'I' for Inactive)
REMARK    1  A    between atoms: N_2  and  C_4 
REMARK    2  A    between atoms: C_4  and  C_7 
REMARK    3  A    between atoms: C_10  and  C_13 
REMARK       I    between atoms: C_13  and  N_15 
REMARK    4  A    between atoms: N_15  and  C_16 
REMARK    5  A    between atoms: C_19  and  O_33 
REMARK    6  A    between atoms: C_21  and  C_22 
REMARK       I    between atoms: C_22  and  N_24 
REMARK    7  A    between atoms: N_24  and  C_25 
ROOT
HETATM    1  C   UNK N   1      34.624  16.072  10.084  0.00  0.00     0.147 C 
HETATM    2  C   UNK N   1      35.438  15.980  11.226  0.00  0.00     0.006 C 
HETATM    3  C   UNK N   1      36.730  15.444  11.116  0.00  0.00     0.035 C 
HETATM    4  C   UNK N   1      37.097  14.776   9.937  0.00  0.00     0.068 C 
HETATM    5  C   UNK N   1      36.091  14.443   9.040  0.00  0.00     0.051 C 
HETATM    6  C   UNK N   1      34.793  14.948   9.221  0.00  0.00     0.039 C 
ENDROOT
BRANCH   1   7
HETATM    7  N   UNK N   1      35.007  17.316   9.493  0.00  0.00    -0.345 N 
HETATM    8  C   UNK N   1      34.485  18.095   8.509  0.00  0.00     0.252 C 
HETATM    9  O   UNK N   1      34.988  19.193   8.332  0.00  0.00    -0.268 OA
HETATM   10  H   UNK N   1      35.828  17.691   9.886  0.00  0.00     0.163 HD
BRANCH   8  11
HETATM   11  C   UNK N   1      33.341  17.713   7.661  0.00  0.00     0.032 A 
HETATM   12  C   UNK N   1      32.046  17.717   8.201  0.00  0.00     0.018 A 
HETATM   13  C   UNK N   1      30.946  17.415   7.397  0.00  0.00     0.016 A 
HETATM   14  C   UNK N   1      31.116  17.135   6.032  0.00  0.00     0.007 A 
HETATM   15  C   UNK N   1      32.413  17.133   5.509  0.00  0.00     0.016 A 
HETATM   16  C   UNK N   1      33.509  17.409   6.322  0.00  0.00     0.018 A 
BRANCH  14  17
HETATM   17  C   UNK N   1      29.921  16.860   5.177  0.00  0.00     0.106 C 
HETATM   18  N   UNK N   1      29.718  17.624   4.159  0.00  0.00    -0.385 N 
HETATM   19  H   UNK N   1      30.299  18.404   4.005  0.00  0.00     0.157 HD
ATOM     20  HN  UNK N   1      28.956  17.420   3.513  1.00  0.00     0.157 HD
BRANCH  17  21
HETATM   21  N   UNK N   1      29.009  15.773   5.418  0.00  0.00    -0.376 N 
HETATM   22  C   UNK N   1      29.408  14.422   5.116  0.00  0.00     0.150 C 
HETATM   23  C   UNK N   1      27.706  15.959   6.008  0.00  0.00     0.150 C 
ENDBRANCH  17  21
ENDBRANCH  14  17
ENDBRANCH   8  11
ENDBRANCH   1   7
BRANCH   6  24
HETATM   24  C   UNK N   1      33.644  13.986   8.976  0.00  0.00     0.255 C 
HETATM   25  O   UNK N   1      32.648  14.371   8.396  0.00  0.00    -0.268 OA
HETATM   26  N   UNK N   1      33.652  12.696   9.434  0.00  0.00    -0.309 N 
HETATM   27  H   UNK N   1      33.033  12.053   9.019  0.00  0.00     0.170 HD
BRANCH  26  28
HETATM   28  C   UNK N   1      34.500  12.229  10.474  0.00  0.00     0.107 A 
HETATM   29  C   UNK N   1      35.442  11.219  10.212  0.00  0.00     0.050 A 
HETATM   30  C   UNK N   1      36.182  10.679  11.259  0.00  0.00     0.029 A 
HETATM   31  C   UNK N   1      35.986  11.154  12.553  0.00  0.00     0.049 A 
HETATM   32  C   UNK N   1      35.078  12.195  12.775  0.00  0.00     0.113 A 
HETATM   33 Cl   UNK N   1      36.851  10.431  13.891  0.00  0.00    -0.083 Cl
HETATM   34  N   UNK N   1      34.362  12.712  11.739  0.00  0.00    -0.351 N 
ATOM     35  HN  UNK N   1      33.709  13.477  11.913  1.00  0.00     0.166 HD
ENDBRANCH  26  28
ENDBRANCH   6  24
BRANCH   4  36
HETATM   36  O   UNK N   1      38.353  14.326   9.718  0.00  0.00    -0.356 OA
HETATM   37  C   UNK N   1      38.825  13.143  10.235  0.00  0.00     0.210 C 
ENDBRANCH   4  36
TORSDOF 7
ENDMDL
MODEL 2
REMARK VINA RESULT:      -7.7     10.994     14.428
REMARK  7 active torsions:
REMARK  status: ('A' for Active; 'I' for Inactive)
REMARK    1  A    between atoms: N_2  and  C_4 
REMARK    2  A    between atoms: C_4  and  C_7 
REMARK    3  A    between atoms: C_10  and  C_13 
REMARK       I    between atoms: C_13  and  N_15 
REMARK    4  A    between atoms: N_15  and  C_16 
REMARK    5  A    between atoms: C_19  and  O_33 
REMARK    6  A    between atoms: C_21  and  C_22 
REMARK       I    between atoms: C_22  and  N_24 
REMARK    7  A    between atoms: N_24  and  C_25 
ROOT
HETATM    1  C   UNK N   1      22.196  16.136   5.367  0.00  0.00     0.147 C 
HETATM    2  C   UNK N   1      21.959  17.072   6.387  0.00  0.00     0.006 C 
HETATM    3  C   UNK N   1      21.434  18.333   6.064  0.00  0.00     0.035 C 
HETATM    4  C   UNK N   1      21.393  18.734   4.719  0.00  0.00     0.068 C 
HETATM    5  C   UNK N   1      22.111  17.986   3.796  0.00  0.00     0.051 C 
HETATM    6  C   UNK N   1      22.679  16.759   4.177  0.00  0.00     0.039 C 
ENDROOT
BRANCH   1   7
HETATM    7  N   UNK N   1      20.935  15.483   5.205  0.00  0.00    -0.345 N 
HETATM    8  C   UNK N   1      20.200  14.641   5.979  0.00  0.00     0.252 C 
HETATM    9  O   UNK N   1      19.072  14.365   5.600  0.00  0.00    -0.268 OA
HETATM   10  H   UNK N   1      20.503  15.689   4.344  0.00  0.00     0.163 HD
BRANCH   8  11
HETATM   11  C   UNK N   1      20.663  14.062   7.254  0.00  0.00     0.032 A 
HETATM   12  C   UNK N   1      20.377  14.720   8.459  0.00  0.00     0.018 A 
HETATM   13  C   UNK N   1      20.756  14.156   9.678  0.00  0.00     0.016 A 
HETATM   14  C   UNK N   1      21.400  12.909   9.717  0.00  0.00     0.007 A 
HETATM   15  C   UNK N   1      21.680  12.267   8.507  0.00  0.00     0.016 A 
HETATM   16  C   UNK N   1      21.322  12.846   7.293  0.00  0.00     0.018 A 
BRANCH  14  17
HETATM   17  C   UNK N   1      21.757  12.299  11.034  0.00  0.00     0.106 C 
HETATM   18  N   UNK N   1      20.800  11.835  11.763  0.00  0.00    -0.385 N 
HETATM   19  H   UNK N   1      19.865  11.953  11.482  0.00  0.00     0.157 HD
ATOM     20  HN  UNK N   1      21.015  11.346  12.632  1.00  0.00     0.157 HD
BRANCH  17  21
HETATM   21  N   UNK N   1      23.110  12.180  11.510  0.00  0.00    -0.376 N 
HETATM   22  C   UNK N   1      23.358  11.892  12.899  0.00  0.00     0.150 C 
HETATM   23  C   UNK N   1      24.257  12.284  10.642  0.00  0.00     0.150 C 
ENDBRANCH  17  21
ENDBRANCH  14  17
ENDBRANCH   8  11
ENDBRANCH   1   7
BRANCH   6  24
HETATM   24  C   UNK N   1      24.078  16.464   3.667  0.00  0.00     0.255 C 
HETATM   25  O   UNK N   1      24.941  17.316   3.745  0.00  0.00    -0.268 OA
HETATM   26  N   UNK N   1      24.407  15.281   3.059  0.00  0.00    -0.309 N 
HETATM   27  H   UNK N   1      25.359  15.038   3.006  0.00  0.00     0.170 HD
BRANCH  26  28
HETATM   28  C   UNK N   1      23.457  14.385   2.502  0.00  0.00     0.107 A 
HETATM   29  C   UNK N   1      22.963  14.602   1.204  0.00  0.00     0.050 A 
HETATM   30  C   UNK N   1      21.942  13.795   0.711  0.00  0.00     0.029 A 
HETATM   31  C   UNK N   1      21.429  12.776   1.508  0.00  0.00     0.049 A 
HETATM   32  C   UNK N   1      21.976  12.552   2.777  0.00  0.00     0.113 A 
HETATM   33 Cl   UNK N   1      20.093  11.804   0.934  0.00  0.00    -0.083 Cl
HETATM   34  N   UNK N   1      22.975  13.351   3.244  0.00  0.00    -0.351 N 
ATOM     35  HN  UNK N   1      23.370  13.171   4.167  1.00  0.00     0.166 HD
ENDBRANCH  26  28
ENDBRANCH   6  24
BRANCH   4  36
HETATM   36  O   UNK N   1      20.807  19.886   4.323  0.00  0.00    -0.356 OA
HETATM   37  C   UNK N   1      20.652  20.230   3.001  0.00  0.00     0.210 C 
ENDBRANCH   4  36
TORSDOF 7
ENDMDL
MODEL 3
REMARK VINA RESULT:      -7.7      1.466      1.894
REMARK  7 active torsions:
REMARK  status: ('A' for Active; 'I' for Inactive)
REMARK    1  A    between atoms: N_2  and  C_4 
REMARK    2  A    between atoms: C_4  and  C_7 
REMARK    3  A    between atoms: C_10  and  C_13 
REMARK       I    between atoms: C_13  and  N_15 
REMARK    4  A    between atoms: N_15  and  C_16 
REMARK    5  A    between atoms: C_19  and  O_33 
REMARK    6  A    between atoms: C_21  and  C_22 
REMARK       I    between atoms: C_22  and  N_24 
REMARK    7  A    between atoms: N_24  and  C_25 
ROOT
HETATM    1  C   UNK N   1      34.391  15.578   9.421  0.00  0.00     0.147 C 
HETATM    2  C   UNK N   1      35.113  16.011  10.546  0.00  0.00     0.006 C 
HETATM    3  C   UNK N   1      36.458  15.638  10.694  0.00  0.00     0.035 C 
HETATM    4  C   UNK N   1      36.988  14.640   9.861  0.00  0.00     0.068 C 
HETATM    5  C   UNK N   1      36.099  13.880   9.112  0.00  0.00     0.051 C 
HETATM    6  C   UNK N   1      34.745  14.248   9.043  0.00  0.00     0.039 C 
ENDROOT
BRANCH   1   7
HETATM    7  N   UNK N   1      34.691  16.560   8.427  0.00  0.00    -0.345 N 
HETATM    8  C   UNK N   1      33.937  17.399   7.669  0.00  0.00     0.252 C 
HETATM    9  O   UNK N   1      34.524  18.233   6.996  0.00  0.00    -0.268 OA
HETATM   10  H   UNK N   1      35.657  16.648   8.254  0.00  0.00     0.163 HD
BRANCH   8  11
HETATM   11  C   UNK N   1      32.464  17.385   7.624  0.00  0.00     0.032 A 
HETATM   12  C   UNK N   1      31.733  18.031   8.632  0.00  0.00     0.018 A 
HETATM   13  C   UNK N   1      30.340  18.079   8.574  0.00  0.00     0.016 A 
HETATM   14  C   UNK N   1      29.652  17.508   7.491  0.00  0.00     0.007 A 
HETATM   15  C   UNK N   1      30.394  16.866   6.495  0.00  0.00     0.016 A 
HETATM   16  C   UNK N   1      31.782  16.800   6.572  0.00  0.00     0.018 A 
BRANCH  14  17
HETATM   17  C   UNK N   1      28.162  17.610   7.422  0.00  0.00     0.106 C 
HETATM   18  N   UNK N   1      27.477  17.108   8.392  0.00  0.00    -0.385 N 
HETATM   19  H   UNK N   1      27.931  16.612   9.111  0.00  0.00     0.157 HD
ATOM     20  HN  UNK N   1      26.464  17.226   8.414  1.00  0.00     0.157 HD
BRANCH  17  21
HETATM   21  N   UNK N   1      27.463  18.263   6.348  0.00  0.00    -0.376 N 
HETATM   22  C   UNK N   1      27.434  19.701   6.280  0.00  0.00     0.150 C 
HETATM   23  C   UNK N   1      26.817  17.540   5.279  0.00  0.00     0.150 C 
ENDBRANCH  17  21
ENDBRANCH  14  17
ENDBRANCH   8  11
ENDBRANCH   1   7
BRANCH   6  24
HETATM   24  C   UNK N   1      33.726  13.127   9.126  0.00  0.00     0.255 C 
HETATM   25  O   UNK N   1      32.714  13.179   8.454  0.00  0.00    -0.268 OA
HETATM   26  N   UNK N   1      33.866  12.064   9.979  0.00  0.00    -0.309 N 
HETATM   27  H   UNK N   1      33.342  11.252   9.796  0.00  0.00     0.170 HD
BRANCH  26  28
HETATM   28  C   UNK N   1      34.724  12.065  11.112  0.00  0.00     0.107 A 
HETATM   29  C   UNK N   1      35.770  11.130  11.202  0.00  0.00     0.050 A 
HETATM   30  C   UNK N   1      36.526  11.055  12.368  0.00  0.00     0.029 A 
HETATM   31  C   UNK N   1      36.243  11.913  13.426  0.00  0.00     0.049 A 
HETATM   32  C   UNK N   1      35.228  12.866  13.288  0.00  0.00     0.113 A 
HETATM   33 Cl   UNK N   1      37.133  11.776  14.926  0.00  0.00    -0.083 Cl
HETATM   34  N   UNK N   1      34.497  12.928  12.140  0.00  0.00    -0.351 N 
ATOM     35  HN  UNK N   1      33.766  13.634  12.048  1.00  0.00     0.166 HD
ENDBRANCH  26  28
ENDBRANCH   6  24
BRANCH   4  36
HETATM   36  O   UNK N   1      38.297  14.304   9.873  0.00  0.00    -0.356 OA
HETATM   37  C   UNK N   1      38.739  13.026  10.125  0.00  0.00     0.210 C 
ENDBRANCH   4  36
TORSDOF 7
ENDMDL
MODEL 4
REMARK VINA RESULT:      -7.5     10.035     13.624
REMARK  7 active torsions:
REMARK  status: ('A' for Active; 'I' for Inactive)
REMARK    1  A    between atoms: N_2  and  C_4 
REMARK    2  A    between atoms: C_4  and  C_7 
REMARK    3  A    between atoms: C_10  and  C_13 
REMARK       I    between atoms: C_13  and  N_15 
REMARK    4  A    between atoms: N_15  and  C_16 
REMARK    5  A    between atoms: C_19  and  O_33 
REMARK    6  A    between atoms: C_21  and  C_22 
REMARK       I    between atoms: C_22  and  N_24 
REMARK    7  A    between atoms: N_24  and  C_25 
ROOT
HETATM    1  C   UNK N   1      22.373  16.025   5.187  0.00  0.00     0.147 C 
HETATM    2  C   UNK N   1      22.364  17.061   6.135  0.00  0.00     0.006 C 
HETATM    3  C   UNK N   1      22.033  18.366   5.736  0.00  0.00     0.035 C 
HETATM    4  C   UNK N   1      21.967  18.666   4.366  0.00  0.00     0.068 C 
HETATM    5  C   UNK N   1      22.488  17.740   3.472  0.00  0.00     0.051 C 
HETATM    6  C   UNK N   1      22.870  16.466   3.923  0.00  0.00     0.039 C 
ENDROOT
BRANCH   1   7
HETATM    7  N   UNK N   1      21.014  15.586   5.150  0.00  0.00    -0.345 N 
HETATM    8  C   UNK N   1      20.224  14.885   6.006  0.00  0.00     0.252 C 
HETATM    9  O   UNK N   1      19.037  14.792   5.731  0.00  0.00    -0.268 OA
HETATM   10  H   UNK N   1      20.547  15.849   4.324  0.00  0.00     0.163 HD
BRANCH   8  11
HETATM   11  C   UNK N   1      20.697  14.252   7.251  0.00  0.00     0.032 A 
HETATM   12  C   UNK N   1      20.535  14.920   8.473  0.00  0.00     0.018 A 
HETATM   13  C   UNK N   1      20.924  14.311   9.667  0.00  0.00     0.016 A 
HETATM   14  C   UNK N   1      21.454  13.011   9.664  0.00  0.00     0.007 A 
HETATM   15  C   UNK N   1      21.612  12.359   8.438  0.00  0.00     0.016 A 
HETATM   16  C   UNK N   1      21.246  12.982   7.248  0.00  0.00     0.018 A 
BRANCH  14  17
HETATM   17  C   UNK N   1      21.821  12.357  10.958  0.00  0.00     0.106 C 
HETATM   18  N   UNK N   1      20.871  11.870  11.680  0.00  0.00    -0.385 N 
HETATM   19  H   UNK N   1      19.933  11.998  11.410  0.00  0.00     0.157 HD
ATOM     20  HN  UNK N   1      21.092  11.352  12.529  1.00  0.00     0.157 HD
BRANCH  17  21
HETATM   21  N   UNK N   1      23.178  12.221  11.417  0.00  0.00    -0.376 N 
HETATM   22  C   UNK N   1      23.439  11.909  12.799  0.00  0.00     0.150 C 
HETATM   23  C   UNK N   1      24.317  12.331  10.540  0.00  0.00     0.150 C 
ENDBRANCH  17  21
ENDBRANCH  14  17
ENDBRANCH   8  11
ENDBRANCH   1   7
BRANCH   6  24
HETATM   24  C   UNK N   1      24.163  15.901   3.365  0.00  0.00     0.255 C 
HETATM   25  O   UNK N   1      24.222  14.730   3.044  0.00  0.00    -0.268 OA
HETATM   26  N   UNK N   1      25.307  16.647   3.254  0.00  0.00    -0.309 N 
HETATM   27  H   UNK N   1      26.010  16.329   2.644  0.00  0.00     0.170 HD
BRANCH  26  28
HETATM   28  C   UNK N   1      25.538  17.855   3.966  0.00  0.00     0.107 A 
HETATM   29  C   UNK N   1      25.501  19.087   3.291  0.00  0.00     0.050 A 
HETATM   30  C   UNK N   1      25.851  20.253   3.967  0.00  0.00     0.029 A 
HETATM   31  C   UNK N   1      26.224  20.183   5.306  0.00  0.00     0.049 A 
HETATM   32  C   UNK N   1      26.202  18.949   5.964  0.00  0.00     0.113 A 
HETATM   33 Cl   UNK N   1      26.742  21.627   6.146  0.00  0.00    -0.083 Cl
HETATM   34  N   UNK N   1      25.857  17.817   5.289  0.00  0.00    -0.351 N 
ATOM     35  HN  UNK N   1      25.837  16.925   5.783  1.00  0.00     0.166 HD
ENDBRANCH  26  28
ENDBRANCH   6  24
BRANCH   4  36
HETATM   36  O   UNK N   1      21.554  19.868   3.905  0.00  0.00    -0.356 OA
HETATM   37  C   UNK N   1      21.818  20.313   2.631  0.00  0.00     0.210 C 
ENDBRANCH   4  36
TORSDOF 7
ENDMDL
MODEL 5
REMARK VINA RESULT:      -7.3     15.130     17.711
REMARK  7 active torsions:
REMARK  status: ('A' for Active; 'I' for Inactive)
REMARK    1  A    between atoms: N_2  and  C_4 
REMARK    2  A    between atoms: C_4  and  C_7 
REMARK    3  A    between atoms: C_10  and  C_13 
REMARK       I    between atoms: C_13  and  N_15 
REMARK    4  A    between atoms: N_15  and  C_16 
REMARK    5  A    between atoms: C_19  and  O_33 
REMARK    6  A    between atoms: C_21  and  C_22 
REMARK       I    between atoms: C_22  and  N_24 
REMARK    7  A    between atoms: N_24  and  C_25 
ROOT
HETATM    1  C   UNK N   1      30.191  21.232  -4.837  0.00  0.00     0.147 C 
HETATM    2  C   UNK N   1      31.090  20.199  -5.150  0.00  0.00     0.006 C 
HETATM    3  C   UNK N   1      32.299  20.503  -5.795  0.00  0.00     0.035 C 
HETATM    4  C   UNK N   1      32.480  21.782  -6.345  0.00  0.00     0.068 C 
HETATM    5  C   UNK N   1      31.365  22.602  -6.462  0.00  0.00     0.051 C 
HETATM    6  C   UNK N   1      30.153  22.230  -5.857  0.00  0.00     0.039 C 
ENDROOT
BRANCH   1   7
HETATM    7  N   UNK N   1      30.653  21.715  -3.574  0.00  0.00    -0.345 N 
HETATM    8  C   UNK N   1      30.302  22.755  -2.773  0.00  0.00     0.252 C 
HETATM    9  O   UNK N   1      30.813  22.812  -1.666  0.00  0.00    -0.268 OA
HETATM   10  H   UNK N   1      31.387  21.174  -3.202  0.00  0.00     0.163 HD
BRANCH   8  11
HETATM   11  C   UNK N   1      29.331  23.801  -3.142  0.00  0.00     0.032 A 
HETATM   12  C   UNK N   1      27.967  23.605  -2.879  0.00  0.00     0.018 A 
HETATM   13  C   UNK N   1      27.040  24.608  -3.168  0.00  0.00     0.016 A 
HETATM   14  C   UNK N   1      27.464  25.838  -3.697  0.00  0.00     0.007 A 
HETATM   15  C   UNK N   1      28.826  26.018  -3.955  0.00  0.00     0.016 A 
HETATM   16  C   UNK N   1      29.742  25.004  -3.689  0.00  0.00     0.018 A 
BRANCH  14  17
HETATM   17  C   UNK N   1      26.463  26.918  -3.956  0.00  0.00     0.106 C 
HETATM   18  N   UNK N   1      25.937  27.510  -2.939  0.00  0.00    -0.385 N 
HETATM   19  H   UNK N   1      26.143  27.200  -2.028  0.00  0.00     0.157 HD
ATOM     20  HN  UNK N   1      25.309  28.301  -3.080  1.00  0.00     0.157 HD
BRANCH  17  21
HETATM   21  N   UNK N   1      26.084  27.344  -5.277  0.00  0.00    -0.376 N 
HETATM   22  C   UNK N   1      24.813  26.943  -5.822  0.00  0.00     0.150 C 
HETATM   23  C   UNK N   1      26.903  28.214  -6.085  0.00  0.00     0.150 C 
ENDBRANCH  17  21
ENDBRANCH  14  17
ENDBRANCH   8  11
ENDBRANCH   1   7
BRANCH   6  24
HETATM   24  C   UNK N   1      28.887  22.462  -6.661  0.00  0.00     0.255 C 
HETATM   25  O   UNK N   1      28.013  23.182  -6.218  0.00  0.00    -0.268 OA
HETATM   26  N   UNK N   1      28.651  21.843  -7.860  0.00  0.00    -0.309 N 
HETATM   27  H   UNK N   1      27.970  22.232  -8.456  0.00  0.00     0.170 HD
BRANCH  26  28
HETATM   28  C   UNK N   1      29.330  20.674  -8.296  0.00  0.00     0.107 A 
HETATM   29  C   UNK N   1      28.940  19.413  -7.812  0.00  0.00     0.050 A 
HETATM   30  C   UNK N   1      29.687  18.287  -8.144  0.00  0.00     0.029 A 
HETATM   31  C   UNK N   1      30.807  18.423  -8.959  0.00  0.00     0.049 A 
HETATM   32  C   UNK N   1      31.142  19.684  -9.466  0.00  0.00     0.113 A 
HETATM   33 Cl   UNK N   1      31.802  17.030  -9.320  0.00  0.00    -0.083 Cl
HETATM   34  N   UNK N   1      30.400  20.776  -9.131  0.00  0.00    -0.351 N 
ATOM     35  HN  UNK N   1      30.650  21.688  -9.514  1.00  0.00     0.166 HD
ENDBRANCH  26  28
ENDBRANCH   6  24
BRANCH   4  36
HETATM   36  O   UNK N   1      33.652  22.181  -6.886  0.00  0.00    -0.356 OA
HETATM   37  C   UNK N   1      34.680  22.707  -6.140  0.00  0.00     0.210 C 
ENDBRANCH   4  36
TORSDOF 7
ENDMDL
MODEL 6
REMARK VINA RESULT:      -7.2     15.399     19.249
REMARK  7 active torsions:
REMARK  status: ('A' for Active; 'I' for Inactive)
REMARK    1  A    between atoms: N_2  and  C_4 
REMARK    2  A    between atoms: C_4  and  C_7 
REMARK    3  A    between atoms: C_10  and  C_13 
REMARK       I    between atoms: C_13  and  N_15 
REMARK    4  A    between atoms: N_15  and  C_16 
REMARK    5  A    between atoms: C_19  and  O_33 
REMARK    6  A    between atoms: C_21  and  C_22 
REMARK       I    between atoms: C_22  and  N_24 
REMARK    7  A    between atoms: N_24  and  C_25 
ROOT
HETATM    1  C   UNK N   1      28.427  26.221  -4.650  0.00  0.00     0.147 C 
HETATM    2  C   UNK N   1      28.208  27.130  -5.699  0.00  0.00     0.006 C 
HETATM    3  C   UNK N   1      27.381  28.245  -5.490  0.00  0.00     0.035 C 
HETATM    4  C   UNK N   1      26.586  28.301  -4.334  0.00  0.00     0.068 C 
HETATM    5  C   UNK N   1      26.451  27.141  -3.582  0.00  0.00     0.051 C 
HETATM    6  C   UNK N   1      27.252  26.023  -3.866  0.00  0.00     0.039 C 
ENDROOT
BRANCH   1   7
HETATM    7  N   UNK N   1      29.516  26.796  -3.924  0.00  0.00    -0.345 N 
HETATM    8  C   UNK N   1      30.735  26.342  -3.531  0.00  0.00     0.252 C 
HETATM    9  O   UNK N   1      31.504  27.148  -3.032  0.00  0.00    -0.268 OA
HETATM   10  H   UNK N   1      29.345  27.726  -3.648  0.00  0.00     0.163 HD
BRANCH   8  11
HETATM   11  C   UNK N   1      31.198  24.951  -3.690  0.00  0.00     0.032 A 
HETATM   12  C   UNK N   1      32.227  24.662  -4.599  0.00  0.00     0.018 A 
HETATM   13  C   UNK N   1      32.717  23.361  -4.720  0.00  0.00     0.016 A 
HETATM   14  C   UNK N   1      32.210  22.330  -3.913  0.00  0.00     0.007 A 
HETATM   15  C   UNK N   1      31.183  22.633  -3.013  0.00  0.00     0.016 A 
HETATM   16  C   UNK N   1      30.681  23.928  -2.916  0.00  0.00     0.018 A 
BRANCH  14  17
HETATM   17  C   UNK N   1      32.780  20.953  -4.023  0.00  0.00     0.106 C 
HETATM   18  N   UNK N   1      33.369  20.458  -2.988  0.00  0.00    -0.385 N 
HETATM   19  H   UNK N   1      33.496  21.010  -2.183  0.00  0.00     0.157 HD
ATOM     20  HN  UNK N   1      33.702  19.495  -3.005  1.00  0.00     0.157 HD
BRANCH  17  21
HETATM   21  N   UNK N   1      32.678  20.148  -5.211  0.00  0.00    -0.376 N 
HETATM   22  C   UNK N   1      31.431  20.083  -5.929  0.00  0.00     0.150 C 
HETATM   23  C   UNK N   1      33.796  19.425  -5.767  0.00  0.00     0.150 C 
ENDBRANCH  17  21
ENDBRANCH  14  17
ENDBRANCH   8  11
ENDBRANCH   1   7
BRANCH   6  24
HETATM   24  C   UNK N   1      26.573  24.666  -3.826  0.00  0.00     0.255 C 
HETATM   25  O   UNK N   1      26.661  23.975  -2.829  0.00  0.00    -0.268 OA
HETATM   26  N   UNK N   1      25.899  24.147  -4.899  0.00  0.00    -0.309 N 
HETATM   27  H   UNK N   1      25.258  23.418  -4.735  0.00  0.00     0.170 HD
BRANCH  26  28
HETATM   28  C   UNK N   1      26.068  24.598  -6.235  0.00  0.00     0.107 A 
HETATM   29  C   UNK N   1      27.065  24.030  -7.048  0.00  0.00     0.050 A 
HETATM   30  C   UNK N   1      27.309  24.561  -8.311  0.00  0.00     0.029 A 
HETATM   31  C   UNK N   1      26.555  25.643  -8.757  0.00  0.00     0.049 A 
HETATM   32  C   UNK N   1      25.537  26.155  -7.946  0.00  0.00     0.113 A 
HETATM   33 Cl   UNK N   1      26.903  26.371 -10.309  0.00  0.00    -0.083 Cl
HETATM   34  N   UNK N   1      25.311  25.623  -6.712  0.00  0.00    -0.351 N 
ATOM     35  HN  UNK N   1      24.559  26.000  -6.134  1.00  0.00     0.166 HD
ENDBRANCH  26  28
ENDBRANCH   6  24
BRANCH   4  36
HETATM   36  O   UNK N   1      25.846  29.386  -4.013  0.00  0.00    -0.356 OA
HETATM   37  C   UNK N   1      26.400  30.609  -3.721  0.00  0.00     0.210 C 
ENDBRANCH   4  36
TORSDOF 7
ENDMDL
MODEL 7
REMARK VINA RESULT:      -7.1      3.260      5.865
REMARK  7 active torsions:
REMARK  status: ('A' for Active; 'I' for Inactive)
REMARK    1  A    between atoms: N_2  and  C_4 
REMARK    2  A    between atoms: C_4  and  C_7 
REMARK    3  A    between atoms: C_10  and  C_13 
REMARK       I    between atoms: C_13  and  N_15 
REMARK    4  A    between atoms: N_15  and  C_16 
REMARK    5  A    between atoms: C_19  and  O_33 
REMARK    6  A    between atoms: C_21  and  C_22 
REMARK       I    between atoms: C_22  and  N_24 
REMARK    7  A    between atoms: N_24  and  C_25 
ROOT
HETATM    1  C   UNK N   1      36.836  11.898  13.152  0.00  0.00     0.147 C 
HETATM    2  C   UNK N   1      37.586  11.804  14.336  0.00  0.00     0.006 C 
HETATM    3  C   UNK N   1      38.225  10.596  14.659  0.00  0.00     0.035 C 
HETATM    4  C   UNK N   1      37.901   9.436  13.938  0.00  0.00     0.068 C 
HETATM    5  C   UNK N   1      36.779   9.471  13.121  0.00  0.00     0.051 C 
HETATM    6  C   UNK N   1      36.127  10.691  12.875  0.00  0.00     0.039 C 
ENDROOT
BRANCH   1   7
HETATM    7  N   UNK N   1      37.808  12.237  12.160  0.00  0.00    -0.345 N 
HETATM    8  C   UNK N   1      37.805  13.054  11.074  0.00  0.00     0.252 C 
HETATM    9  O   UNK N   1      38.867  13.232  10.499  0.00  0.00    -0.268 OA
HETATM   10  H   UNK N   1      38.668  11.778  12.293  0.00  0.00     0.163 HD
BRANCH   8  11
HETATM   11  C   UNK N   1      36.614  13.758  10.563  0.00  0.00     0.032 A 
HETATM   12  C   UNK N   1      35.645  13.047   9.841  0.00  0.00     0.018 A 
HETATM   13  C   UNK N   1      34.485  13.684   9.399  0.00  0.00     0.016 A 
HETATM   14  C   UNK N   1      34.257  15.037   9.699  0.00  0.00     0.007 A 
HETATM   15  C   UNK N   1      35.233  15.733  10.417  0.00  0.00     0.016 A 
HETATM   16  C   UNK N   1      36.401  15.098  10.832  0.00  0.00     0.018 A 
BRANCH  14  17
HETATM   17  C   UNK N   1      32.986  15.690   9.258  0.00  0.00     0.106 C 
HETATM   18  N   UNK N   1      31.889  15.321   9.826  0.00  0.00    -0.385 N 
HETATM   19  H   UNK N   1      31.895  14.580  10.473  0.00  0.00     0.157 HD
ATOM     20  HN  UNK N   1      31.016  15.798   9.603  1.00  0.00     0.157 HD
BRANCH  17  21
HETATM   21  N   UNK N   1      32.934  16.724   8.259  0.00  0.00    -0.376 N 
HETATM   22  C   UNK N   1      33.757  16.625   7.081  0.00  0.00     0.150 C 
HETATM   23  C   UNK N   1      32.044  17.856   8.349  0.00  0.00     0.150 C 
ENDBRANCH  17  21
ENDBRANCH  14  17
ENDBRANCH   8  11
ENDBRANCH   1   7
BRANCH   6  24
HETATM   24  C   UNK N   1      34.609  10.670  12.884  0.00  0.00     0.255 C 
HETATM   25  O   UNK N   1      33.999  10.682  11.832  0.00  0.00    -0.268 OA
HETATM   26  N   UNK N   1      33.878  10.695  14.041  0.00  0.00    -0.309 N 
HETATM   27  H   UNK N   1      32.939  10.403  14.002  0.00  0.00     0.170 HD
BRANCH  26  28
HETATM   28  C   UNK N   1      34.394  11.118  15.296  0.00  0.00     0.107 A 
HETATM   29  C   UNK N   1      34.801  10.165  16.245  0.00  0.00     0.050 A 
HETATM   30  C   UNK N   1      35.187  10.581  17.516  0.00  0.00     0.029 A 
HETATM   31  C   UNK N   1      35.173  11.938  17.827  0.00  0.00     0.049 A 
HETATM   32  C   UNK N   1      34.811  12.866  16.846  0.00  0.00     0.113 A 
HETATM   33 Cl   UNK N   1      35.580  12.469  19.444  0.00  0.00    -0.083 Cl
HETATM   34  N   UNK N   1      34.436  12.442  15.607  0.00  0.00    -0.351 N 
ATOM     35  HN  UNK N   1      34.182  13.131  14.897  1.00  0.00     0.166 HD
ENDBRANCH  26  28
ENDBRANCH   6  24
BRANCH   4  36
HETATM   36  O   UNK N   1      38.548   8.263  14.120  0.00  0.00    -0.356 OA
HETATM   37  C   UNK N   1      38.809   7.738  15.364  0.00  0.00     0.210 C 
ENDBRANCH   4  36
TORSDOF 7
ENDMDL
MODEL 8
REMARK VINA RESULT:      -7.0      7.698     12.639
REMARK  7 active torsions:
REMARK  status: ('A' for Active; 'I' for Inactive)
REMARK    1  A    between atoms: N_2  and  C_4 
REMARK    2  A    between atoms: C_4  and  C_7 
REMARK    3  A    between atoms: C_10  and  C_13 
REMARK       I    between atoms: C_13  and  N_15 
REMARK    4  A    between atoms: N_15  and  C_16 
REMARK    5  A    between atoms: C_19  and  O_33 
REMARK    6  A    between atoms: C_21  and  C_22 
REMARK       I    between atoms: C_22  and  N_24 
REMARK    7  A    between atoms: N_24  and  C_25 
ROOT
HETATM    1  C   UNK N   1      22.864  17.795   4.816  0.00  0.00     0.147 C 
HETATM    2  C   UNK N   1      23.075  16.634   4.053  0.00  0.00     0.006 C 
HETATM    3  C   UNK N   1      22.120  16.247   3.100  0.00  0.00     0.035 C 
HETATM    4  C   UNK N   1      20.861  16.867   3.101  0.00  0.00     0.068 C 
HETATM    5  C   UNK N   1      20.520  17.644   4.201  0.00  0.00     0.051 C 
HETATM    6  C   UNK N   1      21.490  17.956   5.168  0.00  0.00     0.039 C 
ENDROOT
BRANCH   1   7
HETATM    7  N   UNK N   1      23.375  18.843   3.990  0.00  0.00    -0.345 N 
HETATM    8  C   UNK N   1      24.611  19.369   3.787  0.00  0.00     0.252 C 
HETATM    9  O   UNK N   1      24.736  20.187   2.889  0.00  0.00    -0.268 OA
HETATM   10  H   UNK N   1      22.677  19.280   3.449  0.00  0.00     0.163 HD
BRANCH   8  11
HETATM   11  C   UNK N   1      25.812  19.000   4.559  0.00  0.00     0.032 A 
HETATM   12  C   UNK N   1      26.313  19.883   5.527  0.00  0.00     0.018 A 
HETATM   13  C   UNK N   1      27.413  19.526   6.307  0.00  0.00     0.016 A 
HETATM   14  C   UNK N   1      28.015  18.266   6.156  0.00  0.00     0.007 A 
HETATM   15  C   UNK N   1      27.506  17.398   5.185  0.00  0.00     0.016 A 
HETATM   16  C   UNK N   1      26.424  17.771   4.392  0.00  0.00     0.018 A 
BRANCH  14  17
HETATM   17  C   UNK N   1      29.163  17.882   7.032  0.00  0.00     0.106 C 
HETATM   18  N   UNK N   1      30.217  17.399   6.470  0.00  0.00    -0.385 N 
HETATM   19  H   UNK N   1      30.223  17.225   5.501  0.00  0.00     0.157 HD
ATOM     20  HN  UNK N   1      31.045  17.197   7.030  1.00  0.00     0.157 HD
BRANCH  17  21
HETATM   21  N   UNK N   1      29.158  18.053   8.461  0.00  0.00    -0.376 N 
HETATM   22  C   UNK N   1      28.090  17.491   9.247  0.00  0.00     0.150 C 
HETATM   23  C   UNK N   1      30.216  18.728   9.173  0.00  0.00     0.150 C 
ENDBRANCH  17  21
ENDBRANCH  14  17
ENDBRANCH   8  11
ENDBRANCH   1   7
BRANCH   6  24
HETATM   24  C   UNK N   1      21.054  17.891   6.620  0.00  0.00     0.255 C 
HETATM   25  O   UNK N   1      20.956  18.916   7.267  0.00  0.00    -0.268 OA
HETATM   26  N   UNK N   1      20.814  16.708   7.266  0.00  0.00    -0.309 N 
HETATM   27  H   UNK N   1      20.278  16.731   8.092  0.00  0.00     0.170 HD
BRANCH  26  28
HETATM   28  C   UNK N   1      21.292  15.448   6.816  0.00  0.00     0.107 A 
HETATM   29  C   UNK N   1      20.436  14.581   6.116  0.00  0.00     0.050 A 
HETATM   30  C   UNK N   1      20.872  13.300   5.788  0.00  0.00     0.029 A 
HETATM   31  C   UNK N   1      22.154  12.898   6.150  0.00  0.00     0.049 A 
HETATM   32  C   UNK N   1      23.000  13.801   6.803  0.00  0.00     0.113 A 
HETATM   33 Cl   UNK N   1      22.687  11.266   5.815  0.00  0.00    -0.083 Cl
HETATM   34  N   UNK N   1      22.559  15.051   7.116  0.00  0.00    -0.351 N 
ATOM     35  HN  UNK N   1      23.190  15.702   7.584  1.00  0.00     0.166 HD
ENDBRANCH  26  28
ENDBRANCH   6  24
BRANCH   4  36
HETATM   36  O   UNK N   1      19.929  16.622   2.152  0.00  0.00    -0.356 OA
HETATM   37  C   UNK N   1      20.248  16.373   0.838  0.00  0.00     0.210 C 
ENDBRANCH   4  36
TORSDOF 7
ENDMDL
MODEL 9
REMARK VINA RESULT:      -7.0      3.215      7.757
REMARK  7 active torsions:
REMARK  status: ('A' for Active; 'I' for Inactive)
REMARK    1  A    between atoms: N_2  and  C_4 
REMARK    2  A    between atoms: C_4  and  C_7 
REMARK    3  A    between atoms: C_10  and  C_13 
REMARK       I    between atoms: C_13  and  N_15 
REMARK    4  A    between atoms: N_15  and  C_16 
REMARK    5  A    between atoms: C_19  and  O_33 
REMARK    6  A    between atoms: C_21  and  C_22 
REMARK       I    between atoms: C_22  and  N_24 
REMARK    7  A    between atoms: N_24  and  C_25 
ROOT
HETATM    1  C   UNK N   1      33.933  16.105   7.992  0.00  0.00     0.147 C 
HETATM    2  C   UNK N   1      33.226  16.969   7.139  0.00  0.00     0.006 C 
HETATM    3  C   UNK N   1      31.936  17.393   7.495  0.00  0.00     0.035 C 
HETATM    4  C   UNK N   1      31.274  16.756   8.556  0.00  0.00     0.068 C 
HETATM    5  C   UNK N   1      31.807  15.567   9.034  0.00  0.00     0.051 C 
HETATM    6  C   UNK N   1      33.075  15.142   8.603  0.00  0.00     0.039 C 
ENDROOT
BRANCH   1   7
HETATM    7  N   UNK N   1      34.564  16.988   8.922  0.00  0.00    -0.345 N 
HETATM    8  C   UNK N   1      35.355  16.804  10.012  0.00  0.00     0.252 C 
HETATM    9  O   UNK N   1      35.855  17.796  10.520  0.00  0.00    -0.268 OA
HETATM   10  H   UNK N   1      34.388  17.938   8.730  0.00  0.00     0.163 HD
BRANCH   8  11
HETATM   11  C   UNK N   1      35.667  15.491  10.605  0.00  0.00     0.032 A 
HETATM   12  C   UNK N   1      36.785  14.774  10.153  0.00  0.00     0.018 A 
HETATM   13  C   UNK N   1      37.129  13.557  10.743  0.00  0.00     0.016 A 
HETATM   14  C   UNK N   1      36.380  13.049  11.816  0.00  0.00     0.007 A 
HETATM   15  C   UNK N   1      35.267  13.773  12.254  0.00  0.00     0.016 A 
HETATM   16  C   UNK N   1      34.914  14.974  11.644  0.00  0.00     0.018 A 
BRANCH  14  17
HETATM   17  C   UNK N   1      36.791  11.767  12.466  0.00  0.00     0.106 C 
HETATM   18  N   UNK N   1      37.841  11.779  13.214  0.00  0.00    -0.385 N 
HETATM   19  H   UNK N   1      38.385  12.595  13.286  0.00  0.00     0.157 HD
ATOM     20  HN  UNK N   1      38.106  10.941  13.732  1.00  0.00     0.157 HD
BRANCH  17  21
HETATM   21  N   UNK N   1      36.059  10.536  12.320  0.00  0.00    -0.376 N 
HETATM   22  C   UNK N   1      35.591   9.837  13.489  0.00  0.00     0.150 C 
HETATM   23  C   UNK N   1      35.715   9.977  11.036  0.00  0.00     0.150 C 
ENDBRANCH  17  21
ENDBRANCH  14  17
ENDBRANCH   8  11
ENDBRANCH   1   7
BRANCH   6  24
HETATM   24  C   UNK N   1      33.234  13.664   8.295  0.00  0.00     0.255 C 
HETATM   25  O   UNK N   1      33.932  12.971   9.008  0.00  0.00    -0.268 OA
HETATM   26  N   UNK N   1      32.662  13.073   7.200  0.00  0.00    -0.309 N 
HETATM   27  H   UNK N   1      32.562  12.094   7.201  0.00  0.00     0.170 HD
BRANCH  26  28
HETATM   28  C   UNK N   1      32.203  13.789   6.062  0.00  0.00     0.107 A 
HETATM   29  C   UNK N   1      33.104  14.134   5.039  0.00  0.00     0.050 A 
HETATM   30  C   UNK N   1      32.677  14.942   3.989  0.00  0.00     0.029 A 
HETATM   31  C   UNK N   1      31.359  15.390   3.961  0.00  0.00     0.049 A 
HETATM   32  C   UNK N   1      30.474  14.989   4.967  0.00  0.00     0.113 A 
HETATM   33 Cl   UNK N   1      30.829  16.470   2.691  0.00  0.00    -0.083 Cl
HETATM   34  N   UNK N   1      30.908  14.198   5.987  0.00  0.00    -0.351 N 
ATOM     35  HN  UNK N   1      30.249  13.906   6.710  1.00  0.00     0.166 HD
ENDBRANCH  26  28
ENDBRANCH   6  24
BRANCH   4  36
HETATM   36  O   UNK N   1      30.077  17.178   9.023  0.00  0.00    -0.356 OA
HETATM   37  C   UNK N   1      29.846  18.470   9.431  0.00  0.00     0.210 C 
ENDBRANCH   4  36
TORSDOF 7
ENDMDL
