MODEL 1
REMARK VINA RESULT:     -10.2      0.000      0.000
REMARK  6 active torsions:
REMARK  status: ('A' for Active; 'I' for Inactive)
REMARK    1  A    between atoms: C_8  and  C_7 
REMARK    2  A    between atoms: C_10  and  N_34 
REMARK       I    between atoms: N_13  and  C_14 
REMARK       I    between atoms: C_14  and  N_16 
REMARK    3  A    between atoms: N_16  and  C_18 
REMARK    4  A    between atoms: C_18  and  C_20 
REMARK    5  A    between atoms: C_22  and  C_30 
REMARK    6  A    between atoms: C_24  and  C_26 
ROOT
HETATM    1  C   UNK N   1      27.253  16.111   5.102  0.00  0.00     0.124 C 
HETATM    2  C   UNK N   1      26.453  15.404   6.195  0.00  0.00     0.066 C 
HETATM    3  C   UNK N   1      25.494  14.372   5.611  0.00  0.00     0.227 C 
HETATM    4  C   UNK N   1      26.075  13.530   4.442  0.00  0.00     0.056 C 
HETATM    5  C   UNK N   1      26.675  14.443   3.386  0.00  0.00     0.130 C 
HETATM    6  N   UNK N   1      27.690  15.225   4.046  0.00  0.00    -0.325 N 
HETATM    7  C   UNK N   1      28.920  15.396   3.485  0.00  0.00     0.321 C 
HETATM    8  O   UNK N   1      29.081  15.110   2.306  0.00  0.00    -0.247 OA
HETATM    9  N   UNK N   1      29.958  15.954   4.195  0.00  0.00    -0.330 N 
HETATM   10  C   UNK N   1      31.014  16.581   3.430  0.00  0.00     0.155 C 
ENDROOT
BRANCH   1  11
HETATM   11  C   UNK N   1      26.825  17.456   4.543  0.00  0.00    -0.029 A 
HETATM   12  C   UNK N   1      27.790  18.475   4.549  0.00  0.00     0.013 A 
HETATM   13  C   UNK N   1      27.528  19.719   3.976  0.00  0.00     0.043 A 
HETATM   14  C   UNK N   1      26.291  19.965   3.383  0.00  0.00     0.117 A 
HETATM   15  C   UNK N   1      25.315  18.968   3.369  0.00  0.00     0.049 A 
HETATM   16  F   UNK N   1      26.041  21.169   2.816  0.00  0.00    -0.206 F 
HETATM   17  C   UNK N   1      25.568  17.713   3.938  0.00  0.00    -0.051 A 
HETATM   18  C   UNK N   1      24.494  16.688   3.857  0.00  0.00     0.049 C 
ENDBRANCH   1  11
BRANCH   9  19
HETATM   19  C   UNK N   1      30.395  15.317   5.455  0.00  0.00     0.117 C 
HETATM   20  C   UNK N   1      31.478  14.252   5.416  0.00  0.00     0.037 C 
BRANCH  19  21
HETATM   21  C   UNK N   1      30.680  16.404   6.465  0.00  0.00    -0.034 A 
HETATM   22  C   UNK N   1      29.709  16.927   7.345  0.00  0.00     0.025 A 
HETATM   23  C   UNK N   1      30.106  17.755   8.418  0.00  0.00     0.049 A 
HETATM   24  C   UNK N   1      31.472  18.034   8.604  0.00  0.00     0.032 A 
HETATM   25  C   UNK N   1      32.424  17.529   7.711  0.00  0.00     0.049 A 
HETATM   26  C   UNK N   1      32.015  16.727   6.662  0.00  0.00     0.025 A 
BRANCH  23  27
HETATM   27  C   UNK N   1      29.090  18.294   9.391  0.00  0.00     0.417 C 
HETATM   28  F   UNK N   1      29.723  19.074  10.340  0.00  0.00    -0.166 F 
HETATM   29  F   UNK N   1      28.427  17.261  10.034  0.00  0.00    -0.166 F 
HETATM   30  F   UNK N   1      28.154  19.062   8.722  0.00  0.00    -0.166 F 
ENDBRANCH  23  27
BRANCH  25  31
HETATM   31  C   UNK N   1      33.889  17.771   7.874  0.00  0.00     0.417 C 
HETATM   32  F   UNK N   1      34.538  17.469   6.690  0.00  0.00    -0.166 F 
HETATM   33  F   UNK N   1      34.151  19.084   8.215  0.00  0.00    -0.166 F 
HETATM   34  F   UNK N   1      34.372  16.942   8.873  0.00  0.00    -0.166 F 
ENDBRANCH  25  31
ENDBRANCH  19  21
ENDBRANCH   9  19
BRANCH   3  35
HETATM   35  N   UNK N   1      24.832  13.631   6.694  0.00  0.00     0.096 N 
HETATM   36  C   UNK N   1      23.767  14.553   7.127  0.00  0.00     0.292 C 
HETATM   37  C   UNK N   1      22.729  13.904   8.026  0.00  0.00     0.156 C 
HETATM   38  N   UNK N   1      22.351  12.687   7.380  0.00  0.00    -0.344 N 
HETATM   39  C   UNK N   1      23.313  11.676   7.128  0.00  0.00     0.116 A 
HETATM   40  C   UNK N   1      21.183  12.472   6.778  0.00  0.00     0.220 A 
HETATM   41  C   UNK N   1      24.359  12.306   6.223  0.00  0.00     0.298 C 
HETATM   42  C   UNK N   1      22.528  10.610   6.336  0.00  0.00     0.036 A 
HETATM   43  C   UNK N   1      21.130  11.196   6.040  0.00  0.00     0.105 A 
HETATM   44  O   UNK N   1      20.276  13.291   6.781  0.00  0.00    -0.273 OA
ENDBRANCH   3  35
TORSDOF 6
ENDMDL
MODEL 2
REMARK VINA RESULT:      -9.6      2.495      4.009
REMARK  6 active torsions:
REMARK  status: ('A' for Active; 'I' for Inactive)
REMARK    1  A    between atoms: C_8  and  C_7 
REMARK    2  A    between atoms: C_10  and  N_34 
REMARK       I    between atoms: N_13  and  C_14 
REMARK       I    between atoms: C_14  and  N_16 
REMARK    3  A    between atoms: N_16  and  C_18 
REMARK    4  A    between atoms: C_18  and  C_20 
REMARK    5  A    between atoms: C_22  and  C_30 
REMARK    6  A    between atoms: C_24  and  C_26 
ROOT
HETATM    1  C   UNK N   1      23.957  16.623   4.771  0.00  0.00     0.124 C 
HETATM    2  C   UNK N   1      23.131  15.858   5.804  0.00  0.00     0.066 C 
HETATM    3  C   UNK N   1      22.264  14.787   5.150  0.00  0.00     0.227 C 
HETATM    4  C   UNK N   1      22.958  13.994   4.008  0.00  0.00     0.056 C 
HETATM    5  C   UNK N   1      23.572  14.954   3.002  0.00  0.00     0.130 C 
HETATM    6  N   UNK N   1      24.503  15.777   3.733  0.00  0.00    -0.325 N 
HETATM    7  C   UNK N   1      25.754  16.019   3.250  0.00  0.00     0.321 C 
HETATM    8  O   UNK N   1      26.000  15.761   2.080  0.00  0.00    -0.247 OA
HETATM    9  N   UNK N   1      26.716  16.620   4.029  0.00  0.00    -0.330 N 
HETATM   10  C   UNK N   1      27.782  17.312   3.338  0.00  0.00     0.155 C 
ENDROOT
BRANCH   1  11
HETATM   11  C   UNK N   1      23.494  17.952   4.204  0.00  0.00    -0.029 A 
HETATM   12  C   UNK N   1      24.480  18.932   4.014  0.00  0.00     0.013 A 
HETATM   13  C   UNK N   1      24.175  20.154   3.415  0.00  0.00     0.043 A 
HETATM   14  C   UNK N   1      22.874  20.417   2.993  0.00  0.00     0.117 A 
HETATM   15  C   UNK N   1      21.876  19.458   3.174  0.00  0.00     0.049 A 
HETATM   16  F   UNK N   1      22.580  21.599   2.400  0.00  0.00    -0.206 F 
HETATM   17  C   UNK N   1      22.170  18.225   3.771  0.00  0.00    -0.051 A 
HETATM   18  C   UNK N   1      21.066  17.239   3.903  0.00  0.00     0.049 C 
ENDBRANCH   1  11
BRANCH   9  19
HETATM   19  C   UNK N   1      27.110  15.986   5.305  0.00  0.00     0.117 C 
HETATM   20  C   UNK N   1      28.159  14.888   5.301  0.00  0.00     0.037 C 
BRANCH  19  21
HETATM   21  C   UNK N   1      27.409  17.077   6.307  0.00  0.00    -0.034 A 
HETATM   22  C   UNK N   1      28.136  16.867   7.497  0.00  0.00     0.025 A 
HETATM   23  C   UNK N   1      28.584  17.973   8.252  0.00  0.00     0.049 A 
HETATM   24  C   UNK N   1      28.312  19.274   7.794  0.00  0.00     0.032 A 
HETATM   25  C   UNK N   1      27.569  19.471   6.624  0.00  0.00     0.049 A 
HETATM   26  C   UNK N   1      27.132  18.375   5.903  0.00  0.00     0.025 A 
BRANCH  23  27
HETATM   27  C   UNK N   1      29.393  17.773   9.506  0.00  0.00     0.417 C 
HETATM   28  F   UNK N   1      30.623  17.229   9.186  0.00  0.00    -0.166 F 
HETATM   29  F   UNK N   1      28.743  16.916  10.380  0.00  0.00    -0.166 F 
HETATM   30  F   UNK N   1      29.585  18.983  10.147  0.00  0.00    -0.166 F 
ENDBRANCH  23  27
BRANCH  25  31
HETATM   31  C   UNK N   1      27.273  20.830   6.077  0.00  0.00     0.417 C 
HETATM   32  F   UNK N   1      26.018  21.230   6.500  0.00  0.00    -0.166 F 
HETATM   33  F   UNK N   1      28.210  21.757   6.490  0.00  0.00    -0.166 F 
HETATM   34  F   UNK N   1      27.280  20.767   4.694  0.00  0.00    -0.166 F 
ENDBRANCH  25  31
ENDBRANCH  19  21
ENDBRANCH   9  19
BRANCH   3  35
HETATM   35  N   UNK N   1      21.578  13.996   6.181  0.00  0.00     0.096 N 
HETATM   36  C   UNK N   1      21.791  12.607   5.733  0.00  0.00     0.292 C 
HETATM   37  C   UNK N   1      21.454  11.570   6.789  0.00  0.00     0.156 C 
HETATM   38  N   UNK N   1      22.100  12.002   7.989  0.00  0.00    -0.344 N 
HETATM   39  C   UNK N   1      21.771  13.252   8.574  0.00  0.00     0.116 A 
HETATM   40  C   UNK N   1      23.171  11.426   8.531  0.00  0.00     0.220 A 
HETATM   41  C   UNK N   1      22.107  14.306   7.531  0.00  0.00     0.298 C 
HETATM   42  C   UNK N   1      22.752  13.374   9.758  0.00  0.00     0.036 A 
HETATM   43  C   UNK N   1      23.734  12.185   9.664  0.00  0.00     0.105 A 
HETATM   44  O   UNK N   1      23.674  10.408   8.081  0.00  0.00    -0.273 OA
ENDBRANCH   3  35
TORSDOF 6
ENDMDL
MODEL 3
REMARK VINA RESULT:      -9.5      2.602      4.168
REMARK  6 active torsions:
REMARK  status: ('A' for Active; 'I' for Inactive)
REMARK    1  A    between atoms: C_8  and  C_7 
REMARK    2  A    between atoms: C_10  and  N_34 
REMARK       I    between atoms: N_13  and  C_14 
REMARK       I    between atoms: C_14  and  N_16 
REMARK    3  A    between atoms: N_16  and  C_18 
REMARK    4  A    between atoms: C_18  and  C_20 
REMARK    5  A    between atoms: C_22  and  C_30 
REMARK    6  A    between atoms: C_24  and  C_26 
ROOT
HETATM    1  C   UNK N   1      23.797  15.566   4.593  0.00  0.00     0.124 C 
HETATM    2  C   UNK N   1      23.237  14.567   5.604  0.00  0.00     0.066 C 
HETATM    3  C   UNK N   1      22.859  13.246   4.940  0.00  0.00     0.227 C 
HETATM    4  C   UNK N   1      23.864  12.745   3.866  0.00  0.00     0.056 C 
HETATM    5  C   UNK N   1      24.153  13.850   2.864  0.00  0.00     0.130 C 
HETATM    6  N   UNK N   1      24.676  14.963   3.616  0.00  0.00    -0.325 N 
HETATM    7  C   UNK N   1      25.783  15.636   3.195  0.00  0.00     0.321 C 
HETATM    8  O   UNK N   1      26.181  15.471   2.050  0.00  0.00    -0.247 OA
HETATM    9  N   UNK N   1      26.413  16.553   4.005  0.00  0.00    -0.330 N 
HETATM   10  C   UNK N   1      27.199  17.576   3.351  0.00  0.00     0.155 C 
ENDROOT
BRANCH   1  11
HETATM   11  C   UNK N   1      22.923  16.631   3.956  0.00  0.00    -0.029 A 
HETATM   12  C   UNK N   1      21.910  16.181   3.097  0.00  0.00     0.013 A 
HETATM   13  C   UNK N   1      20.996  17.071   2.532  0.00  0.00     0.043 A 
HETATM   14  C   UNK N   1      21.080  18.431   2.822  0.00  0.00     0.117 A 
HETATM   15  C   UNK N   1      22.081  18.902   3.672  0.00  0.00     0.049 A 
HETATM   16  F   UNK N   1      20.185  19.294   2.284  0.00  0.00    -0.206 F 
HETATM   17  C   UNK N   1      23.003  18.017   4.248  0.00  0.00    -0.051 A 
HETATM   18  C   UNK N   1      24.023  18.584   5.169  0.00  0.00     0.049 C 
ENDBRANCH   1  11
BRANCH   9  19
HETATM   19  C   UNK N   1      26.926  16.120   5.323  0.00  0.00     0.117 C 
HETATM   20  C   UNK N   1      27.858  14.923   5.404  0.00  0.00     0.037 C 
BRANCH  19  21
HETATM   21  C   UNK N   1      27.465  17.332   6.046  0.00  0.00    -0.034 A 
HETATM   22  C   UNK N   1      27.108  18.658   5.723  0.00  0.00     0.025 A 
HETATM   23  C   UNK N   1      27.456  19.712   6.596  0.00  0.00     0.049 A 
HETATM   24  C   UNK N   1      28.142  19.421   7.787  0.00  0.00     0.032 A 
HETATM   25  C   UNK N   1      28.513  18.106   8.086  0.00  0.00     0.049 A 
HETATM   26  C   UNK N   1      28.170  17.088   7.216  0.00  0.00     0.025 A 
BRANCH  23  27
HETATM   27  C   UNK N   1      27.053  21.131   6.288  0.00  0.00     0.417 C 
HETATM   28  F   UNK N   1      28.146  21.966   6.424  0.00  0.00    -0.166 F 
HETATM   29  F   UNK N   1      26.057  21.558   7.152  0.00  0.00    -0.166 F 
HETATM   30  F   UNK N   1      26.573  21.218   4.994  0.00  0.00    -0.166 F 
ENDBRANCH  23  27
BRANCH  25  31
HETATM   31  C   UNK N   1      29.220  17.735   9.350  0.00  0.00     0.417 C 
HETATM   32  F   UNK N   1      28.386  16.949  10.127  0.00  0.00    -0.166 F 
HETATM   33  F   UNK N   1      30.388  17.043   9.092  0.00  0.00    -0.166 F 
HETATM   34  F   UNK N   1      29.525  18.890  10.049  0.00  0.00    -0.166 F 
ENDBRANCH  25  31
ENDBRANCH  19  21
ENDBRANCH   9  19
BRANCH   3  35
HETATM   35  N   UNK N   1      22.440  12.273   5.958  0.00  0.00     0.096 N 
HETATM   36  C   UNK N   1      23.709  11.633   6.351  0.00  0.00     0.292 C 
HETATM   37  C   UNK N   1      23.605  10.806   7.619  0.00  0.00     0.156 C 
HETATM   38  N   UNK N   1      22.936  11.629   8.577  0.00  0.00    -0.344 N 
HETATM   39  C   UNK N   1      21.622  12.101   8.328  0.00  0.00     0.116 A 
HETATM   40  C   UNK N   1      23.515  12.198   9.633  0.00  0.00     0.220 A 
HETATM   41  C   UNK N   1      21.706  12.938   7.062  0.00  0.00     0.298 C 
HETATM   42  C   UNK N   1      21.327  13.020   9.531  0.00  0.00     0.036 A 
HETATM   43  C   UNK N   1      22.632  13.139  10.348  0.00  0.00     0.105 A 
HETATM   44  O   UNK N   1      24.685  12.008   9.929  0.00  0.00    -0.273 OA
ENDBRANCH   3  35
TORSDOF 6
ENDMDL
MODEL 4
REMARK VINA RESULT:      -9.2      6.592     10.591
REMARK  6 active torsions:
REMARK  status: ('A' for Active; 'I' for Inactive)
REMARK    1  A    between atoms: C_8  and  C_7 
REMARK    2  A    between atoms: C_10  and  N_34 
REMARK       I    between atoms: N_13  and  C_14 
REMARK       I    between atoms: C_14  and  N_16 
REMARK    3  A    between atoms: N_16  and  C_18 
REMARK    4  A    between atoms: C_18  and  C_20 
REMARK    5  A    between atoms: C_22  and  C_30 
REMARK    6  A    between atoms: C_24  and  C_26 
ROOT
HETATM    1  C   UNK N   1      35.635  13.875   8.856  0.00  0.00     0.124 C 
HETATM    2  C   UNK N   1      35.286  12.521   9.472  0.00  0.00     0.066 C 
HETATM    3  C   UNK N   1      35.894  12.363  10.863  0.00  0.00     0.227 C 
HETATM    4  C   UNK N   1      35.824  13.633  11.754  0.00  0.00     0.056 C 
HETATM    5  C   UNK N   1      36.376  14.832  11.000  0.00  0.00     0.130 C 
HETATM    6  N   UNK N   1      35.585  14.967   9.803  0.00  0.00    -0.325 N 
HETATM    7  C   UNK N   1      35.106  16.181   9.412  0.00  0.00     0.321 C 
HETATM    8  O   UNK N   1      35.563  17.194   9.923  0.00  0.00    -0.247 OA
HETATM    9  N   UNK N   1      34.180  16.291   8.400  0.00  0.00    -0.330 N 
HETATM   10  C   UNK N   1      34.125  17.554   7.695  0.00  0.00     0.155 C 
ENDROOT
BRANCH   1  11
HETATM   11  C   UNK N   1      36.799  14.039   7.897  0.00  0.00    -0.029 A 
HETATM   12  C   UNK N   1      38.083  13.844   8.427  0.00  0.00     0.013 A 
HETATM   13  C   UNK N   1      39.214  13.881   7.611  0.00  0.00     0.043 A 
HETATM   14  C   UNK N   1      39.077  14.114   6.244  0.00  0.00     0.117 A 
HETATM   15  C   UNK N   1      37.810  14.314   5.695  0.00  0.00     0.049 A 
HETATM   16  F   UNK N   1      40.174  14.138   5.450  0.00  0.00    -0.206 F 
HETATM   17  C   UNK N   1      36.667  14.275   6.504  0.00  0.00    -0.051 A 
HETATM   18  C   UNK N   1      35.347  14.464   5.845  0.00  0.00     0.049 C 
ENDBRANCH   1  11
BRANCH   9  19
HETATM   19  C   UNK N   1      32.883  15.593   8.529  0.00  0.00     0.117 C 
HETATM   20  C   UNK N   1      32.446  15.078   9.890  0.00  0.00     0.037 C 
BRANCH  19  21
HETATM   21  C   UNK N   1      31.822  16.428   7.850  0.00  0.00    -0.034 A 
HETATM   22  C   UNK N   1      31.585  16.410   6.460  0.00  0.00     0.025 A 
HETATM   23  C   UNK N   1      30.425  17.023   5.937  0.00  0.00     0.049 A 
HETATM   24  C   UNK N   1      29.511  17.630   6.816  0.00  0.00     0.032 A 
HETATM   25  C   UNK N   1      29.769  17.663   8.191  0.00  0.00     0.049 A 
HETATM   26  C   UNK N   1      30.913  17.064   8.684  0.00  0.00     0.025 A 
BRANCH  23  27
HETATM   27  C   UNK N   1      30.134  16.984   4.459  0.00  0.00     0.417 C 
HETATM   28  F   UNK N   1      29.887  15.682   4.067  0.00  0.00    -0.166 F 
HETATM   29  F   UNK N   1      31.209  17.470   3.732  0.00  0.00    -0.166 F 
HETATM   30  F   UNK N   1      29.027  17.763   4.173  0.00  0.00    -0.166 F 
ENDBRANCH  23  27
BRANCH  25  31
HETATM   31  C   UNK N   1      28.821  18.270   9.174  0.00  0.00     0.417 C 
HETATM   32  F   UNK N   1      29.538  18.967  10.131  0.00  0.00    -0.166 F 
HETATM   33  F   UNK N   1      27.932  19.129   8.556  0.00  0.00    -0.166 F 
HETATM   34  F   UNK N   1      28.111  17.258   9.796  0.00  0.00    -0.166 F 
ENDBRANCH  25  31
ENDBRANCH  19  21
ENDBRANCH   9  19
BRANCH   3  35
HETATM   35  N   UNK N   1      35.438  11.104  11.470  0.00  0.00     0.096 N 
HETATM   36  C   UNK N   1      36.692  10.490  11.944  0.00  0.00     0.292 C 
HETATM   37  C   UNK N   1      36.476   9.325  12.894  0.00  0.00     0.156 C 
HETATM   38  N   UNK N   1      35.532   9.776  13.867  0.00  0.00    -0.344 N 
HETATM   39  C   UNK N   1      34.232  10.185  13.474  0.00  0.00     0.116 A 
HETATM   40  C   UNK N   1      35.819  10.062  15.136  0.00  0.00     0.220 A 
HETATM   41  C   UNK N   1      34.427  11.356  12.525  0.00  0.00     0.298 C 
HETATM   42  C   UNK N   1      33.592  10.689  14.784  0.00  0.00     0.036 A 
HETATM   43  C   UNK N   1      34.695  10.677  15.866  0.00  0.00     0.105 A 
HETATM   44  O   UNK N   1      36.930   9.896  15.616  0.00  0.00    -0.273 OA
ENDBRANCH   3  35
TORSDOF 6
ENDMDL
MODEL 5
REMARK VINA RESULT:      -9.0      1.835      2.648
REMARK  6 active torsions:
REMARK  status: ('A' for Active; 'I' for Inactive)
REMARK    1  A    between atoms: C_8  and  C_7 
REMARK    2  A    between atoms: C_10  and  N_34 
REMARK       I    between atoms: N_13  and  C_14 
REMARK       I    between atoms: C_14  and  N_16 
REMARK    3  A    between atoms: N_16  and  C_18 
REMARK    4  A    between atoms: C_18  and  C_20 
REMARK    5  A    between atoms: C_22  and  C_30 
REMARK    6  A    between atoms: C_24  and  C_26 
ROOT
HETATM    1  C   UNK N   1      25.115  15.432   4.727  0.00  0.00     0.124 C 
HETATM    2  C   UNK N   1      24.442  14.459   5.693  0.00  0.00     0.066 C 
HETATM    3  C   UNK N   1      23.677  13.367   4.951  0.00  0.00     0.227 C 
HETATM    4  C   UNK N   1      24.399  12.802   3.697  0.00  0.00     0.056 C 
HETATM    5  C   UNK N   1      24.840  13.938   2.789  0.00  0.00     0.130 C 
HETATM    6  N   UNK N   1      25.702  14.783   3.575  0.00  0.00    -0.325 N 
HETATM    7  C   UNK N   1      26.888  15.234   3.076  0.00  0.00     0.321 C 
HETATM    8  O   UNK N   1      27.101  15.142   1.875  0.00  0.00    -0.247 OA
HETATM    9  N   UNK N   1      27.811  15.858   3.883  0.00  0.00    -0.330 N 
HETATM   10  C   UNK N   1      28.748  16.752   3.238  0.00  0.00     0.155 C 
ENDROOT
BRANCH   1  11
HETATM   11  C   UNK N   1      24.466  16.748   4.339  0.00  0.00    -0.029 A 
HETATM   12  C   UNK N   1      23.209  16.672   3.721  0.00  0.00     0.013 A 
HETATM   13  C   UNK N   1      22.488  17.824   3.408  0.00  0.00     0.043 A 
HETATM   14  C   UNK N   1      23.015  19.078   3.711  0.00  0.00     0.117 A 
HETATM   15  C   UNK N   1      24.266  19.178   4.323  0.00  0.00     0.049 A 
HETATM   16  F   UNK N   1      22.310  20.196   3.419  0.00  0.00    -0.206 F 
HETATM   17  C   UNK N   1      24.997  18.028   4.645  0.00  0.00    -0.051 A 
HETATM   18  C   UNK N   1      26.307  18.209   5.326  0.00  0.00     0.049 C 
ENDBRANCH   1  11
BRANCH   9  19
HETATM   19  C   UNK N   1      28.345  15.139   5.060  0.00  0.00     0.117 C 
HETATM   20  C   UNK N   1      29.019  13.792   4.867  0.00  0.00     0.037 C 
BRANCH  19  21
HETATM   21  C   UNK N   1      29.183  16.103   5.867  0.00  0.00    -0.034 A 
HETATM   22  C   UNK N   1      28.687  16.842   6.962  0.00  0.00     0.025 A 
HETATM   23  C   UNK N   1      29.583  17.526   7.812  0.00  0.00     0.049 A 
HETATM   24  C   UNK N   1      30.964  17.446   7.564  0.00  0.00     0.032 A 
HETATM   25  C   UNK N   1      31.444  16.730   6.461  0.00  0.00     0.049 A 
HETATM   26  C   UNK N   1      30.550  16.073   5.636  0.00  0.00     0.025 A 
BRANCH  23  27
HETATM   27  C   UNK N   1      29.078  18.291   9.008  0.00  0.00     0.417 C 
HETATM   28  F   UNK N   1      30.092  19.076   9.521  0.00  0.00    -0.166 F 
HETATM   29  F   UNK N   1      28.641  17.425   9.998  0.00  0.00    -0.166 F 
HETATM   30  F   UNK N   1      28.018  19.101   8.640  0.00  0.00    -0.166 F 
ENDBRANCH  23  27
BRANCH  25  31
HETATM   31  C   UNK N   1      32.901  16.589   6.164  0.00  0.00     0.417 C 
HETATM   32  F   UNK N   1      33.064  15.815   5.029  0.00  0.00    -0.166 F 
HETATM   33  F   UNK N   1      33.499  17.819   5.967  0.00  0.00    -0.166 F 
HETATM   34  F   UNK N   1      33.517  15.955   7.230  0.00  0.00    -0.166 F 
ENDBRANCH  25  31
ENDBRANCH  19  21
ENDBRANCH   9  19
BRANCH   3  35
HETATM   35  N   UNK N   1      23.146  12.386   5.907  0.00  0.00     0.096 N 
HETATM   36  C   UNK N   1      24.351  11.937   6.628  0.00  0.00     0.292 C 
HETATM   37  C   UNK N   1      24.047  11.151   7.891  0.00  0.00     0.156 C 
HETATM   38  N   UNK N   1      23.073  11.913   8.607  0.00  0.00    -0.344 N 
HETATM   39  C   UNK N   1      21.809  12.195   8.027  0.00  0.00     0.116 A 
HETATM   40  C   UNK N   1      23.307  12.594   9.728  0.00  0.00     0.220 A 
HETATM   41  C   UNK N   1      22.094  12.987   6.761  0.00  0.00     0.298 C 
HETATM   42  C   UNK N   1      21.125  13.111   9.061  0.00  0.00     0.036 A 
HETATM   43  C   UNK N   1      22.171  13.434  10.151  0.00  0.00     0.105 A 
HETATM   44  O   UNK N   1      24.386  12.573  10.301  0.00  0.00    -0.273 OA
ENDBRANCH   3  35
TORSDOF 6
ENDMDL
MODEL 6
REMARK VINA RESULT:      -9.0      1.556      3.316
REMARK  6 active torsions:
REMARK  status: ('A' for Active; 'I' for Inactive)
REMARK    1  A    between atoms: C_8  and  C_7 
REMARK    2  A    between atoms: C_10  and  N_34 
REMARK       I    between atoms: N_13  and  C_14 
REMARK       I    between atoms: C_14  and  N_16 
REMARK    3  A    between atoms: N_16  and  C_18 
REMARK    4  A    between atoms: C_18  and  C_20 
REMARK    5  A    between atoms: C_22  and  C_30 
REMARK    6  A    between atoms: C_24  and  C_26 
ROOT
HETATM    1  C   UNK N   1      25.824  16.441   4.647  0.00  0.00     0.124 C 
HETATM    2  C   UNK N   1      24.859  15.914   5.709  0.00  0.00     0.066 C 
HETATM    3  C   UNK N   1      23.655  15.219   5.080  0.00  0.00     0.227 C 
HETATM    4  C   UNK N   1      23.986  14.323   3.854  0.00  0.00     0.056 C 
HETATM    5  C   UNK N   1      24.815  15.101   2.845  0.00  0.00     0.130 C 
HETATM    6  N   UNK N   1      26.003  15.534   3.535  0.00  0.00    -0.325 N 
HETATM    7  C   UNK N   1      27.234  15.397   2.965  0.00  0.00     0.321 C 
HETATM    8  O   UNK N   1      27.312  15.151   1.770  0.00  0.00    -0.247 OA
HETATM    9  N   UNK N   1      28.384  15.608   3.691  0.00  0.00    -0.330 N 
HETATM   10  C   UNK N   1      29.572  15.968   2.949  0.00  0.00     0.155 C 
ENDROOT
BRANCH   1  11
HETATM   11  C   UNK N   1      25.780  17.882   4.175  0.00  0.00    -0.029 A 
HETATM   12  C   UNK N   1      27.013  18.539   4.046  0.00  0.00     0.013 A 
HETATM   13  C   UNK N   1      27.090  19.834   3.533  0.00  0.00     0.043 A 
HETATM   14  C   UNK N   1      25.929  20.496   3.138  0.00  0.00     0.117 A 
HETATM   15  C   UNK N   1      24.691  19.863   3.261  0.00  0.00     0.049 A 
HETATM   16  F   UNK N   1      26.005  21.748   2.629  0.00  0.00    -0.206 F 
HETATM   17  C   UNK N   1      24.602  18.561   3.771  0.00  0.00    -0.051 A 
HETATM   18  C   UNK N   1      23.254  17.938   3.842  0.00  0.00     0.049 C 
ENDBRANCH   1  11
BRANCH   9  19
HETATM   19  C   UNK N   1      28.629  14.799   4.905  0.00  0.00     0.117 C 
HETATM   20  C   UNK N   1      29.189  13.394   4.766  0.00  0.00     0.037 C 
BRANCH  19  21
HETATM   21  C   UNK N   1      29.403  15.643   5.891  0.00  0.00    -0.034 A 
HETATM   22  C   UNK N   1      30.796  15.855   5.813  0.00  0.00     0.025 A 
HETATM   23  C   UNK N   1      31.402  16.847   6.615  0.00  0.00     0.049 A 
HETATM   24  C   UNK N   1      30.602  17.623   7.472  0.00  0.00     0.032 A 
HETATM   25  C   UNK N   1      29.226  17.388   7.559  0.00  0.00     0.049 A 
HETATM   26  C   UNK N   1      28.651  16.408   6.771  0.00  0.00     0.025 A 
BRANCH  23  27
HETATM   27  C   UNK N   1      32.882  17.114   6.522  0.00  0.00     0.417 C 
HETATM   28  F   UNK N   1      33.213  17.453   5.223  0.00  0.00    -0.166 F 
HETATM   29  F   UNK N   1      33.609  15.993   6.887  0.00  0.00    -0.166 F 
HETATM   30  F   UNK N   1      33.231  18.153   7.366  0.00  0.00    -0.166 F 
ENDBRANCH  23  27
BRANCH  25  31
HETATM   31  C   UNK N   1      28.323  18.199   8.432  0.00  0.00     0.417 C 
HETATM   32  F   UNK N   1      27.629  19.108   7.653  0.00  0.00    -0.166 F 
HETATM   33  F   UNK N   1      27.423  17.400   9.111  0.00  0.00    -0.166 F 
HETATM   34  F   UNK N   1      29.092  18.892   9.351  0.00  0.00    -0.166 F 
ENDBRANCH  25  31
ENDBRANCH  19  21
ENDBRANCH   9  19
BRANCH   3  35
HETATM   35  N   UNK N   1      22.815  14.622   6.127  0.00  0.00     0.096 N 
HETATM   36  C   UNK N   1      22.445  13.315   5.554  0.00  0.00     0.292 C 
HETATM   37  C   UNK N   1      21.835  12.359   6.564  0.00  0.00     0.156 C 
HETATM   38  N   UNK N   1      22.700  12.380   7.702  0.00  0.00    -0.344 N 
HETATM   39  C   UNK N   1      22.923  13.586   8.415  0.00  0.00     0.116 A 
HETATM   40  C   UNK N   1      23.516  11.391   8.060  0.00  0.00     0.220 A 
HETATM   41  C   UNK N   1      23.540  14.556   7.420  0.00  0.00     0.298 C 
HETATM   42  C   UNK N   1      23.978  13.199   9.472  0.00  0.00     0.036 A 
HETATM   43  C   UNK N   1      24.423  11.752   9.166  0.00  0.00     0.105 A 
HETATM   44  O   UNK N   1      23.554  10.319   7.475  0.00  0.00    -0.273 OA
ENDBRANCH   3  35
TORSDOF 6
ENDMDL
MODEL 7
REMARK VINA RESULT:      -8.9      1.378      3.249
REMARK  6 active torsions:
REMARK  status: ('A' for Active; 'I' for Inactive)
REMARK    1  A    between atoms: C_8  and  C_7 
REMARK    2  A    between atoms: C_10  and  N_34 
REMARK       I    between atoms: N_13  and  C_14 
REMARK       I    between atoms: C_14  and  N_16 
REMARK    3  A    between atoms: N_16  and  C_18 
REMARK    4  A    between atoms: C_18  and  C_20 
REMARK    5  A    between atoms: C_22  and  C_30 
REMARK    6  A    between atoms: C_24  and  C_26 
ROOT
HETATM    1  C   UNK N   1      26.783  16.379   4.518  0.00  0.00     0.124 C 
HETATM    2  C   UNK N   1      25.701  15.713   5.365  0.00  0.00     0.066 C 
HETATM    3  C   UNK N   1      24.740  14.894   4.509  0.00  0.00     0.227 C 
HETATM    4  C   UNK N   1      25.414  14.076   3.374  0.00  0.00     0.056 C 
HETATM    5  C   UNK N   1      26.323  14.973   2.550  0.00  0.00     0.130 C 
HETATM    6  N   UNK N   1      27.290  15.530   3.462  0.00  0.00    -0.325 N 
HETATM    7  C   UNK N   1      28.616  15.556   3.150  0.00  0.00     0.321 C 
HETATM    8  O   UNK N   1      28.958  15.352   1.993  0.00  0.00    -0.247 OA
HETATM    9  N   UNK N   1      29.565  15.886   4.090  0.00  0.00    -0.330 N 
HETATM   10  C   UNK N   1      30.822  16.406   3.599  0.00  0.00     0.155 C 
ENDROOT
BRANCH   1  11
HETATM   11  C   UNK N   1      26.656  17.817   4.047  0.00  0.00    -0.029 A 
HETATM   12  C   UNK N   1      25.549  18.119   3.241  0.00  0.00     0.013 A 
HETATM   13  C   UNK N   1      25.291  19.427   2.831  0.00  0.00     0.043 A 
HETATM   14  C   UNK N   1      26.140  20.459   3.225  0.00  0.00     0.117 A 
HETATM   15  C   UNK N   1      27.250  20.182   4.024  0.00  0.00     0.049 A 
HETATM   16  F   UNK N   1      25.883  21.731   2.838  0.00  0.00    -0.206 F 
HETATM   17  C   UNK N   1      27.517  18.872   4.445  0.00  0.00    -0.051 A 
HETATM   18  C   UNK N   1      28.698  18.655   5.322  0.00  0.00     0.049 C 
ENDBRANCH   1  11
BRANCH   9  19
HETATM   19  C   UNK N   1      29.663  15.083   5.328  0.00  0.00     0.117 C 
HETATM   20  C   UNK N   1      30.156  13.648   5.249  0.00  0.00     0.037 C 
BRANCH  19  21
HETATM   21  C   UNK N   1      30.397  15.898   6.367  0.00  0.00    -0.034 A 
HETATM   22  C   UNK N   1      31.755  16.263   6.257  0.00  0.00     0.025 A 
HETATM   23  C   UNK N   1      32.298  17.225   7.137  0.00  0.00     0.049 A 
HETATM   24  C   UNK N   1      31.468  17.820   8.104  0.00  0.00     0.032 A 
HETATM   25  C   UNK N   1      30.128  17.433   8.219  0.00  0.00     0.049 A 
HETATM   26  C   UNK N   1      29.617  16.484   7.354  0.00  0.00     0.025 A 
BRANCH  23  27
HETATM   27  C   UNK N   1      33.736  17.656   7.014  0.00  0.00     0.417 C 
HETATM   28  F   UNK N   1      34.008  18.005   5.705  0.00  0.00    -0.166 F 
HETATM   29  F   UNK N   1      34.591  16.631   7.387  0.00  0.00    -0.166 F 
HETATM   30  F   UNK N   1      33.978  18.744   7.834  0.00  0.00    -0.166 F 
ENDBRANCH  23  27
BRANCH  25  31
HETATM   31  C   UNK N   1      29.194  18.049   9.209  0.00  0.00     0.417 C 
HETATM   32  F   UNK N   1      28.184  18.712   8.534  0.00  0.00    -0.166 F 
HETATM   33  F   UNK N   1      28.637  17.096  10.041  0.00  0.00    -0.166 F 
HETATM   34  F   UNK N   1      29.894  18.964   9.977  0.00  0.00    -0.166 F 
ENDBRANCH  25  31
ENDBRANCH  19  21
ENDBRANCH   9  19
BRANCH   3  35
HETATM   35  N   UNK N   1      23.790  14.174   5.368  0.00  0.00     0.096 N 
HETATM   36  C   UNK N   1      24.005  14.787   6.691  0.00  0.00     0.292 C 
HETATM   37  C   UNK N   1      22.925  14.445   7.702  0.00  0.00     0.156 C 
HETATM   38  N   UNK N   1      21.678  14.676   7.043  0.00  0.00    -0.344 N 
HETATM   39  C   UNK N   1      21.337  13.952   5.872  0.00  0.00     0.116 A 
HETATM   40  C   UNK N   1      20.851  15.687   7.303  0.00  0.00     0.220 A 
HETATM   41  C   UNK N   1      22.406  14.285   4.844  0.00  0.00     0.298 C 
HETATM   42  C   UNK N   1      19.995  14.571   5.433  0.00  0.00     0.036 A 
HETATM   43  C   UNK N   1      19.728  15.784   6.352  0.00  0.00     0.105 A 
HETATM   44  O   UNK N   1      21.054  16.494   8.198  0.00  0.00    -0.273 OA
ENDBRANCH   3  35
TORSDOF 6
ENDMDL
MODEL 8
REMARK VINA RESULT:      -8.7      1.431      3.132
REMARK  6 active torsions:
REMARK  status: ('A' for Active; 'I' for Inactive)
REMARK    1  A    between atoms: C_8  and  C_7 
REMARK    2  A    between atoms: C_10  and  N_34 
REMARK       I    between atoms: N_13  and  C_14 
REMARK       I    between atoms: C_14  and  N_16 
REMARK    3  A    between atoms: N_16  and  C_18 
REMARK    4  A    between atoms: C_18  and  C_20 
REMARK    5  A    between atoms: C_22  and  C_30 
REMARK    6  A    between atoms: C_24  and  C_26 
ROOT
HETATM    1  C   UNK N   1      27.235  16.365   5.278  0.00  0.00     0.124 C 
HETATM    2  C   UNK N   1      26.323  15.277   5.841  0.00  0.00     0.066 C 
HETATM    3  C   UNK N   1      25.420  14.686   4.763  0.00  0.00     0.227 C 
HETATM    4  C   UNK N   1      26.109  14.451   3.391  0.00  0.00     0.056 C 
HETATM    5  C   UNK N   1      26.821  15.716   2.939  0.00  0.00     0.130 C 
HETATM    6  N   UNK N   1      27.770  16.047   3.972  0.00  0.00    -0.325 N 
HETATM    7  C   UNK N   1      29.051  16.391   3.663  0.00  0.00     0.321 C 
HETATM    8  O   UNK N   1      29.328  16.676   2.506  0.00  0.00    -0.247 OA
HETATM    9  N   UNK N   1      30.016  16.500   4.637  0.00  0.00    -0.330 N 
HETATM   10  C   UNK N   1      31.149  17.352   4.347  0.00  0.00     0.155 C 
ENDROOT
BRANCH   1  11
HETATM   11  C   UNK N   1      26.877  17.837   5.376  0.00  0.00    -0.029 A 
HETATM   12  C   UNK N   1      27.799  18.666   6.032  0.00  0.00     0.013 A 
HETATM   13  C   UNK N   1      27.609  20.046   6.098  0.00  0.00     0.043 A 
HETATM   14  C   UNK N   1      26.488  20.622   5.503  0.00  0.00     0.117 A 
HETATM   15  C   UNK N   1      25.556  19.817   4.847  0.00  0.00     0.049 A 
HETATM   16  F   UNK N   1      26.310  21.964   5.555  0.00  0.00    -0.206 F 
HETATM   17  C   UNK N   1      25.738  18.430   4.772  0.00  0.00    -0.051 A 
HETATM   18  C   UNK N   1      24.722  17.638   4.030  0.00  0.00     0.049 C 
ENDBRANCH   1  11
BRANCH   9  19
HETATM   19  C   UNK N   1      30.319  15.328   5.487  0.00  0.00     0.117 C 
HETATM   20  C   UNK N   1      31.100  14.164   4.902  0.00  0.00     0.037 C 
BRANCH  19  21
HETATM   21  C   UNK N   1      30.898  15.823   6.793  0.00  0.00    -0.034 A 
HETATM   22  C   UNK N   1      32.282  15.923   7.046  0.00  0.00     0.025 A 
HETATM   23  C   UNK N   1      32.740  16.621   8.185  0.00  0.00     0.049 A 
HETATM   24  C   UNK N   1      31.805  17.224   9.045  0.00  0.00     0.032 A 
HETATM   25  C   UNK N   1      30.433  17.099   8.796  0.00  0.00     0.049 A 
HETATM   26  C   UNK N   1      30.004  16.405   7.681  0.00  0.00     0.025 A 
BRANCH  23  27
HETATM   27  C   UNK N   1      34.214  16.770   8.455  0.00  0.00     0.417 C 
HETATM   28  F   UNK N   1      34.405  17.314   9.711  0.00  0.00    -0.166 F 
HETATM   29  F   UNK N   1      34.806  17.601   7.517  0.00  0.00    -0.166 F 
HETATM   30  F   UNK N   1      34.835  15.536   8.395  0.00  0.00    -0.166 F 
ENDBRANCH  23  27
BRANCH  25  31
HETATM   31  C   UNK N   1      29.396  17.741   9.660  0.00  0.00     0.417 C 
HETATM   32  F   UNK N   1      29.220  16.981  10.804  0.00  0.00    -0.166 F 
HETATM   33  F   UNK N   1      29.760  19.025  10.018  0.00  0.00    -0.166 F 
HETATM   34  F   UNK N   1      28.200  17.788   8.965  0.00  0.00    -0.166 F 
ENDBRANCH  25  31
ENDBRANCH  19  21
ENDBRANCH   9  19
BRANCH   3  35
HETATM   35  N   UNK N   1      24.646  13.564   5.314  0.00  0.00     0.096 N 
HETATM   36  C   UNK N   1      25.411  13.191   6.518  0.00  0.00     0.292 C 
HETATM   37  C   UNK N   1      24.658  12.261   7.452  0.00  0.00     0.156 C 
HETATM   38  N   UNK N   1      23.361  12.836   7.624  0.00  0.00    -0.344 N 
HETATM   39  C   UNK N   1      22.503  13.024   6.510  0.00  0.00     0.116 A 
HETATM   40  C   UNK N   1      22.929  13.430   8.735  0.00  0.00     0.220 A 
HETATM   41  C   UNK N   1      23.238  13.959   5.564  0.00  0.00     0.298 C 
HETATM   42  C   UNK N   1      21.282  13.755   7.105  0.00  0.00     0.036 A 
HETATM   43  C   UNK N   1      21.620  14.092   8.574  0.00  0.00     0.105 A 
HETATM   44  O   UNK N   1      23.592  13.480   9.759  0.00  0.00    -0.273 OA
ENDBRANCH   3  35
TORSDOF 6
ENDMDL
MODEL 9
REMARK VINA RESULT:      -8.7      1.982      3.693
REMARK  6 active torsions:
REMARK  status: ('A' for Active; 'I' for Inactive)
REMARK    1  A    between atoms: C_8  and  C_7 
REMARK    2  A    between atoms: C_10  and  N_34 
REMARK       I    between atoms: N_13  and  C_14 
REMARK       I    between atoms: C_14  and  N_16 
REMARK    3  A    between atoms: N_16  and  C_18 
REMARK    4  A    between atoms: C_18  and  C_20 
REMARK    5  A    between atoms: C_22  and  C_30 
REMARK    6  A    between atoms: C_24  and  C_26 
ROOT
HETATM    1  C   UNK N   1      27.540  16.378   5.678  0.00  0.00     0.124 C 
HETATM    2  C   UNK N   1      26.621  15.353   6.341  0.00  0.00     0.066 C 
HETATM    3  C   UNK N   1      25.552  14.849   5.377  0.00  0.00     0.227 C 
HETATM    4  C   UNK N   1      26.051  14.584   3.930  0.00  0.00     0.056 C 
HETATM    5  C   UNK N   1      26.798  15.798   3.403  0.00  0.00     0.130 C 
HETATM    6  N   UNK N   1      27.887  16.040   4.315  0.00  0.00    -0.325 N 
HETATM    7  C   UNK N   1      29.145  16.291   3.855  0.00  0.00     0.321 C 
HETATM    8  O   UNK N   1      29.301  16.572   2.675  0.00  0.00    -0.247 OA
HETATM    9  N   UNK N   1      30.225  16.312   4.706  0.00  0.00    -0.330 N 
HETATM   10  C   UNK N   1      31.377  17.080   4.286  0.00  0.00     0.155 C 
ENDROOT
BRANCH   1  11
HETATM   11  C   UNK N   1      27.310  17.870   5.828  0.00  0.00    -0.029 A 
HETATM   12  C   UNK N   1      26.282  18.429   5.055  0.00  0.00     0.013 A 
HETATM   13  C   UNK N   1      25.930  19.773   5.186  0.00  0.00     0.043 A 
HETATM   14  C   UNK N   1      26.604  20.582   6.098  0.00  0.00     0.117 A 
HETATM   15  C   UNK N   1      27.633  20.049   6.876  0.00  0.00     0.049 A 
HETATM   16  F   UNK N   1      26.254  21.884   6.235  0.00  0.00    -0.206 F 
HETATM   17  C   UNK N   1      27.992  18.700   6.756  0.00  0.00    -0.051 A 
HETATM   18  C   UNK N   1      29.075  18.192   7.639  0.00  0.00     0.049 C 
ENDBRANCH   1  11
BRANCH   9  19
HETATM   19  C   UNK N   1      30.537  15.108   5.506  0.00  0.00     0.117 C 
HETATM   20  C   UNK N   1      30.277  13.732   4.916  0.00  0.00     0.037 C 
BRANCH  19  21
HETATM   21  C   UNK N   1      31.936  15.252   6.059  0.00  0.00    -0.034 A 
HETATM   22  C   UNK N   1      33.057  14.575   5.535  0.00  0.00     0.025 A 
HETATM   23  C   UNK N   1      34.357  14.949   5.941  0.00  0.00     0.049 A 
HETATM   24  C   UNK N   1      34.516  16.006   6.854  0.00  0.00     0.032 A 
HETATM   25  C   UNK N   1      33.396  16.655   7.385  0.00  0.00     0.049 A 
HETATM   26  C   UNK N   1      32.131  16.271   6.981  0.00  0.00     0.025 A 
BRANCH  23  27
HETATM   27  C   UNK N   1      35.570  14.263   5.368  0.00  0.00     0.417 C 
HETATM   28  F   UNK N   1      35.436  14.149   3.997  0.00  0.00    -0.166 F 
HETATM   29  F   UNK N   1      35.719  12.995   5.906  0.00  0.00    -0.166 F 
HETATM   30  F   UNK N   1      36.709  14.994   5.654  0.00  0.00    -0.166 F 
ENDBRANCH  23  27
BRANCH  25  31
HETATM   31  C   UNK N   1      33.505  17.802   8.337  0.00  0.00     0.417 C 
HETATM   32  F   UNK N   1      34.401  18.730   7.835  0.00  0.00    -0.166 F 
HETATM   33  F   UNK N   1      32.282  18.412   8.538  0.00  0.00    -0.166 F 
HETATM   34  F   UNK N   1      33.980  17.334   9.551  0.00  0.00    -0.166 F 
ENDBRANCH  25  31
ENDBRANCH  19  21
ENDBRANCH   9  19
BRANCH   3  35
HETATM   35  N   UNK N   1      24.766  13.781   6.011  0.00  0.00     0.096 N 
HETATM   36  C   UNK N   1      24.854  14.108   7.446  0.00  0.00     0.292 C 
HETATM   37  C   UNK N   1      23.864  13.342   8.306  0.00  0.00     0.156 C 
HETATM   38  N   UNK N   1      22.597  13.466   7.658  0.00  0.00    -0.344 N 
HETATM   39  C   UNK N   1      22.409  12.973   6.341  0.00  0.00     0.116 A 
HETATM   40  C   UNK N   1      21.583  14.210   8.097  0.00  0.00     0.220 A 
HETATM   41  C   UNK N   1      23.389  13.734   5.463  0.00  0.00     0.298 C 
HETATM   42  C   UNK N   1      20.969  13.399   5.990  0.00  0.00     0.036 A 
HETATM   43  C   UNK N   1      20.463  14.296   7.142  0.00  0.00     0.105 A 
HETATM   44  O   UNK N   1      21.618  14.817   9.157  0.00  0.00    -0.273 OA
ENDBRANCH   3  35
TORSDOF 6
ENDMDL
