MODEL 1
REMARK VINA RESULT:      -7.2      0.000      0.000
REMARK  6 active torsions:
REMARK  status: ('A' for Active; 'I' for Inactive)
REMARK    1  A    between atoms: C_2  and  C_3 
REMARK    2  A    between atoms: C_2  and  N_18 
REMARK    3  A    between atoms: C_4  and  C_5 
REMARK    4  A    between atoms: C_8  and  C_10 
REMARK    5  A    between atoms: C_10  and  C_11 
REMARK       I    between atoms: N_18  and  C_19 
REMARK    6  A    between atoms: N_18  and  O_22 
REMARK       I    between atoms: C_19  and  N_21 
ROOT
HETATM    1  C   UNK N   1      25.868  18.941   4.911  0.00  0.00     0.058 A 
HETATM    2  C   UNK N   1      26.814  19.830   5.413  0.00  0.00     0.029 A 
HETATM    3  C   UNK N   1      27.902  19.161   6.044  0.00  0.00     0.017 A 
HETATM    4  C   UNK N   1      27.785  17.762   6.023  0.00  0.00    -0.012 A 
HETATM    5  S   UNK N   1      26.378  17.406   5.243  0.00  0.00    -0.085 SA
ENDROOT
BRANCH   1   6
HETATM    6  C   UNK N   1      24.649  19.255   4.244  0.00  0.00    -0.057 C 
HETATM    7  C   UNK N   1      23.558  19.373   3.756  0.00  0.00    -0.073 C 
BRANCH   7   8
HETATM    8  C   UNK N   1      22.183  19.295   3.264  0.00  0.00     0.194 C 
HETATM    9  C   UNK N   1      21.255  19.088   4.452  0.00  0.00     0.049 C 
BRANCH   8  10
HETATM   10  N   UNK N   1      21.848  20.522   2.543  0.00  0.00    -0.194 N 
HETATM   11  C   UNK N   1      21.002  20.513   1.478  0.00  0.00     0.341 C 
HETATM   12  O   UNK N   1      20.752  21.558   0.893  0.00  0.00    -0.245 OA
HETATM   13  N   UNK N   1      20.436  19.367   1.051  0.00  0.00    -0.350 N 
HETATM   14  H   UNK N   1      20.643  18.500   1.472  0.00  0.00     0.160 HD
HETATM   15  H   UNK N   1      19.800  19.396   0.300  0.00  0.00     0.160 HD
BRANCH  10  16
HETATM   16  O   UNK N   1      22.405  21.689   2.914  0.00  0.00    -0.282 OA
HETATM   17  H   UNK N   1      22.887  21.778   3.751  0.00  0.00     0.245 HD
ENDBRANCH  10  16
ENDBRANCH   8  10
ENDBRANCH   7   8
ENDBRANCH   1   6
BRANCH   4  18
HETATM   18  C   UNK N   1      28.704  16.720   6.603  0.00  0.00     0.084 C 
BRANCH  18  19
HETATM   19  C   UNK N   1      30.172  17.036   6.706  0.00  0.00    -0.053 A 
HETATM   20  C   UNK N   1      30.793  17.348   7.925  0.00  0.00     0.010 A 
HETATM   21  C   UNK N   1      32.157  17.629   7.977  0.00  0.00     0.043 A 
HETATM   22  C   UNK N   1      32.918  17.599   6.807  0.00  0.00     0.116 A 
HETATM   23  C   UNK N   1      32.311  17.288   5.587  0.00  0.00     0.043 A 
HETATM   24  F   UNK N   1      34.242  17.871   6.859  0.00  0.00    -0.206 F 
HETATM   25  C   UNK N   1      30.941  17.008   5.537  0.00  0.00     0.010 A 
ENDBRANCH  18  19
ENDBRANCH   4  18
TORSDOF 6
ENDMDL
MODEL 2
REMARK VINA RESULT:      -7.0     13.221     16.289
REMARK  6 active torsions:
REMARK  status: ('A' for Active; 'I' for Inactive)
REMARK    1  A    between atoms: C_2  and  C_3 
REMARK    2  A    between atoms: C_2  and  N_18 
REMARK    3  A    between atoms: C_4  and  C_5 
REMARK    4  A    between atoms: C_8  and  C_10 
REMARK    5  A    between atoms: C_10  and  C_11 
REMARK       I    between atoms: N_18  and  C_19 
REMARK    6  A    between atoms: N_18  and  O_22 
REMARK       I    between atoms: C_19  and  N_21 
ROOT
HETATM    1  C   UNK N   1      35.132  12.478  15.424  0.00  0.00     0.058 A 
HETATM    2  C   UNK N   1      34.909  13.389  16.452  0.00  0.00     0.029 A 
HETATM    3  C   UNK N   1      35.117  12.814  17.738  0.00  0.00     0.017 A 
HETATM    4  C   UNK N   1      35.500  11.463  17.691  0.00  0.00    -0.012 A 
HETATM    5  S   UNK N   1      35.569  11.036  16.101  0.00  0.00    -0.085 SA
ENDROOT
BRANCH   1   6
HETATM    6  C   UNK N   1      34.996  12.699  14.023  0.00  0.00    -0.057 C 
HETATM    7  C   UNK N   1      35.044  12.957  12.852  0.00  0.00    -0.073 C 
BRANCH   7   8
HETATM    8  C   UNK N   1      35.315  13.386  11.480  0.00  0.00     0.194 C 
HETATM    9  C   UNK N   1      34.697  12.376  10.526  0.00  0.00     0.049 C 
BRANCH   8  10
HETATM   10  N   UNK N   1      34.760  14.722  11.263  0.00  0.00    -0.194 N 
HETATM   11  C   UNK N   1      35.562  15.802  11.059  0.00  0.00     0.341 C 
HETATM   12  O   UNK N   1      35.062  16.905  10.891  0.00  0.00    -0.245 OA
HETATM   13  N   UNK N   1      36.904  15.676  11.045  0.00  0.00    -0.350 N 
HETATM   14  H   UNK N   1      37.344  14.811  11.216  0.00  0.00     0.160 HD
HETATM   15  H   UNK N   1      37.458  16.468  10.861  0.00  0.00     0.160 HD
BRANCH  10  16
HETATM   16  O   UNK N   1      33.427  14.905  11.291  0.00  0.00    -0.282 OA
HETATM   17  H   UNK N   1      32.835  14.414  10.700  0.00  0.00     0.245 HD
ENDBRANCH  10  16
ENDBRANCH   8  10
ENDBRANCH   7   8
ENDBRANCH   1   6
BRANCH   4  18
HETATM   18  C   UNK N   1      35.781  10.512  18.823  0.00  0.00     0.084 C 
BRANCH  18  19
HETATM   19  C   UNK N   1      34.614   9.948  19.591  0.00  0.00    -0.053 A 
HETATM   20  C   UNK N   1      34.287  10.377  20.886  0.00  0.00     0.010 A 
HETATM   21  C   UNK N   1      33.195   9.834  21.560  0.00  0.00     0.043 A 
HETATM   22  C   UNK N   1      32.415   8.854  20.944  0.00  0.00     0.116 A 
HETATM   23  C   UNK N   1      32.730   8.420  19.653  0.00  0.00     0.043 A 
HETATM   24  F   UNK N   1      31.355   8.328  21.599  0.00  0.00    -0.206 F 
HETATM   25  C   UNK N   1      33.828   8.966  18.979  0.00  0.00     0.010 A 
ENDBRANCH  18  19
ENDBRANCH   4  18
TORSDOF 6
ENDMDL
MODEL 3
REMARK VINA RESULT:      -6.9     10.476     13.617
REMARK  6 active torsions:
REMARK  status: ('A' for Active; 'I' for Inactive)
REMARK    1  A    between atoms: C_2  and  C_3 
REMARK    2  A    between atoms: C_2  and  N_18 
REMARK    3  A    between atoms: C_4  and  C_5 
REMARK    4  A    between atoms: C_8  and  C_10 
REMARK    5  A    between atoms: C_10  and  C_11 
REMARK       I    between atoms: N_18  and  C_19 
REMARK    6  A    between atoms: N_18  and  O_22 
REMARK       I    between atoms: C_19  and  N_21 
ROOT
HETATM    1  C   UNK N   1      35.806  13.175  11.651  0.00  0.00     0.058 A 
HETATM    2  C   UNK N   1      37.135  13.032  12.039  0.00  0.00     0.029 A 
HETATM    3  C   UNK N   1      37.274  12.217  13.198  0.00  0.00     0.017 A 
HETATM    4  C   UNK N   1      36.051  11.736  13.693  0.00  0.00    -0.012 A 
HETATM    5  S   UNK N   1      34.868  12.319  12.705  0.00  0.00    -0.085 SA
ENDROOT
BRANCH   1   6
HETATM    6  C   UNK N   1      35.297  13.934  10.557  0.00  0.00    -0.057 C 
HETATM    7  C   UNK N   1      34.767  14.655   9.757  0.00  0.00    -0.073 C 
BRANCH   7   8
HETATM    8  C   UNK N   1      33.982  15.608   8.972  0.00  0.00     0.194 C 
HETATM    9  C   UNK N   1      32.521  15.475   9.371  0.00  0.00     0.049 C 
BRANCH   8  10
HETATM   10  N   UNK N   1      34.472  16.965   9.214  0.00  0.00    -0.194 N 
HETATM   11  C   UNK N   1      34.552  17.882   8.212  0.00  0.00     0.341 C 
HETATM   12  O   UNK N   1      34.975  19.004   8.450  0.00  0.00    -0.245 OA
HETATM   13  N   UNK N   1      34.176  17.571   6.955  0.00  0.00    -0.350 N 
HETATM   14  H   UNK N   1      33.867  16.666   6.718  0.00  0.00     0.160 HD
HETATM   15  H   UNK N   1      34.212  18.264   6.258  0.00  0.00     0.160 HD
BRANCH  10  16
HETATM   16  O   UNK N   1      34.882  17.319  10.446  0.00  0.00    -0.282 OA
HETATM   17  H   UNK N   1      34.953  18.249  10.708  0.00  0.00     0.245 HD
ENDBRANCH  10  16
ENDBRANCH   8  10
ENDBRANCH   7   8
ENDBRANCH   1   6
BRANCH   4  18
HETATM   18  C   UNK N   1      35.783  10.878  14.900  0.00  0.00     0.084 C 
BRANCH  18  19
HETATM   19  C   UNK N   1      35.553  11.556  16.225  0.00  0.00    -0.053 A 
HETATM   20  C   UNK N   1      35.311  12.934  16.334  0.00  0.00     0.010 A 
HETATM   21  C   UNK N   1      35.096  13.522  17.579  0.00  0.00     0.043 A 
HETATM   22  C   UNK N   1      35.122  12.736  18.732  0.00  0.00     0.116 A 
HETATM   23  C   UNK N   1      35.361  11.362  18.636  0.00  0.00     0.043 A 
HETATM   24  F   UNK N   1      34.913  13.308  19.940  0.00  0.00    -0.206 F 
HETATM   25  C   UNK N   1      35.577  10.774  17.385  0.00  0.00     0.010 A 
ENDBRANCH  18  19
ENDBRANCH   4  18
TORSDOF 6
ENDMDL
MODEL 4
REMARK VINA RESULT:      -6.8     10.909     14.053
REMARK  6 active torsions:
REMARK  status: ('A' for Active; 'I' for Inactive)
REMARK    1  A    between atoms: C_2  and  C_3 
REMARK    2  A    between atoms: C_2  and  N_18 
REMARK    3  A    between atoms: C_4  and  C_5 
REMARK    4  A    between atoms: C_8  and  C_10 
REMARK    5  A    between atoms: C_10  and  C_11 
REMARK       I    between atoms: N_18  and  C_19 
REMARK    6  A    between atoms: N_18  and  O_22 
REMARK       I    between atoms: C_19  and  N_21 
ROOT
HETATM    1  C   UNK N   1      35.489  14.982  11.246  0.00  0.00     0.058 A 
HETATM    2  C   UNK N   1      35.032  14.258  10.150  0.00  0.00     0.029 A 
HETATM    3  C   UNK N   1      34.623  15.101   9.077  0.00  0.00     0.017 A 
HETATM    4  C   UNK N   1      34.769  16.470   9.357  0.00  0.00    -0.012 A 
HETATM    5  S   UNK N   1      35.386  16.589  10.880  0.00  0.00    -0.085 SA
ENDROOT
BRANCH   1   6
HETATM    6  C   UNK N   1      35.952  14.471  12.494  0.00  0.00    -0.057 C 
HETATM    7  C   UNK N   1      36.188  13.952  13.550  0.00  0.00    -0.073 C 
BRANCH   7   8
HETATM    8  C   UNK N   1      36.245  13.232  14.822  0.00  0.00     0.194 C 
HETATM    9  C   UNK N   1      37.264  12.109  14.697  0.00  0.00     0.049 C 
BRANCH   8  10
HETATM   10  N   UNK N   1      36.609  14.156  15.895  0.00  0.00    -0.194 N 
HETATM   11  C   UNK N   1      35.906  14.208  17.058  0.00  0.00     0.341 C 
HETATM   12  O   UNK N   1      36.234  15.001  17.930  0.00  0.00    -0.245 OA
HETATM   13  N   UNK N   1      34.845  13.402  17.265  0.00  0.00    -0.350 N 
HETATM   14  H   UNK N   1      34.528  12.778  16.572  0.00  0.00     0.160 HD
HETATM   15  H   UNK N   1      34.377  13.437  18.130  0.00  0.00     0.160 HD
BRANCH  10  16
HETATM   16  O   UNK N   1      37.644  14.999  15.729  0.00  0.00    -0.282 OA
HETATM   17  H   UNK N   1      37.694  15.597  14.967  0.00  0.00     0.245 HD
ENDBRANCH  10  16
ENDBRANCH   8  10
ENDBRANCH   7   8
ENDBRANCH   1   6
BRANCH   4  18
HETATM   18  C   UNK N   1      34.426  17.660   8.501  0.00  0.00     0.084 C 
BRANCH  18  19
HETATM   19  C   UNK N   1      33.372  17.497   7.438  0.00  0.00    -0.053 A 
HETATM   20  C   UNK N   1      32.007  17.379   7.741  0.00  0.00     0.010 A 
HETATM   21  C   UNK N   1      31.063  17.236   6.725  0.00  0.00     0.043 A 
HETATM   22  C   UNK N   1      31.475  17.211   5.393  0.00  0.00     0.116 A 
HETATM   23  C   UNK N   1      32.832  17.330   5.077  0.00  0.00     0.043 A 
HETATM   24  F   UNK N   1      30.557  17.073   4.408  0.00  0.00    -0.206 F 
HETATM   25  C   UNK N   1      33.778  17.472   6.099  0.00  0.00     0.010 A 
ENDBRANCH  18  19
ENDBRANCH   4  18
TORSDOF 6
ENDMDL
MODEL 5
REMARK VINA RESULT:      -6.8      6.779     10.140
REMARK  6 active torsions:
REMARK  status: ('A' for Active; 'I' for Inactive)
REMARK    1  A    between atoms: C_2  and  C_3 
REMARK    2  A    between atoms: C_2  and  N_18 
REMARK    3  A    between atoms: C_4  and  C_5 
REMARK    4  A    between atoms: C_8  and  C_10 
REMARK    5  A    between atoms: C_10  and  C_11 
REMARK       I    between atoms: N_18  and  C_19 
REMARK    6  A    between atoms: N_18  and  O_22 
REMARK       I    between atoms: C_19  and  N_21 
ROOT
HETATM    1  C   UNK N   1      29.628  17.638   6.356  0.00  0.00     0.058 A 
HETATM    2  C   UNK N   1      28.603  18.157   7.141  0.00  0.00     0.029 A 
HETATM    3  C   UNK N   1      27.606  18.812   6.362  0.00  0.00     0.017 A 
HETATM    4  C   UNK N   1      27.872  18.792   4.983  0.00  0.00    -0.012 A 
HETATM    5  S   UNK N   1      29.293  17.983   4.777  0.00  0.00    -0.085 SA
ENDROOT
BRANCH   1   6
HETATM    6  C   UNK N   1      30.793  16.944   6.797  0.00  0.00    -0.057 C 
HETATM    7  C   UNK N   1      31.854  16.517   7.160  0.00  0.00    -0.073 C 
BRANCH   7   8
HETATM    8  C   UNK N   1      33.232  16.226   7.557  0.00  0.00     0.194 C 
HETATM    9  C   UNK N   1      33.778  15.136   6.648  0.00  0.00     0.049 C 
BRANCH   8  10
HETATM   10  N   UNK N   1      34.038  17.442   7.462  0.00  0.00    -0.194 N 
HETATM   11  C   UNK N   1      34.635  17.988   8.557  0.00  0.00     0.341 C 
HETATM   12  O   UNK N   1      35.294  19.011   8.441  0.00  0.00    -0.245 OA
HETATM   13  N   UNK N   1      34.506  17.420   9.773  0.00  0.00    -0.350 N 
HETATM   14  H   UNK N   1      33.951  16.618   9.912  0.00  0.00     0.160 HD
HETATM   15  H   UNK N   1      34.978  17.816  10.540  0.00  0.00     0.160 HD
BRANCH  10  16
HETATM   16  O   UNK N   1      34.178  18.062   6.276  0.00  0.00    -0.282 OA
HETATM   17  H   UNK N   1      35.053  18.249   5.902  0.00  0.00     0.245 HD
ENDBRANCH  10  16
ENDBRANCH   8  10
ENDBRANCH   7   8
ENDBRANCH   1   6
BRANCH   4  18
HETATM   18  C   UNK N   1      27.083  19.394   3.851  0.00  0.00     0.084 C 
BRANCH  18  19
HETATM   19  C   UNK N   1      25.596  19.162   3.813  0.00  0.00    -0.053 A 
HETATM   20  C   UNK N   1      24.692  20.139   3.368  0.00  0.00     0.010 A 
HETATM   21  C   UNK N   1      23.323  19.882   3.342  0.00  0.00     0.043 A 
HETATM   22  C   UNK N   1      22.841  18.641   3.760  0.00  0.00     0.116 A 
HETATM   23  C   UNK N   1      23.731  17.659   4.204  0.00  0.00     0.043 A 
HETATM   24  F   UNK N   1      21.511  18.393   3.734  0.00  0.00    -0.206 F 
HETATM   25  C   UNK N   1      25.105  17.920   4.230  0.00  0.00     0.010 A 
ENDBRANCH  18  19
ENDBRANCH   4  18
TORSDOF 6
ENDMDL
MODEL 6
REMARK VINA RESULT:      -6.8      7.868     11.118
REMARK  6 active torsions:
REMARK  status: ('A' for Active; 'I' for Inactive)
REMARK    1  A    between atoms: C_2  and  C_3 
REMARK    2  A    between atoms: C_2  and  N_18 
REMARK    3  A    between atoms: C_4  and  C_5 
REMARK    4  A    between atoms: C_8  and  C_10 
REMARK    5  A    between atoms: C_10  and  C_11 
REMARK       I    between atoms: N_18  and  C_19 
REMARK    6  A    between atoms: N_18  and  O_22 
REMARK       I    between atoms: C_19  and  N_21 
ROOT
HETATM    1  C   UNK N   1      32.319  16.646   6.872  0.00  0.00     0.058 A 
HETATM    2  C   UNK N   1      32.797  17.127   5.657  0.00  0.00     0.029 A 
HETATM    3  C   UNK N   1      31.744  17.505   4.774  0.00  0.00     0.017 A 
HETATM    4  C   UNK N   1      30.464  17.312   5.318  0.00  0.00    -0.012 A 
HETATM    5  S   UNK N   1      30.670  16.699   6.833  0.00  0.00    -0.085 SA
ENDROOT
BRANCH   1   6
HETATM    6  C   UNK N   1      33.082  16.160   7.974  0.00  0.00    -0.057 C 
HETATM    7  C   UNK N   1      33.836  15.883   8.866  0.00  0.00    -0.073 C 
BRANCH   7   8
HETATM    8  C   UNK N   1      34.898  15.726   9.859  0.00  0.00     0.194 C 
HETATM    9  C   UNK N   1      35.377  17.107  10.278  0.00  0.00     0.049 C 
BRANCH   8  10
HETATM   10  N   UNK N   1      34.391  14.975  11.006  0.00  0.00    -0.194 N 
HETATM   11  C   UNK N   1      35.228  14.312  11.850  0.00  0.00     0.341 C 
HETATM   12  O   UNK N   1      34.767  13.686  12.794  0.00  0.00    -0.245 OA
HETATM   13  N   UNK N   1      36.563  14.329  11.658  0.00  0.00    -0.350 N 
HETATM   14  H   UNK N   1      36.968  14.790  10.887  0.00  0.00     0.160 HD
HETATM   15  H   UNK N   1      37.146  13.870  12.303  0.00  0.00     0.160 HD
BRANCH  10  16
HETATM   16  O   UNK N   1      33.066  14.906  11.228  0.00  0.00    -0.282 OA
HETATM   17  H   UNK N   1      32.425  15.027  10.511  0.00  0.00     0.245 HD
ENDBRANCH  10  16
ENDBRANCH   8  10
ENDBRANCH   7   8
ENDBRANCH   1   6
BRANCH   4  18
HETATM   18  C   UNK N   1      29.116  17.562   4.695  0.00  0.00     0.084 C 
BRANCH  18  19
HETATM   19  C   UNK N   1      28.311  18.739   5.177  0.00  0.00    -0.053 A 
HETATM   20  C   UNK N   1      28.141  19.028   6.540  0.00  0.00     0.010 A 
HETATM   21  C   UNK N   1      27.393  20.133   6.944  0.00  0.00     0.043 A 
HETATM   22  C   UNK N   1      26.806  20.962   5.987  0.00  0.00     0.116 A 
HETATM   23  C   UNK N   1      26.970  20.686   4.627  0.00  0.00     0.043 A 
HETATM   24  F   UNK N   1      26.081  22.035   6.381  0.00  0.00    -0.206 F 
HETATM   25  C   UNK N   1      27.721  19.576   4.224  0.00  0.00     0.010 A 
ENDBRANCH  18  19
ENDBRANCH   4  18
TORSDOF 6
ENDMDL
MODEL 7
REMARK VINA RESULT:      -6.6     10.273     13.561
REMARK  6 active torsions:
REMARK  status: ('A' for Active; 'I' for Inactive)
REMARK    1  A    between atoms: C_2  and  C_3 
REMARK    2  A    between atoms: C_2  and  N_18 
REMARK    3  A    between atoms: C_4  and  C_5 
REMARK    4  A    between atoms: C_8  and  C_10 
REMARK    5  A    between atoms: C_10  and  C_11 
REMARK       I    between atoms: N_18  and  C_19 
REMARK    6  A    between atoms: N_18  and  O_22 
REMARK       I    between atoms: C_19  and  N_21 
ROOT
HETATM    1  C   UNK N   1      34.827  15.505  10.826  0.00  0.00     0.058 A 
HETATM    2  C   UNK N   1      35.299  16.716  10.329  0.00  0.00     0.029 A 
HETATM    3  C   UNK N   1      34.584  17.142   9.173  0.00  0.00     0.017 A 
HETATM    4  C   UNK N   1      33.565  16.255   8.789  0.00  0.00    -0.012 A 
HETATM    5  S   UNK N   1      33.581  15.007   9.865  0.00  0.00    -0.085 SA
ENDROOT
BRANCH   1   6
HETATM    6  C   UNK N   1      35.317  14.776  11.948  0.00  0.00    -0.057 C 
HETATM    7  C   UNK N   1      35.681  14.018  12.804  0.00  0.00    -0.073 C 
BRANCH   7   8
HETATM    8  C   UNK N   1      36.023  12.917  13.705  0.00  0.00     0.194 C 
HETATM    9  C   UNK N   1      37.202  12.158  13.116  0.00  0.00     0.049 C 
BRANCH   8  10
HETATM   10  N   UNK N   1      36.347  13.448  15.029  0.00  0.00    -0.194 N 
HETATM   11  C   UNK N   1      35.481  13.337  16.072  0.00  0.00     0.341 C 
HETATM   12  O   UNK N   1      35.782  13.801  17.163  0.00  0.00    -0.245 OA
HETATM   13  N   UNK N   1      34.288  12.726  15.921  0.00  0.00    -0.350 N 
HETATM   14  H   UNK N   1      33.994  12.375  15.049  0.00  0.00     0.160 HD
HETATM   15  H   UNK N   1      33.697  12.629  16.702  0.00  0.00     0.160 HD
BRANCH  10  16
HETATM   16  O   UNK N   1      37.514  14.087  15.226  0.00  0.00    -0.282 OA
HETATM   17  H   UNK N   1      38.311  13.854  14.724  0.00  0.00     0.245 HD
ENDBRANCH  10  16
ENDBRANCH   8  10
ENDBRANCH   7   8
ENDBRANCH   1   6
BRANCH   4  18
HETATM   18  C   UNK N   1      32.621  16.337   7.620  0.00  0.00     0.084 C 
BRANCH  18  19
HETATM   19  C   UNK N   1      31.325  17.084   7.797  0.00  0.00    -0.053 A 
HETATM   20  C   UNK N   1      30.227  16.900   6.944  0.00  0.00     0.010 A 
HETATM   21  C   UNK N   1      29.043  17.607   7.147  0.00  0.00     0.043 A 
HETATM   22  C   UNK N   1      28.945  18.508   8.208  0.00  0.00     0.116 A 
HETATM   23  C   UNK N   1      30.032  18.699   9.066  0.00  0.00     0.043 A 
HETATM   24  F   UNK N   1      27.795  19.194   8.404  0.00  0.00    -0.206 F 
HETATM   25  C   UNK N   1      31.220  17.988   8.860  0.00  0.00     0.010 A 
ENDBRANCH  18  19
ENDBRANCH   4  18
TORSDOF 6
ENDMDL
MODEL 8
REMARK VINA RESULT:      -6.4      7.602     10.597
REMARK  6 active torsions:
REMARK  status: ('A' for Active; 'I' for Inactive)
REMARK    1  A    between atoms: C_2  and  C_3 
REMARK    2  A    between atoms: C_2  and  N_18 
REMARK    3  A    between atoms: C_4  and  C_5 
REMARK    4  A    between atoms: C_8  and  C_10 
REMARK    5  A    between atoms: C_10  and  C_11 
REMARK       I    between atoms: N_18  and  C_19 
REMARK    6  A    between atoms: N_18  and  O_22 
REMARK       I    between atoms: C_19  and  N_21 
ROOT
HETATM    1  C   UNK N   1      30.423  17.252   7.831  0.00  0.00     0.058 A 
HETATM    2  C   UNK N   1      29.544  18.087   8.513  0.00  0.00     0.029 A 
HETATM    3  C   UNK N   1      28.242  18.087   7.935  0.00  0.00     0.017 A 
HETATM    4  C   UNK N   1      28.129  17.250   6.813  0.00  0.00    -0.012 A 
HETATM    5  S   UNK N   1      29.604  16.554   6.579  0.00  0.00    -0.085 SA
ENDROOT
BRANCH   1   6
HETATM    6  C   UNK N   1      31.802  17.026   8.114  0.00  0.00    -0.057 C 
HETATM    7  C   UNK N   1      32.991  16.990   8.271  0.00  0.00    -0.073 C 
BRANCH   7   8
HETATM    8  C   UNK N   1      34.444  17.153   8.325  0.00  0.00     0.194 C 
HETATM    9  C   UNK N   1      34.766  18.639   8.300  0.00  0.00     0.049 C 
BRANCH   8  10
HETATM   10  N   UNK N   1      34.965  16.522   9.537  0.00  0.00    -0.194 N 
HETATM   11  C   UNK N   1      35.508  15.274   9.513  0.00  0.00     0.341 C 
HETATM   12  O   UNK N   1      35.925  14.775  10.549  0.00  0.00    -0.245 OA
HETATM   13  N   UNK N   1      35.588  14.575   8.364  0.00  0.00    -0.350 N 
HETATM   14  H   UNK N   1      35.228  14.928   7.518  0.00  0.00     0.160 HD
HETATM   15  H   UNK N   1      36.017  13.689   8.370  0.00  0.00     0.160 HD
BRANCH  10  16
HETATM   16  O   UNK N   1      34.887  17.168  10.714  0.00  0.00    -0.282 OA
HETATM   17  H   UNK N   1      35.539  17.839  10.969  0.00  0.00     0.245 HD
ENDBRANCH  10  16
ENDBRANCH   8  10
ENDBRANCH   7   8
ENDBRANCH   1   6
BRANCH   4  18
HETATM   18  C   UNK N   1      26.940  17.004   5.923  0.00  0.00     0.084 C 
BRANCH  18  19
HETATM   19  C   UNK N   1      26.510  18.099   4.983  0.00  0.00    -0.053 A 
HETATM   20  C   UNK N   1      27.402  19.062   4.489  0.00  0.00     0.010 A 
HETATM   21  C   UNK N   1      26.964  20.055   3.615  0.00  0.00     0.043 A 
HETATM   22  C   UNK N   1      25.625  20.096   3.225  0.00  0.00     0.116 A 
HETATM   23  C   UNK N   1      24.726  19.141   3.709  0.00  0.00     0.043 A 
HETATM   24  F   UNK N   1      25.202  21.061   2.376  0.00  0.00    -0.206 F 
HETATM   25  C   UNK N   1      25.168  18.146   4.587  0.00  0.00     0.010 A 
ENDBRANCH  18  19
ENDBRANCH   4  18
TORSDOF 6
ENDMDL
MODEL 9
REMARK VINA RESULT:      -6.3     14.552     17.453
REMARK  6 active torsions:
REMARK  status: ('A' for Active; 'I' for Inactive)
REMARK    1  A    between atoms: C_2  and  C_3 
REMARK    2  A    between atoms: C_2  and  N_18 
REMARK    3  A    between atoms: C_4  and  C_5 
REMARK    4  A    between atoms: C_8  and  C_10 
REMARK    5  A    between atoms: C_10  and  C_11 
REMARK       I    between atoms: N_18  and  C_19 
REMARK    6  A    between atoms: N_18  and  O_22 
REMARK       I    between atoms: C_19  and  N_21 
ROOT
HETATM    1  C   UNK N   1      35.303  12.889  16.897  0.00  0.00     0.058 A 
HETATM    2  C   UNK N   1      35.300  13.694  18.032  0.00  0.00     0.029 A 
HETATM    3  C   UNK N   1      35.309  12.930  19.235  0.00  0.00     0.017 A 
HETATM    4  C   UNK N   1      35.320  11.543  19.015  0.00  0.00    -0.012 A 
HETATM    5  S   UNK N   1      35.321  11.312  17.384  0.00  0.00    -0.085 SA
ENDROOT
BRANCH   1   6
HETATM    6  C   UNK N   1      35.274  13.309  15.535  0.00  0.00    -0.057 C 
HETATM    7  C   UNK N   1      35.300  13.497  14.350  0.00  0.00    -0.073 C 
BRANCH   7   8
HETATM    8  C   UNK N   1      35.424  13.497  12.892  0.00  0.00     0.194 C 
HETATM    9  C   UNK N   1      36.066  14.806  12.460  0.00  0.00     0.049 C 
BRANCH   8  10
HETATM   10  N   UNK N   1      36.228  12.352  12.467  0.00  0.00    -0.194 N 
HETATM   11  C   UNK N   1      35.657  11.243  11.922  0.00  0.00     0.341 C 
HETATM   12  O   UNK N   1      36.361  10.301  11.588  0.00  0.00    -0.245 OA
HETATM   13  N   UNK N   1      34.323  11.164  11.750  0.00  0.00    -0.350 N 
HETATM   14  H   UNK N   1      33.720  11.886  12.042  0.00  0.00     0.160 HD
HETATM   15  H   UNK N   1      33.941  10.365  11.321  0.00  0.00     0.160 HD
BRANCH  10  16
HETATM   16  O   UNK N   1      37.562  12.371  12.640  0.00  0.00    -0.282 OA
HETATM   17  H   UNK N   1      38.158  11.891  12.044  0.00  0.00     0.245 HD
ENDBRANCH  10  16
ENDBRANCH   8  10
ENDBRANCH   7   8
ENDBRANCH   1   6
BRANCH   4  18
HETATM   18  C   UNK N   1      35.304  10.419  20.017  0.00  0.00     0.084 C 
BRANCH  18  19
HETATM   19  C   UNK N   1      34.006   9.696  20.261  0.00  0.00    -0.053 A 
HETATM   20  C   UNK N   1      33.155  10.015  21.330  0.00  0.00     0.010 A 
HETATM   21  C   UNK N   1      31.959   9.324  21.516  0.00  0.00     0.043 A 
HETATM   22  C   UNK N   1      31.599   8.306  20.633  0.00  0.00     0.116 A 
HETATM   23  C   UNK N   1      32.438   7.980  19.563  0.00  0.00     0.043 A 
HETATM   24  F   UNK N   1      30.437   7.637  20.814  0.00  0.00    -0.206 F 
HETATM   25  C   UNK N   1      33.639   8.674  19.378  0.00  0.00     0.010 A 
ENDBRANCH  18  19
ENDBRANCH   4  18
TORSDOF 6
ENDMDL
