REMARK  7 active torsions:
REMARK  status: ('A' for Active; 'I' for Inactive)
REMARK    1  A    between atoms: C_2  and  S_8 
REMARK    2  A    between atoms: C_11  and  S_8 
REMARK    3  A    between atoms: C_11  and  C_22 
REMARK    4  A    between atoms: C_14  and  C_17 
REMARK    5  A    between atoms: C_17  and  C_18 
REMARK    6  A    between atoms: C_18  and  C_19 
REMARK    7  A    between atoms: C_19  and  O_21 
ROOT
HETATM    1  C   UNK N   1      -1.693  -3.648  -0.009  0.00  0.00     0.098 C 
HETATM    2  C   UNK N   1      -2.092  -4.633   1.129  0.00  0.00     0.031 C 
HETATM    3  C   UNK N   1      -2.324  -6.052   0.613  0.00  0.00     0.007 C 
HETATM    4  C   UNK N   1      -3.528  -6.090  -0.347  0.00  0.00    -0.014 C 
HETATM    5  C   UNK N   1      -3.796  -4.735  -1.015  0.00  0.00     0.007 C 
HETATM    6  C   UNK N   1      -2.472  -4.037  -1.305  0.00  0.00     0.031 C 
ENDROOT
BRANCH   1   7
HETATM    7  S   UNK N   1      -2.240  -1.965   0.698  0.00  0.00     0.188 S 
HETATM    8  O   UNK N   1      -1.868  -1.552  -0.724  0.00  0.00    -0.221 OA
HETATM    9  O   UNK N   1      -0.839  -1.883   1.328  0.00  0.00    -0.221 OA
BRANCH   7  10
HETATM   10  C   UNK N   1      -2.181  -0.132   0.694  0.00  0.00     0.060 A 
HETATM   11  C   UNK N   1      -0.964   0.580   0.524  0.00  0.00     0.025 A 
HETATM   12  C   UNK N   1      -0.950   1.968   0.453  0.00  0.00     0.025 A 
HETATM   13  C   UNK N   1      -2.144   2.677   0.554  0.00  0.00     0.034 A 
HETATM   14  C   UNK N   1      -3.353   1.996   0.734  0.00  0.00     0.025 A 
HETATM   15 Cl   UNK N   1      -2.117   4.423   0.443  0.00  0.00    -0.084 Cl
HETATM   16  C   UNK N   1      -3.373   0.596   0.800  0.00  0.00     0.025 A 
ENDBRANCH   7  10
ENDBRANCH   1   7
BRANCH   1  17
HETATM   17  C   UNK N   1      -0.163  -3.780  -0.309  0.00  0.00     0.007 A 
HETATM   18  C   UNK N   1       0.495  -3.067  -1.356  0.00  0.00     0.124 A 
HETATM   19  C   UNK N   1       1.874  -3.198  -1.541  0.00  0.00     0.046 A 
HETATM   20  F   UNK N   1      -0.168  -2.266  -2.221  0.00  0.00    -0.205 F 
HETATM   21  C   UNK N   1       2.625  -4.035  -0.721  0.00  0.00     0.045 A 
HETATM   22  C   UNK N   1       2.000  -4.758   0.290  0.00  0.00     0.117 A 
HETATM   23  C   UNK N   1       0.626  -4.629   0.495  0.00  0.00     0.054 A 
HETATM   24  F   UNK N   1       2.728  -5.587   1.075  0.00  0.00    -0.206 F 
ENDBRANCH   1  17
BRANCH   4  25
HETATM   25  C   UNK N   1      -4.796  -6.555   0.360  0.00  0.00     0.015 C 
BRANCH  25  26
HETATM   26  C   UNK N   1      -4.675  -7.978   0.897  0.00  0.00     0.110 C 
BRANCH  26  27
HETATM   27  C   UNK N   1      -4.492  -8.970  -0.208  0.00  0.00     0.139 C 
HETATM   28  O   UNK N   1      -3.493  -9.667  -0.238  0.00  0.00    -0.650 OA
BRANCH  27  29
HETATM   29  O   UNK N   1      -5.431  -9.098  -1.166  0.00  0.00    -0.776 OA
HETATM   30  H   UNK N   1      -5.834  -8.578  -1.832  0.00  0.00     0.167 HD
ENDBRANCH  27  29
ENDBRANCH  26  27
ENDBRANCH  25  26
ENDBRANCH   4  25
TORSDOF 7
