MODEL 1
REMARK VINA RESULT:      -7.2      0.000      0.000
REMARK  11 active torsions:
REMARK  status: ('A' for Active; 'I' for Inactive)
REMARK    1  A    between atoms: C_4  and  C_15 
REMARK    2  A    between atoms: C_6  and  C_7 
REMARK    3  A    between atoms: C_7  and  C_8 
REMARK    4  A    between atoms: C_8  and  C_9 
REMARK    5  A    between atoms: C_9  and  N_10 
REMARK    6  A    between atoms: N_10  and  C_11 
REMARK    7  A    between atoms: C_11  and  C_12 
REMARK    8  A    between atoms: C_12  and  C_13 
REMARK    9  A    between atoms: C_13  and  O_14 
REMARK       I    between atoms: C_15  and  N_17 
REMARK   10  A    between atoms: N_17  and  C_18 
REMARK   11  A    between atoms: C_18  and  C_19 
ROOT
HETATM    1  C   UNK N   1      25.229  27.111  -5.339  0.00  0.00     0.009 A 
HETATM    2  C   UNK N   1      25.246  25.830  -5.884  0.00  0.00     0.025 A 
HETATM    3  C   UNK N   1      25.981  24.788  -5.295  0.00  0.00     0.049 A 
HETATM    4  C   UNK N   1      26.755  25.051  -4.106  0.00  0.00     0.054 A 
HETATM    5  C   UNK N   1      26.714  26.368  -3.613  0.00  0.00     0.026 A 
HETATM    6  C   UNK N   1      25.977  27.377  -4.201  0.00  0.00    -0.057 A 
HETATM    7 Cl   UNK N   1      25.795  23.264  -6.131  0.00  0.00    -0.083 Cl
ENDROOT
BRANCH   4   8
HETATM    8  C   UNK N   1      27.606  24.145  -3.221  0.00  0.00     0.253 C 
HETATM    9  O   UNK N   1      27.055  23.681  -2.236  0.00  0.00    -0.268 OA
HETATM   10  N   UNK N   1      28.905  23.782  -3.386  0.00  0.00    -0.356 N 
HETATM   11  H   UNK N   1      29.226  23.133  -2.718  0.00  0.00     0.162 HD
BRANCH  10  12
HETATM   12  C   UNK N   1      29.891  24.163  -4.347  0.00  0.00     0.132 C 
BRANCH  12  13
HETATM   13  C   UNK N   1      30.864  23.006  -4.541  0.00  0.00    -0.023 C 
HETATM   14  C   UNK N   1      30.245  21.995  -5.524  0.00  0.00     0.015 C 
HETATM   15  C   UNK N   1      31.195  20.812  -5.739  0.00  0.00    -0.013 C 
HETATM   16  C   UNK N   1      32.516  21.339  -6.318  0.00  0.00     0.009 C 
HETATM   17  C   UNK N   1      31.464  20.128  -4.389  0.00  0.00     0.009 C 
HETATM   18  C   UNK N   1      33.163  22.336  -5.341  0.00  0.00    -0.013 C 
HETATM   19  C   UNK N   1      32.210  23.512  -5.106  0.00  0.00     0.015 C 
HETATM   20  C   UNK N   1      33.420  21.641  -3.997  0.00  0.00     0.009 C 
HETATM   21  C   UNK N   1      32.095  21.128  -3.406  0.00  0.00    -0.013 C 
HETATM   22  C   UNK N   1      31.127  22.307  -3.198  0.00  0.00     0.015 C 
ENDBRANCH  12  13
ENDBRANCH  10  12
ENDBRANCH   4   8
BRANCH   6  23
HETATM   23  C   UNK N   1      25.918  28.691  -3.510  0.00  0.00     0.040 C 
BRANCH  23  24
HETATM   24  C   UNK N   1      26.672  29.783  -4.238  0.00  0.00     0.024 C 
BRANCH  24  25
HETATM   25  C   UNK N   1      28.011  29.979  -3.542  0.00  0.00     0.114 C 
BRANCH  25  26
HETATM   26  N   UNK N   1      27.879  29.774  -2.102  0.00  0.00    -0.421 N 
HETATM   27  H   UNK N   1      27.269  29.092  -1.651  0.00  0.00     0.153 HD
BRANCH  26  28
HETATM   28  C   UNK N   1      28.765  30.709  -1.419  0.00  0.00     0.115 C 
BRANCH  28  29
HETATM   29  C   UNK N   1      29.183  30.177  -0.059  0.00  0.00     0.045 C 
BRANCH  29  30
HETATM   30  C   UNK N   1      28.051  30.299   0.946  0.00  0.00     0.165 C 
BRANCH  30  31
HETATM   31  O   UNK N   1      27.427  29.061   1.104  0.00  0.00    -0.401 OA
HETATM   32  H   UNK N   1      27.428  28.094   1.031  0.00  0.00     0.209 HD
ENDBRANCH  30  31
ENDBRANCH  29  30
ENDBRANCH  28  29
ENDBRANCH  26  28
ENDBRANCH  25  26
ENDBRANCH  24  25
ENDBRANCH  23  24
ENDBRANCH   6  23
TORSDOF 11
ENDMDL
MODEL 2
REMARK VINA RESULT:      -7.0      3.308      7.543
REMARK  11 active torsions:
REMARK  status: ('A' for Active; 'I' for Inactive)
REMARK    1  A    between atoms: C_4  and  C_15 
REMARK    2  A    between atoms: C_6  and  C_7 
REMARK    3  A    between atoms: C_7  and  C_8 
REMARK    4  A    between atoms: C_8  and  C_9 
REMARK    5  A    between atoms: C_9  and  N_10 
REMARK    6  A    between atoms: N_10  and  C_11 
REMARK    7  A    between atoms: C_11  and  C_12 
REMARK    8  A    between atoms: C_12  and  C_13 
REMARK    9  A    between atoms: C_13  and  O_14 
REMARK       I    between atoms: C_15  and  N_17 
REMARK   10  A    between atoms: N_17  and  C_18 
REMARK   11  A    between atoms: C_18  and  C_19 
ROOT
HETATM    1  C   UNK N   1      29.025  20.756  -8.717  0.00  0.00     0.009 A 
HETATM    2  C   UNK N   1      28.215  20.901  -9.840  0.00  0.00     0.025 A 
HETATM    3  C   UNK N   1      27.022  21.642  -9.798  0.00  0.00     0.049 A 
HETATM    4  C   UNK N   1      26.611  22.254  -8.557  0.00  0.00     0.054 A 
HETATM    5  C   UNK N   1      27.460  22.055  -7.452  0.00  0.00     0.026 A 
HETATM    6  C   UNK N   1      28.634  21.332  -7.516  0.00  0.00    -0.057 A 
HETATM    7 Cl   UNK N   1      26.215  21.726 -11.347  0.00  0.00    -0.083 Cl
ENDROOT
BRANCH   4   8
HETATM    8  C   UNK N   1      25.419  23.136  -8.200  0.00  0.00     0.253 C 
HETATM    9  O   UNK N   1      24.347  22.568  -8.071  0.00  0.00    -0.268 OA
HETATM   10  N   UNK N   1      25.392  24.480  -8.002  0.00  0.00    -0.356 N 
HETATM   11  H   UNK N   1      24.515  24.825  -7.715  0.00  0.00     0.162 HD
BRANCH  10  12
HETATM   12  C   UNK N   1      26.397  25.487  -8.131  0.00  0.00     0.132 C 
BRANCH  12  13
HETATM   13  C   UNK N   1      26.611  26.148  -6.774  0.00  0.00    -0.023 C 
HETATM   14  C   UNK N   1      27.267  27.525  -6.989  0.00  0.00     0.015 C 
HETATM   15  C   UNK N   1      27.503  28.217  -5.643  0.00  0.00    -0.013 C 
HETATM   16  C   UNK N   1      26.150  28.404  -4.941  0.00  0.00     0.009 C 
HETATM   17  C   UNK N   1      28.415  27.336  -4.775  0.00  0.00     0.009 C 
HETATM   18  C   UNK N   1      25.486  27.038  -4.696  0.00  0.00    -0.013 C 
HETATM   19  C   UNK N   1      25.265  26.331  -6.038  0.00  0.00     0.015 C 
HETATM   20  C   UNK N   1      26.410  26.167  -3.833  0.00  0.00     0.009 C 
HETATM   21  C   UNK N   1      27.759  25.964  -4.544  0.00  0.00    -0.013 C 
HETATM   22  C   UNK N   1      27.533  25.280  -5.905  0.00  0.00     0.015 C 
ENDBRANCH  12  13
ENDBRANCH  10  12
ENDBRANCH   4   8
BRANCH   6  23
HETATM   23  C   UNK N   1      29.503  21.305  -6.311  0.00  0.00     0.040 C 
BRANCH  23  24
HETATM   24  C   UNK N   1      30.545  20.209  -6.352  0.00  0.00     0.024 C 
BRANCH  24  25
HETATM   25  C   UNK N   1      31.608  20.527  -5.310  0.00  0.00     0.114 C 
BRANCH  25  26
HETATM   26  N   UNK N   1      30.999  21.088  -4.107  0.00  0.00    -0.421 N 
HETATM   27  H   UNK N   1      30.119  20.785  -3.688  0.00  0.00     0.153 HD
BRANCH  26  28
HETATM   28  C   UNK N   1      31.861  22.151  -3.605  0.00  0.00     0.115 C 
BRANCH  28  29
HETATM   29  C   UNK N   1      31.186  23.506  -3.720  0.00  0.00     0.045 C 
BRANCH  29  30
HETATM   30  C   UNK N   1      30.103  23.669  -2.667  0.00  0.00     0.165 C 
BRANCH  30  31
HETATM   31  O   UNK N   1      30.462  22.972  -1.514  0.00  0.00    -0.401 OA
HETATM   32  H   UNK N   1      30.241  22.581  -0.654  0.00  0.00     0.209 HD
ENDBRANCH  30  31
ENDBRANCH  29  30
ENDBRANCH  28  29
ENDBRANCH  26  28
ENDBRANCH  25  26
ENDBRANCH  24  25
ENDBRANCH  23  24
ENDBRANCH   6  23
TORSDOF 11
ENDMDL
MODEL 3
REMARK VINA RESULT:      -7.0      3.211      7.511
REMARK  11 active torsions:
REMARK  status: ('A' for Active; 'I' for Inactive)
REMARK    1  A    between atoms: C_4  and  C_15 
REMARK    2  A    between atoms: C_6  and  C_7 
REMARK    3  A    between atoms: C_7  and  C_8 
REMARK    4  A    between atoms: C_8  and  C_9 
REMARK    5  A    between atoms: C_9  and  N_10 
REMARK    6  A    between atoms: N_10  and  C_11 
REMARK    7  A    between atoms: C_11  and  C_12 
REMARK    8  A    between atoms: C_12  and  C_13 
REMARK    9  A    between atoms: C_13  and  O_14 
REMARK       I    between atoms: C_15  and  N_17 
REMARK   10  A    between atoms: N_17  and  C_18 
REMARK   11  A    between atoms: C_18  and  C_19 
ROOT
HETATM    1  C   UNK N   1      29.234  20.842  -8.758  0.00  0.00     0.009 A 
HETATM    2  C   UNK N   1      28.109  20.795  -9.578  0.00  0.00     0.025 A 
HETATM    3  C   UNK N   1      26.884  21.356  -9.181  0.00  0.00     0.049 A 
HETATM    4  C   UNK N   1      26.776  21.979  -7.884  0.00  0.00     0.054 A 
HETATM    5  C   UNK N   1      27.940  21.977  -7.092  0.00  0.00     0.026 A 
HETATM    6  C   UNK N   1      29.138  21.430  -7.504  0.00  0.00    -0.057 A 
HETATM    7 Cl   UNK N   1      25.644  21.222 -10.406  0.00  0.00    -0.083 Cl
ENDROOT
BRANCH   4   8
HETATM    8  C   UNK N   1      25.625  22.700  -7.190  0.00  0.00     0.253 C 
HETATM    9  O   UNK N   1      24.751  21.990  -6.718  0.00  0.00    -0.268 OA
HETATM   10  N   UNK N   1      25.442  24.035  -7.023  0.00  0.00    -0.356 N 
HETATM   11  H   UNK N   1      24.651  24.267  -6.483  0.00  0.00     0.162 HD
BRANCH  10  12
HETATM   12  C   UNK N   1      26.181  25.168  -7.484  0.00  0.00     0.132 C 
BRANCH  12  13
HETATM   13  C   UNK N   1      26.521  26.053  -6.291  0.00  0.00    -0.023 C 
HETATM   14  C   UNK N   1      25.212  26.514  -5.623  0.00  0.00     0.015 C 
HETATM   15  C   UNK N   1      25.516  27.413  -4.421  0.00  0.00    -0.013 C 
HETATM   16  C   UNK N   1      26.349  26.616  -3.407  0.00  0.00     0.009 C 
HETATM   17  C   UNK N   1      26.317  28.636  -4.895  0.00  0.00     0.009 C 
HETATM   18  C   UNK N   1      27.673  26.164  -4.047  0.00  0.00    -0.013 C 
HETATM   19  C   UNK N   1      27.376  25.280  -5.262  0.00  0.00     0.015 C 
HETATM   20  C   UNK N   1      28.459  27.395  -4.520  0.00  0.00     0.009 C 
HETATM   21  C   UNK N   1      27.633  28.185  -5.550  0.00  0.00    -0.013 C 
HETATM   22  C   UNK N   1      27.310  27.286  -6.758  0.00  0.00     0.015 C 
ENDBRANCH  12  13
ENDBRANCH  10  12
ENDBRANCH   4   8
BRANCH   6  23
HETATM   23  C   UNK N   1      30.324  21.606  -6.626  0.00  0.00     0.040 C 
BRANCH  23  24
HETATM   24  C   UNK N   1      30.950  20.297  -6.198  0.00  0.00     0.024 C 
BRANCH  24  25
HETATM   25  C   UNK N   1      31.924  20.585  -5.065  0.00  0.00     0.114 C 
BRANCH  25  26
HETATM   26  N   UNK N   1      31.275  20.407  -3.769  0.00  0.00    -0.421 N 
HETATM   27  H   UNK N   1      30.864  19.540  -3.423  0.00  0.00     0.153 HD
BRANCH  26  28
HETATM   28  C   UNK N   1      31.313  21.676  -3.053  0.00  0.00     0.115 C 
BRANCH  28  29
HETATM   29  C   UNK N   1      30.115  22.541  -3.402  0.00  0.00     0.045 C 
BRANCH  29  30
HETATM   30  C   UNK N   1      29.418  23.041  -2.149  0.00  0.00     0.165 C 
BRANCH  30  31
HETATM   31  O   UNK N   1      30.323  23.067  -1.087  0.00  0.00    -0.401 OA
HETATM   32  H   UNK N   1      31.040  23.493  -0.594  0.00  0.00     0.209 HD
ENDBRANCH  30  31
ENDBRANCH  29  30
ENDBRANCH  28  29
ENDBRANCH  26  28
ENDBRANCH  25  26
ENDBRANCH  24  25
ENDBRANCH  23  24
ENDBRANCH   6  23
TORSDOF 11
ENDMDL
MODEL 4
REMARK VINA RESULT:      -6.9      3.153      7.771
REMARK  11 active torsions:
REMARK  status: ('A' for Active; 'I' for Inactive)
REMARK    1  A    between atoms: C_4  and  C_15 
REMARK    2  A    between atoms: C_6  and  C_7 
REMARK    3  A    between atoms: C_7  and  C_8 
REMARK    4  A    between atoms: C_8  and  C_9 
REMARK    5  A    between atoms: C_9  and  N_10 
REMARK    6  A    between atoms: N_10  and  C_11 
REMARK    7  A    between atoms: C_11  and  C_12 
REMARK    8  A    between atoms: C_12  and  C_13 
REMARK    9  A    between atoms: C_13  and  O_14 
REMARK       I    between atoms: C_15  and  N_17 
REMARK   10  A    between atoms: N_17  and  C_18 
REMARK   11  A    between atoms: C_18  and  C_19 
ROOT
HETATM    1  C   UNK N   1      30.199  20.728  -6.189  0.00  0.00     0.009 A 
HETATM    2  C   UNK N   1      31.201  20.666  -5.224  0.00  0.00     0.025 A 
HETATM    3  C   UNK N   1      31.345  21.664  -4.246  0.00  0.00     0.049 A 
HETATM    4  C   UNK N   1      30.449  22.794  -4.250  0.00  0.00     0.054 A 
HETATM    5  C   UNK N   1      29.470  22.812  -5.261  0.00  0.00     0.026 A 
HETATM    6  C   UNK N   1      29.337  21.816  -6.207  0.00  0.00    -0.057 A 
HETATM    7 Cl   UNK N   1      32.636  21.329  -3.115  0.00  0.00    -0.083 Cl
ENDROOT
BRANCH   4   8
HETATM    8  C   UNK N   1      30.319  23.997  -3.320  0.00  0.00     0.253 C 
HETATM    9  O   UNK N   1      30.458  23.774  -2.128  0.00  0.00    -0.268 OA
HETATM   10  N   UNK N   1      30.070  25.292  -3.644  0.00  0.00    -0.356 N 
HETATM   11  H   UNK N   1      30.094  25.909  -2.876  0.00  0.00     0.162 HD
BRANCH  10  12
HETATM   12  C   UNK N   1      29.781  25.929  -4.890  0.00  0.00     0.132 C 
BRANCH  12  13
HETATM   13  C   UNK N   1      28.510  26.757  -4.737  0.00  0.00    -0.023 C 
HETATM   14  C   UNK N   1      27.361  25.830  -4.299  0.00  0.00     0.015 C 
HETATM   15  C   UNK N   1      26.064  26.629  -4.141  0.00  0.00    -0.013 C 
HETATM   16  C   UNK N   1      26.277  27.711  -3.073  0.00  0.00     0.009 C 
HETATM   17  C   UNK N   1      25.713  27.293  -5.483  0.00  0.00     0.009 C 
HETATM   18  C   UNK N   1      27.407  28.663  -3.501  0.00  0.00    -0.013 C 
HETATM   19  C   UNK N   1      28.704  27.867  -3.680  0.00  0.00     0.015 C 
HETATM   20  C   UNK N   1      27.046  29.314  -4.844  0.00  0.00     0.009 C 
HETATM   21  C   UNK N   1      26.850  28.232  -5.920  0.00  0.00    -0.013 C 
HETATM   22  C   UNK N   1      28.145  27.414  -6.078  0.00  0.00     0.015 C 
ENDBRANCH  12  13
ENDBRANCH  10  12
ENDBRANCH   4   8
BRANCH   6  23
HETATM   23  C   UNK N   1      28.184  21.891  -7.142  0.00  0.00     0.040 C 
BRANCH  23  24
HETATM   24  C   UNK N   1      27.138  22.900  -6.721  0.00  0.00     0.024 C 
BRANCH  24  25
HETATM   25  C   UNK N   1      25.816  22.506  -7.362  0.00  0.00     0.114 C 
BRANCH  25  26
HETATM   26  N   UNK N   1      25.184  23.661  -7.993  0.00  0.00    -0.421 N 
HETATM   27  H   UNK N   1      24.272  23.665  -8.450  0.00  0.00     0.153 HD
BRANCH  26  28
HETATM   28  C   UNK N   1      26.076  24.807  -7.861  0.00  0.00     0.115 C 
BRANCH  28  29
HETATM   29  C   UNK N   1      25.841  25.818  -8.970  0.00  0.00     0.045 C 
BRANCH  29  30
HETATM   30  C   UNK N   1      25.687  25.128 -10.314  0.00  0.00     0.165 C 
BRANCH  30  31
HETATM   31  O   UNK N   1      24.338  25.081 -10.667  0.00  0.00    -0.401 OA
HETATM   32  H   UNK N   1      23.588  25.390 -11.198  0.00  0.00     0.209 HD
ENDBRANCH  30  31
ENDBRANCH  29  30
ENDBRANCH  28  29
ENDBRANCH  26  28
ENDBRANCH  25  26
ENDBRANCH  24  25
ENDBRANCH  23  24
ENDBRANCH   6  23
TORSDOF 11
ENDMDL
MODEL 5
REMARK VINA RESULT:      -6.9     17.814     20.541
REMARK  11 active torsions:
REMARK  status: ('A' for Active; 'I' for Inactive)
REMARK    1  A    between atoms: C_4  and  C_15 
REMARK    2  A    between atoms: C_6  and  C_7 
REMARK    3  A    between atoms: C_7  and  C_8 
REMARK    4  A    between atoms: C_8  and  C_9 
REMARK    5  A    between atoms: C_9  and  N_10 
REMARK    6  A    between atoms: N_10  and  C_11 
REMARK    7  A    between atoms: C_11  and  C_12 
REMARK    8  A    between atoms: C_12  and  C_13 
REMARK    9  A    between atoms: C_13  and  O_14 
REMARK       I    between atoms: C_15  and  N_17 
REMARK   10  A    between atoms: N_17  and  C_18 
REMARK   11  A    between atoms: C_18  and  C_19 
ROOT
HETATM    1  C   UNK N   1      33.746  14.531   8.760  0.00  0.00     0.009 A 
HETATM    2  C   UNK N   1      33.959  13.172   8.976  0.00  0.00     0.025 A 
HETATM    3  C   UNK N   1      35.034  12.709   9.752  0.00  0.00     0.049 A 
HETATM    4  C   UNK N   1      35.955  13.660  10.326  0.00  0.00     0.054 A 
HETATM    5  C   UNK N   1      35.700  15.017  10.057  0.00  0.00     0.026 A 
HETATM    6  C   UNK N   1      34.632  15.454   9.300  0.00  0.00    -0.057 A 
HETATM    7 Cl   UNK N   1      35.053  10.969   9.923  0.00  0.00    -0.083 Cl
ENDROOT
BRANCH   4   8
HETATM    8  C   UNK N   1      37.171  13.485  11.231  0.00  0.00     0.253 C 
HETATM    9  O   UNK N   1      38.229  13.243  10.672  0.00  0.00    -0.268 OA
HETATM   10  N   UNK N   1      37.234  13.566  12.586  0.00  0.00    -0.356 N 
HETATM   11  H   UNK N   1      38.146  13.480  12.950  0.00  0.00     0.162 HD
BRANCH  10  12
HETATM   12  C   UNK N   1      36.227  13.752  13.582  0.00  0.00     0.132 C 
BRANCH  12  13
HETATM   13  C   UNK N   1      35.956  12.417  14.266  0.00  0.00    -0.023 C 
HETATM   14  C   UNK N   1      35.414  12.685  15.682  0.00  0.00     0.015 C 
HETATM   15  C   UNK N   1      35.136  11.363  16.404  0.00  0.00    -0.013 C 
HETATM   16  C   UNK N   1      34.090  10.574  15.602  0.00  0.00     0.009 C 
HETATM   17  C   UNK N   1      36.438  10.550  16.490  0.00  0.00     0.009 C 
HETATM   18  C   UNK N   1      34.621  10.276  14.189  0.00  0.00    -0.013 C 
HETATM   19  C   UNK N   1      34.920  11.595  13.468  0.00  0.00     0.015 C 
HETATM   20  C   UNK N   1      35.923   9.469  14.290  0.00  0.00     0.009 C 
HETATM   21  C   UNK N   1      36.977  10.267  15.078  0.00  0.00    -0.013 C 
HETATM   22  C   UNK N   1      37.256  11.605  14.369  0.00  0.00     0.015 C 
ENDBRANCH  12  13
ENDBRANCH  10  12
ENDBRANCH   4   8
BRANCH   6  23
HETATM   23  C   UNK N   1      34.401  16.918   9.196  0.00  0.00     0.040 C 
BRANCH  23  24
HETATM   24  C   UNK N   1      33.860  17.344   7.849  0.00  0.00     0.024 C 
BRANCH  24  25
HETATM   25  C   UNK N   1      32.636  18.217   8.084  0.00  0.00     0.114 C 
BRANCH  25  26
HETATM   26  N   UNK N   1      31.708  17.567   9.005  0.00  0.00    -0.421 N 
HETATM   27  H   UNK N   1      31.790  17.552  10.022  0.00  0.00     0.153 HD
BRANCH  26  28
HETATM   28  C   UNK N   1      30.644  16.943   8.227  0.00  0.00     0.115 C 
BRANCH  28  29
HETATM   29  C   UNK N   1      29.464  17.883   8.057  0.00  0.00     0.045 C 
BRANCH  29  30
HETATM   30  C   UNK N   1      28.887  18.285   9.403  0.00  0.00     0.165 C 
BRANCH  30  31
HETATM   31  O   UNK N   1      27.495  18.231   9.354  0.00  0.00    -0.401 OA
HETATM   32  H   UNK N   1      26.668  18.072   8.873  0.00  0.00     0.209 HD
ENDBRANCH  30  31
ENDBRANCH  29  30
ENDBRANCH  28  29
ENDBRANCH  26  28
ENDBRANCH  25  26
ENDBRANCH  24  25
ENDBRANCH  23  24
ENDBRANCH   6  23
TORSDOF 11
ENDMDL
MODEL 6
REMARK VINA RESULT:      -6.9      2.855      4.571
REMARK  11 active torsions:
REMARK  status: ('A' for Active; 'I' for Inactive)
REMARK    1  A    between atoms: C_4  and  C_15 
REMARK    2  A    between atoms: C_6  and  C_7 
REMARK    3  A    between atoms: C_7  and  C_8 
REMARK    4  A    between atoms: C_8  and  C_9 
REMARK    5  A    between atoms: C_9  and  N_10 
REMARK    6  A    between atoms: N_10  and  C_11 
REMARK    7  A    between atoms: C_11  and  C_12 
REMARK    8  A    between atoms: C_12  and  C_13 
REMARK    9  A    between atoms: C_13  and  O_14 
REMARK       I    between atoms: C_15  and  N_17 
REMARK   10  A    between atoms: N_17  and  C_18 
REMARK   11  A    between atoms: C_18  and  C_19 
ROOT
HETATM    1  C   UNK N   1      27.442  29.111  -5.582  0.00  0.00     0.009 A 
HETATM    2  C   UNK N   1      28.725  29.464  -5.990  0.00  0.00     0.025 A 
HETATM    3  C   UNK N   1      29.867  28.879  -5.419  0.00  0.00     0.049 A 
HETATM    4  C   UNK N   1      29.714  27.901  -4.369  0.00  0.00     0.054 A 
HETATM    5  C   UNK N   1      28.394  27.600  -3.986  0.00  0.00     0.026 A 
HETATM    6  C   UNK N   1      27.283  28.178  -4.565  0.00  0.00    -0.057 A 
HETATM    7 Cl   UNK N   1      31.356  29.444  -6.141  0.00  0.00    -0.083 Cl
ENDROOT
BRANCH   4   8
HETATM    8  C   UNK N   1      30.730  27.070  -3.592  0.00  0.00     0.253 C 
HETATM    9  O   UNK N   1      31.108  27.537  -2.529  0.00  0.00    -0.268 OA
HETATM   10  N   UNK N   1      31.271  25.869  -3.925  0.00  0.00    -0.356 N 
HETATM   11  H   UNK N   1      31.860  25.490  -3.232  0.00  0.00     0.162 HD
BRANCH  10  12
HETATM   12  C   UNK N   1      31.145  25.053  -5.090  0.00  0.00     0.132 C 
BRANCH  12  13
HETATM   13  C   UNK N   1      31.385  23.598  -4.702  0.00  0.00    -0.023 C 
HETATM   14  C   UNK N   1      32.872  23.263  -4.923  0.00  0.00     0.015 C 
HETATM   15  C   UNK N   1      33.149  21.804  -4.548  0.00  0.00    -0.013 C 
HETATM   16  C   UNK N   1      32.799  21.600  -3.067  0.00  0.00     0.009 C 
HETATM   17  C   UNK N   1      32.274  20.885  -5.415  0.00  0.00     0.009 C 
HETATM   18  C   UNK N   1      31.310  21.908  -2.828  0.00  0.00    -0.013 C 
HETATM   19  C   UNK N   1      31.021  23.361  -3.219  0.00  0.00     0.015 C 
HETATM   20  C   UNK N   1      30.449  20.987  -3.703  0.00  0.00     0.009 C 
HETATM   21  C   UNK N   1      30.787  21.204  -5.188  0.00  0.00    -0.013 C 
HETATM   22  C   UNK N   1      30.524  22.671  -5.574  0.00  0.00     0.015 C 
ENDBRANCH  12  13
ENDBRANCH  10  12
ENDBRANCH   4   8
BRANCH   6  23
HETATM   23  C   UNK N   1      25.943  27.681  -4.157  0.00  0.00     0.040 C 
BRANCH  23  24
HETATM   24  C   UNK N   1      25.085  27.251  -5.327  0.00  0.00     0.024 C 
BRANCH  24  25
HETATM   25  C   UNK N   1      25.735  26.035  -5.971  0.00  0.00     0.114 C 
BRANCH  25  26
HETATM   26  N   UNK N   1      24.990  24.821  -5.651  0.00  0.00    -0.421 N 
HETATM   27  H   UNK N   1      23.974  24.743  -5.595  0.00  0.00     0.153 HD
BRANCH  26  28
HETATM   28  C   UNK N   1      25.941  23.740  -5.425  0.00  0.00     0.115 C 
BRANCH  28  29
HETATM   29  C   UNK N   1      27.321  24.282  -5.093  0.00  0.00     0.045 C 
BRANCH  29  30
HETATM   30  C   UNK N   1      27.641  24.096  -3.621  0.00  0.00     0.165 C 
BRANCH  30  31
HETATM   31  O   UNK N   1      26.471  24.200  -2.868  0.00  0.00    -0.401 OA
HETATM   32  H   UNK N   1      25.837  24.721  -2.352  0.00  0.00     0.209 HD
ENDBRANCH  30  31
ENDBRANCH  29  30
ENDBRANCH  28  29
ENDBRANCH  26  28
ENDBRANCH  25  26
ENDBRANCH  24  25
ENDBRANCH  23  24
ENDBRANCH   6  23
TORSDOF 11
ENDMDL
MODEL 7
REMARK VINA RESULT:      -6.8      3.433      8.125
REMARK  11 active torsions:
REMARK  status: ('A' for Active; 'I' for Inactive)
REMARK    1  A    between atoms: C_4  and  C_15 
REMARK    2  A    between atoms: C_6  and  C_7 
REMARK    3  A    between atoms: C_7  and  C_8 
REMARK    4  A    between atoms: C_8  and  C_9 
REMARK    5  A    between atoms: C_9  and  N_10 
REMARK    6  A    between atoms: N_10  and  C_11 
REMARK    7  A    between atoms: C_11  and  C_12 
REMARK    8  A    between atoms: C_12  and  C_13 
REMARK    9  A    between atoms: C_13  and  O_14 
REMARK       I    between atoms: C_15  and  N_17 
REMARK   10  A    between atoms: N_17  and  C_18 
REMARK   11  A    between atoms: C_18  and  C_19 
ROOT
HETATM    1  C   UNK N   1      29.649  21.399  -7.282  0.00  0.00     0.009 A 
HETATM    2  C   UNK N   1      28.748  21.193  -8.323  0.00  0.00     0.025 A 
HETATM    3  C   UNK N   1      27.455  21.743  -8.299  0.00  0.00     0.049 A 
HETATM    4  C   UNK N   1      27.038  22.523  -7.159  0.00  0.00     0.054 A 
HETATM    5  C   UNK N   1      27.985  22.679  -6.130  0.00  0.00     0.026 A 
HETATM    6  C   UNK N   1      29.255  22.140  -6.176  0.00  0.00    -0.057 A 
HETATM    7 Cl   UNK N   1      26.537  21.393  -9.745  0.00  0.00    -0.083 Cl
ENDROOT
BRANCH   4   8
HETATM    8  C   UNK N   1      25.746  23.274  -6.853  0.00  0.00     0.253 C 
HETATM    9  O   UNK N   1      24.786  22.588  -6.537  0.00  0.00    -0.268 OA
HETATM   10  N   UNK N   1      25.519  24.612  -6.883  0.00  0.00    -0.356 N 
HETATM   11  H   UNK N   1      24.617  24.872  -6.583  0.00  0.00     0.162 HD
BRANCH  10  12
HETATM   12  C   UNK N   1      26.342  25.715  -7.266  0.00  0.00     0.132 C 
BRANCH  12  13
HETATM   13  C   UNK N   1      26.577  26.603  -6.050  0.00  0.00    -0.023 C 
HETATM   14  C   UNK N   1      27.245  27.911  -6.510  0.00  0.00     0.015 C 
HETATM   15  C   UNK N   1      27.502  28.828  -5.310  0.00  0.00    -0.013 C 
HETATM   16  C   UNK N   1      26.158  29.154  -4.641  0.00  0.00     0.009 C 
HETATM   17  C   UNK N   1      28.413  28.103  -4.306  0.00  0.00     0.009 C 
HETATM   18  C   UNK N   1      25.482  27.860  -4.153  0.00  0.00    -0.013 C 
HETATM   19  C   UNK N   1      25.240  26.930  -5.347  0.00  0.00     0.015 C 
HETATM   20  C   UNK N   1      26.405  27.145  -3.157  0.00  0.00     0.009 C 
HETATM   21  C   UNK N   1      27.745  26.802  -3.831  0.00  0.00    -0.013 C 
HETATM   22  C   UNK N   1      27.498  25.891  -5.048  0.00  0.00     0.015 C 
ENDBRANCH  12  13
ENDBRANCH  10  12
ENDBRANCH   4   8
BRANCH   6  23
HETATM   23  C   UNK N   1      30.200  22.484  -5.083  0.00  0.00     0.040 C 
BRANCH  23  24
HETATM   24  C   UNK N   1      30.333  21.393  -4.043  0.00  0.00     0.024 C 
BRANCH  24  25
HETATM   25  C   UNK N   1      31.364  21.841  -3.017  0.00  0.00     0.114 C 
BRANCH  25  26
HETATM   26  N   UNK N   1      32.432  20.853  -2.893  0.00  0.00    -0.421 N 
HETATM   27  H   UNK N   1      32.450  20.075  -2.233  0.00  0.00     0.153 HD
BRANCH  26  28
HETATM   28  C   UNK N   1      33.468  21.166  -3.870  0.00  0.00     0.115 C 
BRANCH  28  29
HETATM   29  C   UNK N   1      33.598  20.062  -4.905  0.00  0.00     0.045 C 
BRANCH  29  30
HETATM   30  C   UNK N   1      34.409  18.898  -4.363  0.00  0.00     0.165 C 
BRANCH  30  31
HETATM   31  O   UNK N   1      33.589  18.074  -3.591  0.00  0.00    -0.401 OA
HETATM   32  H   UNK N   1      33.244  17.784  -2.733  0.00  0.00     0.209 HD
ENDBRANCH  30  31
ENDBRANCH  29  30
ENDBRANCH  28  29
ENDBRANCH  26  28
ENDBRANCH  25  26
ENDBRANCH  24  25
ENDBRANCH  23  24
ENDBRANCH   6  23
TORSDOF 11
ENDMDL
MODEL 8
REMARK VINA RESULT:      -6.8      3.484      7.832
REMARK  11 active torsions:
REMARK  status: ('A' for Active; 'I' for Inactive)
REMARK    1  A    between atoms: C_4  and  C_15 
REMARK    2  A    between atoms: C_6  and  C_7 
REMARK    3  A    between atoms: C_7  and  C_8 
REMARK    4  A    between atoms: C_8  and  C_9 
REMARK    5  A    between atoms: C_9  and  N_10 
REMARK    6  A    between atoms: N_10  and  C_11 
REMARK    7  A    between atoms: C_11  and  C_12 
REMARK    8  A    between atoms: C_12  and  C_13 
REMARK    9  A    between atoms: C_13  and  O_14 
REMARK       I    between atoms: C_15  and  N_17 
REMARK   10  A    between atoms: N_17  and  C_18 
REMARK   11  A    between atoms: C_18  and  C_19 
ROOT
HETATM    1  C   UNK N   1      29.502  21.785  -9.034  0.00  0.00     0.009 A 
HETATM    2  C   UNK N   1      29.100  23.017  -9.543  0.00  0.00     0.025 A 
HETATM    3  C   UNK N   1      27.864  23.589  -9.199  0.00  0.00     0.049 A 
HETATM    4  C   UNK N   1      26.976  22.876  -8.313  0.00  0.00     0.054 A 
HETATM    5  C   UNK N   1      27.428  21.627  -7.847  0.00  0.00     0.026 A 
HETATM    6  C   UNK N   1      28.651  21.086  -8.189  0.00  0.00    -0.057 A 
HETATM    7 Cl   UNK N   1      27.616  25.163  -9.917  0.00  0.00    -0.083 Cl
ENDROOT
BRANCH   4   8
HETATM    8  C   UNK N   1      25.614  23.235  -7.726  0.00  0.00     0.253 C 
HETATM    9  O   UNK N   1      24.672  23.223  -8.503  0.00  0.00    -0.268 OA
HETATM   10  N   UNK N   1      25.307  23.567  -6.445  0.00  0.00    -0.356 N 
HETATM   11  H   UNK N   1      24.343  23.697  -6.286  0.00  0.00     0.162 HD
BRANCH  10  12
HETATM   12  C   UNK N   1      26.118  23.762  -5.286  0.00  0.00     0.132 C 
BRANCH  12  13
HETATM   13  C   UNK N   1      26.373  25.254  -5.107  0.00  0.00    -0.023 C 
HETATM   14  C   UNK N   1      26.519  25.558  -3.604  0.00  0.00     0.015 C 
HETATM   15  C   UNK N   1      26.770  27.053  -3.386  0.00  0.00    -0.013 C 
HETATM   16  C   UNK N   1      28.066  27.446  -4.110  0.00  0.00     0.009 C 
HETATM   17  C   UNK N   1      25.594  27.853  -3.966  0.00  0.00     0.009 C 
HETATM   18  C   UNK N   1      27.934  27.172  -5.618  0.00  0.00    -0.013 C 
HETATM   19  C   UNK N   1      27.663  25.680  -5.843  0.00  0.00     0.015 C 
HETATM   20  C   UNK N   1      26.753  27.973  -6.183  0.00  0.00     0.009 C 
HETATM   21  C   UNK N   1      25.451  27.566  -5.470  0.00  0.00    -0.013 C 
HETATM   22  C   UNK N   1      25.194  26.062  -5.672  0.00  0.00     0.015 C 
ENDBRANCH  12  13
ENDBRANCH  10  12
ENDBRANCH   4   8
BRANCH   6  23
HETATM   23  C   UNK N   1      29.063  19.820  -7.530  0.00  0.00     0.040 C 
BRANCH  23  24
HETATM   24  C   UNK N   1      30.563  19.617  -7.511  0.00  0.00     0.024 C 
BRANCH  24  25
HETATM   25  C   UNK N   1      31.083  20.056  -6.151  0.00  0.00     0.114 C 
BRANCH  25  26
HETATM   26  N   UNK N   1      31.797  21.326  -6.256  0.00  0.00    -0.421 N 
HETATM   27  H   UNK N   1      32.537  21.539  -6.926  0.00  0.00     0.153 HD
BRANCH  26  28
HETATM   28  C   UNK N   1      31.276  22.236  -5.244  0.00  0.00     0.115 C 
BRANCH  28  29
HETATM   29  C   UNK N   1      30.573  21.477  -4.132  0.00  0.00     0.045 C 
BRANCH  29  30
HETATM   30  C   UNK N   1      30.901  22.072  -2.773  0.00  0.00     0.165 C 
BRANCH  30  31
HETATM   31  O   UNK N   1      32.076  21.502  -2.282  0.00  0.00    -0.401 OA
HETATM   32  H   UNK N   1      32.598  20.731  -2.013  0.00  0.00     0.209 HD
ENDBRANCH  30  31
ENDBRANCH  29  30
ENDBRANCH  28  29
ENDBRANCH  26  28
ENDBRANCH  25  26
ENDBRANCH  24  25
ENDBRANCH  23  24
ENDBRANCH   6  23
TORSDOF 11
ENDMDL
MODEL 9
REMARK VINA RESULT:      -6.8     10.767     12.838
REMARK  11 active torsions:
REMARK  status: ('A' for Active; 'I' for Inactive)
REMARK    1  A    between atoms: C_4  and  C_15 
REMARK    2  A    between atoms: C_6  and  C_7 
REMARK    3  A    between atoms: C_7  and  C_8 
REMARK    4  A    between atoms: C_8  and  C_9 
REMARK    5  A    between atoms: C_9  and  N_10 
REMARK    6  A    between atoms: N_10  and  C_11 
REMARK    7  A    between atoms: C_11  and  C_12 
REMARK    8  A    between atoms: C_12  and  C_13 
REMARK    9  A    between atoms: C_13  and  O_14 
REMARK       I    between atoms: C_15  and  N_17 
REMARK   10  A    between atoms: N_17  and  C_18 
REMARK   11  A    between atoms: C_18  and  C_19 
ROOT
HETATM    1  C   UNK N   1      26.730  20.928   5.487  0.00  0.00     0.009 A 
HETATM    2  C   UNK N   1      27.310  20.458   6.662  0.00  0.00     0.025 A 
HETATM    3  C   UNK N   1      27.899  19.185   6.735  0.00  0.00     0.049 A 
HETATM    4  C   UNK N   1      27.888  18.331   5.572  0.00  0.00     0.054 A 
HETATM    5  C   UNK N   1      27.269  18.853   4.420  0.00  0.00     0.026 A 
HETATM    6  C   UNK N   1      26.704  20.111   4.365  0.00  0.00    -0.057 A 
HETATM    7 Cl   UNK N   1      28.610  18.851   8.296  0.00  0.00    -0.083 Cl
ENDROOT
BRANCH   4   8
HETATM    8  C   UNK N   1      28.467  16.942   5.319  0.00  0.00     0.253 C 
HETATM    9  O   UNK N   1      27.672  16.016   5.333  0.00  0.00    -0.268 OA
HETATM   10  N   UNK N   1      29.758  16.597   5.077  0.00  0.00    -0.356 N 
HETATM   11  H   UNK N   1      29.886  15.640   4.878  0.00  0.00     0.162 HD
BRANCH  10  12
HETATM   12  C   UNK N   1      30.965  17.360   5.055  0.00  0.00     0.132 C 
BRANCH  12  13
HETATM   13  C   UNK N   1      31.931  16.786   6.085  0.00  0.00    -0.023 C 
HETATM   14  C   UNK N   1      33.365  16.883   5.532  0.00  0.00     0.015 C 
HETATM   15  C   UNK N   1      34.364  16.308   6.541  0.00  0.00    -0.013 C 
HETATM   16  C   UNK N   1      34.268  17.115   7.844  0.00  0.00     0.009 C 
HETATM   17  C   UNK N   1      34.011  14.838   6.820  0.00  0.00     0.009 C 
HETATM   18  C   UNK N   1      32.848  17.014   8.427  0.00  0.00    -0.013 C 
HETATM   19  C   UNK N   1      31.841  17.570   7.414  0.00  0.00     0.015 C 
HETATM   20  C   UNK N   1      32.508  15.542   8.695  0.00  0.00     0.009 C 
HETATM   21  C   UNK N   1      32.585  14.736   7.387  0.00  0.00    -0.013 C 
HETATM   22  C   UNK N   1      31.594  15.312   6.360  0.00  0.00     0.015 C 
ENDBRANCH  12  13
ENDBRANCH  10  12
ENDBRANCH   4   8
BRANCH   6  23
HETATM   23  C   UNK N   1      26.197  20.591   3.053  0.00  0.00     0.040 C 
BRANCH  23  24
HETATM   24  C   UNK N   1      24.887  19.950   2.649  0.00  0.00     0.024 C 
BRANCH  24  25
HETATM   25  C   UNK N   1      23.756  20.870   3.084  0.00  0.00     0.114 C 
BRANCH  25  26
HETATM   26  N   UNK N   1      22.461  20.308   2.711  0.00  0.00    -0.421 N 
HETATM   27  H   UNK N   1      21.840  20.672   1.987  0.00  0.00     0.153 HD
BRANCH  26  28
HETATM   28  C   UNK N   1      22.204  19.140   3.545  0.00  0.00     0.115 C 
BRANCH  28  29
HETATM   29  C   UNK N   1      20.714  18.901   3.713  0.00  0.00     0.045 C 
BRANCH  29  30
HETATM   30  C   UNK N   1      20.038  18.702   2.367  0.00  0.00     0.165 C 
BRANCH  30  31
HETATM   31  O   UNK N   1      18.654  18.668   2.537  0.00  0.00    -0.401 OA
HETATM   32  H   UNK N   1      17.771  19.036   2.383  0.00  0.00     0.209 HD
ENDBRANCH  30  31
ENDBRANCH  29  30
ENDBRANCH  28  29
ENDBRANCH  26  28
ENDBRANCH  25  26
ENDBRANCH  24  25
ENDBRANCH  23  24
ENDBRANCH   6  23
TORSDOF 11
ENDMDL
