REMARK  7 active torsions:
REMARK  status: ('A' for Active; 'I' for Inactive)
REMARK    1  A    between atoms: N_34  and  C_3 
REMARK    2  A    between atoms: C_21  and  C_18 
REMARK    3  A    between atoms: N_35  and  C_18 
REMARK    4  A    between atoms: C_22  and  C_20 
REMARK    5  A    between atoms: N_31  and  C_20 
REMARK    6  A    between atoms: C_25  and  C_23 
REMARK    7  A    between atoms: N_31  and  C_26 
ROOT
HETATM    1  C   UNK N   1       1.656   1.455  -0.212  0.00  0.00     0.049 A 
HETATM    2  C   UNK N   1       5.471   0.210   0.260  0.00  0.00     0.183 A 
HETATM    3  C   UNK N   1       2.979   1.241  -0.029  0.00  0.00     0.054 A 
HETATM    4  C   UNK N   1       1.063   0.215  -0.227  0.00  0.00     0.045 A 
HETATM    5  C   UNK N   1       4.053   2.131   0.100  0.00  0.00     0.116 A 
HETATM    6  C   UNK N   1       3.162  -0.103   0.032  0.00  0.00     0.120 A 
HETATM    7  N   UNK N   1       5.296   1.576   0.225  0.00  0.00    -0.338 N 
ATOM      8  HN  UNK N   1       6.111   2.186   0.295  1.00  0.00     0.168 HD
HETATM    9  N   UNK N   1       4.396  -0.641   0.181  0.00  0.00    -0.338 N 
HETATM   10  N   UNK N   1       1.986  -0.770  -0.060  0.00  0.00    -0.341 N 
HETATM   11  H   UNK N   1       4.520  -1.616   0.231  0.00  0.00     0.168 HD
HETATM   12  H   UNK N   1       1.835  -1.742  -0.017  0.00  0.00     0.167 HD
ENDROOT
BRANCH   4  13
HETATM   13  C   UNK N   1      -0.400   0.115  -0.347  0.00  0.00    -0.009 A 
HETATM   14  C   UNK N   1      -1.151  -1.004   0.045  0.00  0.00     0.014 A 
HETATM   15  C   UNK N   1      -2.561  -0.922   0.045  0.00  0.00     0.010 A 
HETATM   16  C   UNK N   1      -3.201   0.265  -0.366  0.00  0.00    -0.030 A 
HETATM   17  C   UNK N   1      -2.440   1.329  -0.824  0.00  0.00     0.010 A 
HETATM   18  C   UNK N   1      -1.065   1.265  -0.788  0.00  0.00     0.014 A 
BRANCH  16  19
HETATM   19  C   UNK N   1      -4.698   0.415  -0.334  0.00  0.00     0.311 C 
BRANCH  19  20
HETATM   20  N   UNK N   1      -5.229   1.472   0.561  0.00  0.00     0.096 N 
HETATM   21  C   UNK N   1      -6.363   2.119  -0.117  0.00  0.00     0.303 C 
HETATM   22  C   UNK N   1      -6.486   3.606   0.231  0.00  0.00     0.302 C 
HETATM   23  N   UNK N   1      -5.284   4.324  -0.199  0.00  0.00     0.091 N 
HETATM   24  C   UNK N   1      -4.039   3.664   0.233  0.00  0.00     0.302 C 
HETATM   25  C   UNK N   1      -4.259   2.432   1.134  0.00  0.00     0.303 C 
BRANCH  23  26
HETATM   26  C   UNK N   1      -5.328   5.652   0.395  0.00  0.00     0.268 C 
HETATM   27  C   UNK N   1      -4.482   6.624  -0.413  0.00  0.00     0.037 C 
ENDBRANCH  23  26
ENDBRANCH  19  20
ENDBRANCH  16  19
ENDBRANCH   4  13
BRANCH   5  28
HETATM   28  N   UNK N   1       3.908   3.429   0.135  0.00  0.00    -0.367 N 
ATOM     29  HN  UNK N   1       4.754   4.000   0.153  1.00  0.00     0.161 HD
BRANCH  28  30
HETATM   30  C   UNK N   1       2.616   4.125   0.150  0.00  0.00     0.112 C 
HETATM   31  C   UNK N   1       1.898   3.825   1.469  0.00  0.00     0.037 C 
BRANCH  30  32
HETATM   32  C   UNK N   1       2.699   5.619   0.020  0.00  0.00    -0.036 A 
HETATM   33  C   UNK N   1       1.498   6.351  -0.020  0.00  0.00     0.009 A 
HETATM   34  C   UNK N   1       1.514   7.739  -0.147  0.00  0.00     0.001 A 
HETATM   35  C   UNK N   1       2.733   8.411  -0.239  0.00  0.00     0.000 A 
HETATM   36  C   UNK N   1       3.934   7.692  -0.205  0.00  0.00     0.001 A 
HETATM   37  C   UNK N   1       3.920   6.298  -0.077  0.00  0.00     0.009 A 
ENDBRANCH  30  32
ENDBRANCH  28  30
ENDBRANCH   5  28
TORSDOF 7
