MODEL 1
REMARK VINA RESULT:      -6.1      0.000      0.000
REMARK  6 active torsions:
REMARK  status: ('A' for Active; 'I' for Inactive)
REMARK    1  A    between atoms: C_13  and  C_10 
REMARK    2  A    between atoms: N_14  and  C_10 
REMARK    3  A    between atoms: C_13  and  C_11 
REMARK    4  A    between atoms: O_16  and  C_11 
REMARK    5  A    between atoms: N_15  and  C_12 
REMARK    6  A    between atoms: C_13  and  O_17 
ROOT
HETATM    1  C   UNK N   1      36.475  13.776  13.869  0.00  0.00     0.292 C 
HETATM    2  C   UNK N   1      34.931  12.125  13.382  0.00  0.00     0.292 C 
HETATM    3  C   UNK N   1      36.313  13.688  15.376  0.00  0.00     0.153 C 
HETATM    4  C   UNK N   1      34.768  11.719  14.852  0.00  0.00     0.153 C 
HETATM    5  N   UNK N   1      35.179  13.552  13.245  0.00  0.00     0.094 N 
HETATM    6  N   UNK N   1      35.535  12.535  15.801  0.00  0.00    -0.378 N 
ENDROOT
BRANCH   5   7
HETATM    7  C   UNK N   1      35.217  13.842  11.808  0.00  0.00     0.306 C 
BRANCH   7   8
HETATM    8  C   UNK N   1      34.690  15.231  11.429  0.00  0.00     0.170 C 
BRANCH   8   9
HETATM    9  C   UNK N   1      35.553  15.808  10.321  0.00  0.00     0.197 C 
BRANCH   9  10
HETATM   10  O   UNK N   1      36.807  16.161  10.822  0.00  0.00    -0.398 OA
HETATM   11  H   UNK N   1      36.906  16.866  11.481  0.00  0.00     0.209 HD
ENDBRANCH   9  10
ENDBRANCH   8   9
BRANCH   8  12
HETATM   12  O   UNK N   1      33.365  15.151  10.994  0.00  0.00    -0.392 OA
HETATM   13  H   UNK N   1      32.780  14.383  10.910  0.00  0.00     0.210 HD
ENDBRANCH   8  12
ENDBRANCH   7   8
ENDBRANCH   5   7
BRANCH   6  14
HETATM   14  C   UNK N   1      35.469  12.214  17.193  0.00  0.00     0.030 A 
HETATM   15  C   UNK N   1      35.197  13.202  18.151  0.00  0.00     0.029 A 
HETATM   16  C   UNK N   1      35.116  12.878  19.508  0.00  0.00     0.002 A 
HETATM   17  C   UNK N   1      35.319  11.558  19.925  0.00  0.00     0.000 A 
HETATM   18  C   UNK N   1      35.597  10.565  18.984  0.00  0.00     0.002 A 
HETATM   19  C   UNK N   1      35.667  10.886  17.625  0.00  0.00     0.029 A 
ENDBRANCH   6  14
TORSDOF 6
ENDMDL
MODEL 2
REMARK VINA RESULT:      -5.8      8.371     12.196
REMARK  6 active torsions:
REMARK  status: ('A' for Active; 'I' for Inactive)
REMARK    1  A    between atoms: C_13  and  C_10 
REMARK    2  A    between atoms: N_14  and  C_10 
REMARK    3  A    between atoms: C_13  and  C_11 
REMARK    4  A    between atoms: O_16  and  C_11 
REMARK    5  A    between atoms: N_15  and  C_12 
REMARK    6  A    between atoms: C_13  and  O_17 
ROOT
HETATM    1  C   UNK N   1      30.263  17.441   8.869  0.00  0.00     0.292 C 
HETATM    2  C   UNK N   1      30.929  16.437   6.896  0.00  0.00     0.292 C 
HETATM    3  C   UNK N   1      29.376  18.484   8.211  0.00  0.00     0.153 C 
HETATM    4  C   UNK N   1      29.940  17.245   6.047  0.00  0.00     0.153 C 
HETATM    5  N   UNK N   1      31.424  17.213   8.022  0.00  0.00     0.094 N 
HETATM    6  N   UNK N   1      29.158  18.236   6.794  0.00  0.00    -0.378 N 
ENDROOT
BRANCH   5   7
HETATM    7  C   UNK N   1      32.429  16.386   8.700  0.00  0.00     0.306 C 
BRANCH   7   8
HETATM    8  C   UNK N   1      33.845  16.974   8.685  0.00  0.00     0.170 C 
BRANCH   8   9
HETATM    9  C   UNK N   1      33.826  18.304   7.953  0.00  0.00     0.197 C 
BRANCH   9  10
HETATM   10  O   UNK N   1      34.938  19.068   8.312  0.00  0.00    -0.398 OA
HETATM   11  H   UNK N   1      35.808  18.660   8.441  0.00  0.00     0.209 HD
ENDBRANCH   9  10
ENDBRANCH   8   9
BRANCH   8  12
HETATM   12  O   UNK N   1      34.309  17.167   9.988  0.00  0.00    -0.392 OA
HETATM   13  H   UNK N   1      33.817  17.284  10.816  0.00  0.00     0.210 HD
ENDBRANCH   8  12
ENDBRANCH   7   8
ENDBRANCH   5   7
BRANCH   6  14
HETATM   14  C   UNK N   1      28.188  19.018   6.093  0.00  0.00     0.030 A 
HETATM   15  C   UNK N   1      27.493  20.055   6.734  0.00  0.00     0.029 A 
HETATM   16  C   UNK N   1      26.559  20.826   6.037  0.00  0.00     0.002 A 
HETATM   17  C   UNK N   1      26.301  20.562   4.689  0.00  0.00     0.000 A 
HETATM   18  C   UNK N   1      26.980  19.530   4.038  0.00  0.00     0.002 A 
HETATM   19  C   UNK N   1      27.921  18.765   4.731  0.00  0.00     0.029 A 
ENDBRANCH   6  14
TORSDOF 6
ENDMDL
MODEL 3
REMARK VINA RESULT:      -5.8      1.026      1.570
REMARK  6 active torsions:
REMARK  status: ('A' for Active; 'I' for Inactive)
REMARK    1  A    between atoms: C_13  and  C_10 
REMARK    2  A    between atoms: N_14  and  C_10 
REMARK    3  A    between atoms: C_13  and  C_11 
REMARK    4  A    between atoms: O_16  and  C_11 
REMARK    5  A    between atoms: N_15  and  C_12 
REMARK    6  A    between atoms: C_13  and  O_17 
ROOT
HETATM    1  C   UNK N   1      36.405  13.887  13.235  0.00  0.00     0.292 C 
HETATM    2  C   UNK N   1      34.887  12.191  12.828  0.00  0.00     0.292 C 
HETATM    3  C   UNK N   1      36.255  13.859  14.745  0.00  0.00     0.153 C 
HETATM    4  C   UNK N   1      34.741  11.844  14.315  0.00  0.00     0.153 C 
HETATM    5  N   UNK N   1      35.110  13.615  12.631  0.00  0.00     0.094 N 
HETATM    6  N   UNK N   1      35.500  12.712  15.224  0.00  0.00    -0.378 N 
ENDROOT
BRANCH   5   7
HETATM    7  C   UNK N   1      35.133  13.845  11.182  0.00  0.00     0.306 C 
BRANCH   7   8
HETATM    8  C   UNK N   1      34.373  15.099  10.729  0.00  0.00     0.170 C 
BRANCH   8   9
HETATM    9  C   UNK N   1      34.482  15.231   9.221  0.00  0.00     0.197 C 
BRANCH   9  10
HETATM   10  O   UNK N   1      34.367  16.570   8.845  0.00  0.00    -0.398 OA
HETATM   11  H   UNK N   1      33.764  17.172   9.309  0.00  0.00     0.209 HD
ENDBRANCH   9  10
ENDBRANCH   8   9
BRANCH   8  12
HETATM   12  O   UNK N   1      33.028  15.015  11.094  0.00  0.00    -0.392 OA
HETATM   13  H   UNK N   1      32.231  14.994  10.541  0.00  0.00     0.210 HD
ENDBRANCH   8  12
ENDBRANCH   7   8
ENDBRANCH   5   7
BRANCH   6  14
HETATM   14  C   UNK N   1      35.449  12.448  16.628  0.00  0.00     0.030 A 
HETATM   15  C   UNK N   1      35.674  11.156  17.129  0.00  0.00     0.029 A 
HETATM   16  C   UNK N   1      35.641  10.909  18.504  0.00  0.00     0.002 A 
HETATM   17  C   UNK N   1      35.372  11.952  19.396  0.00  0.00     0.000 A 
HETATM   18  C   UNK N   1      35.140  13.240  18.912  0.00  0.00     0.002 A 
HETATM   19  C   UNK N   1      35.184  13.491  17.538  0.00  0.00     0.029 A 
ENDBRANCH   6  14
TORSDOF 6
ENDMDL
MODEL 4
REMARK VINA RESULT:      -5.5      5.731     10.169
REMARK  6 active torsions:
REMARK  status: ('A' for Active; 'I' for Inactive)
REMARK    1  A    between atoms: C_13  and  C_10 
REMARK    2  A    between atoms: N_14  and  C_10 
REMARK    3  A    between atoms: C_13  and  C_11 
REMARK    4  A    between atoms: O_16  and  C_11 
REMARK    5  A    between atoms: N_15  and  C_12 
REMARK    6  A    between atoms: C_13  and  O_17 
ROOT
HETATM    1  C   UNK N   1      33.153  15.235   7.601  0.00  0.00     0.292 C 
HETATM    2  C   UNK N   1      33.672  17.193   8.715  0.00  0.00     0.292 C 
HETATM    3  C   UNK N   1      31.712  15.610   7.307  0.00  0.00     0.153 C 
HETATM    4  C   UNK N   1      32.341  17.860   8.348  0.00  0.00     0.153 C 
HETATM    5  N   UNK N   1      33.517  15.760   8.909  0.00  0.00     0.094 N 
HETATM    6  N   UNK N   1      31.414  17.005   7.597  0.00  0.00    -0.378 N 
ENDROOT
BRANCH   5   7
HETATM    7  C   UNK N   1      34.817  15.246   9.352  0.00  0.00     0.306 C 
BRANCH   7   8
HETATM    8  C   UNK N   1      34.864  14.834  10.829  0.00  0.00     0.170 C 
BRANCH   8   9
HETATM    9  C   UNK N   1      35.742  15.809  11.592  0.00  0.00     0.197 C 
BRANCH   9  10
HETATM   10  O   UNK N   1      36.893  16.098  10.857  0.00  0.00    -0.398 OA
HETATM   11  H   UNK N   1      37.524  15.401  10.616  0.00  0.00     0.209 HD
ENDBRANCH   9  10
ENDBRANCH   8   9
BRANCH   8  12
HETATM   12  O   UNK N   1      33.580  14.835  11.379  0.00  0.00    -0.392 OA
HETATM   13  H   UNK N   1      32.999  14.094  11.612  0.00  0.00     0.210 HD
ENDBRANCH   8  12
ENDBRANCH   7   8
ENDBRANCH   5   7
BRANCH   6  14
HETATM   14  C   UNK N   1      30.158  17.549   7.183  0.00  0.00     0.030 A 
HETATM   15  C   UNK N   1      29.338  18.242   8.087  0.00  0.00     0.029 A 
HETATM   16  C   UNK N   1      28.120  18.787   7.671  0.00  0.00     0.002 A 
HETATM   17  C   UNK N   1      27.702  18.636   6.345  0.00  0.00     0.000 A 
HETATM   18  C   UNK N   1      28.505  17.945   5.436  0.00  0.00     0.002 A 
HETATM   19  C   UNK N   1      29.728  17.408   5.848  0.00  0.00     0.029 A 
ENDBRANCH   6  14
TORSDOF 6
ENDMDL
MODEL 5
REMARK VINA RESULT:      -5.4     20.332     23.495
REMARK  6 active torsions:
REMARK  status: ('A' for Active; 'I' for Inactive)
REMARK    1  A    between atoms: C_13  and  C_10 
REMARK    2  A    between atoms: N_14  and  C_10 
REMARK    3  A    between atoms: C_13  and  C_11 
REMARK    4  A    between atoms: O_16  and  C_11 
REMARK    5  A    between atoms: N_15  and  C_12 
REMARK    6  A    between atoms: C_13  and  O_17 
ROOT
HETATM    1  C   UNK N   1      30.409  24.632  -3.443  0.00  0.00     0.292 C 
HETATM    2  C   UNK N   1      28.915  23.178  -2.441  0.00  0.00     0.292 C 
HETATM    3  C   UNK N   1      29.360  25.405  -4.224  0.00  0.00     0.153 C 
HETATM    4  C   UNK N   1      27.689  23.942  -2.956  0.00  0.00     0.153 C 
HETATM    5  N   UNK N   1      30.016  23.231  -3.392  0.00  0.00     0.094 N 
HETATM    6  N   UNK N   1      27.999  25.086  -3.822  0.00  0.00    -0.378 N 
ENDROOT
BRANCH   5   7
HETATM    7  C   UNK N   1      31.089  22.392  -2.848  0.00  0.00     0.306 C 
BRANCH   7   8
HETATM    8  C   UNK N   1      31.853  21.581  -3.902  0.00  0.00     0.170 C 
BRANCH   8   9
HETATM    9  C   UNK N   1      33.133  21.044  -3.288  0.00  0.00     0.197 C 
BRANCH   9  10
HETATM   10  O   UNK N   1      33.040  21.054  -1.895  0.00  0.00    -0.398 OA
HETATM   11  H   UNK N   1      32.840  21.870  -1.410  0.00  0.00     0.209 HD
ENDBRANCH   9  10
ENDBRANCH   8   9
BRANCH   8  12
HETATM   12  O   UNK N   1      31.074  20.517  -4.362  0.00  0.00    -0.392 OA
HETATM   13  H   UNK N   1      31.315  19.593  -4.529  0.00  0.00     0.210 HD
ENDBRANCH   8  12
ENDBRANCH   7   8
ENDBRANCH   5   7
BRANCH   6  14
HETATM   14  C   UNK N   1      26.921  25.877  -4.327  0.00  0.00     0.030 A 
HETATM   15  C   UNK N   1      26.533  27.063  -3.685  0.00  0.00     0.029 A 
HETATM   16  C   UNK N   1      25.490  27.842  -4.195  0.00  0.00     0.002 A 
HETATM   17  C   UNK N   1      24.814  27.436  -5.349  0.00  0.00     0.000 A 
HETATM   18  C   UNK N   1      25.184  26.256  -5.995  0.00  0.00     0.002 A 
HETATM   19  C   UNK N   1      26.234  25.482  -5.494  0.00  0.00     0.029 A 
ENDBRANCH   6  14
TORSDOF 6
ENDMDL
MODEL 6
REMARK VINA RESULT:      -5.4      3.042      8.280
REMARK  6 active torsions:
REMARK  status: ('A' for Active; 'I' for Inactive)
REMARK    1  A    between atoms: C_13  and  C_10 
REMARK    2  A    between atoms: N_14  and  C_10 
REMARK    3  A    between atoms: C_13  and  C_11 
REMARK    4  A    between atoms: O_16  and  C_11 
REMARK    5  A    between atoms: N_15  and  C_12 
REMARK    6  A    between atoms: C_13  and  O_17 
ROOT
HETATM    1  C   UNK N   1      36.840  13.683  10.879  0.00  0.00     0.292 C 
HETATM    2  C   UNK N   1      36.033  15.299  12.323  0.00  0.00     0.292 C 
HETATM    3  C   UNK N   1      36.077  14.179   9.663  0.00  0.00     0.153 C 
HETATM    4  C   UNK N   1      35.351  16.090  11.199  0.00  0.00     0.153 C 
HETATM    5  N   UNK N   1      36.009  13.868  12.059  0.00  0.00     0.094 N 
HETATM    6  N   UNK N   1      35.453  15.477   9.870  0.00  0.00    -0.378 N 
ENDROOT
BRANCH   5   7
HETATM    7  C   UNK N   1      36.591  13.210  13.234  0.00  0.00     0.306 C 
BRANCH   7   8
HETATM    8  C   UNK N   1      36.365  13.957  14.554  0.00  0.00     0.170 C 
BRANCH   8   9
HETATM    9  C   UNK N   1      35.373  13.182  15.403  0.00  0.00     0.197 C 
BRANCH   9  10
HETATM   10  O   UNK N   1      34.281  12.788  14.629  0.00  0.00    -0.398 OA
HETATM   11  H   UNK N   1      33.827  13.415  14.044  0.00  0.00     0.209 HD
ENDBRANCH   9  10
ENDBRANCH   8   9
BRANCH   8  12
HETATM   12  O   UNK N   1      37.567  14.094  15.251  0.00  0.00    -0.392 OA
HETATM   13  H   UNK N   1      38.483  14.024  14.939  0.00  0.00     0.210 HD
ENDBRANCH   8  12
ENDBRANCH   7   8
ENDBRANCH   5   7
BRANCH   6  14
HETATM   14  C   UNK N   1      34.873  16.157   8.753  0.00  0.00     0.030 A 
HETATM   15  C   UNK N   1      34.843  15.564   7.482  0.00  0.00     0.029 A 
HETATM   16  C   UNK N   1      34.258  16.227   6.399  0.00  0.00     0.002 A 
HETATM   17  C   UNK N   1      33.706  17.499   6.574  0.00  0.00     0.000 A 
HETATM   18  C   UNK N   1      33.734  18.104   7.832  0.00  0.00     0.002 A 
HETATM   19  C   UNK N   1      34.308  17.438   8.918  0.00  0.00     0.029 A 
ENDBRANCH   6  14
TORSDOF 6
ENDMDL
MODEL 7
REMARK VINA RESULT:      -5.3     14.094     15.879
REMARK  6 active torsions:
REMARK  status: ('A' for Active; 'I' for Inactive)
REMARK    1  A    between atoms: C_13  and  C_10 
REMARK    2  A    between atoms: N_14  and  C_10 
REMARK    3  A    between atoms: C_13  and  C_11 
REMARK    4  A    between atoms: O_16  and  C_11 
REMARK    5  A    between atoms: N_15  and  C_12 
REMARK    6  A    between atoms: C_13  and  O_17 
ROOT
HETATM    1  C   UNK N   1      21.844  15.352   6.123  0.00  0.00     0.292 C 
HETATM    2  C   UNK N   1      20.387  16.461   7.535  0.00  0.00     0.292 C 
HETATM    3  C   UNK N   1      22.449  14.469   7.201  0.00  0.00     0.153 C 
HETATM    4  C   UNK N   1      20.694  15.539   8.722  0.00  0.00     0.153 C 
HETATM    5  N   UNK N   1      21.558  16.659   6.695  0.00  0.00     0.094 N 
HETATM    6  N   UNK N   1      21.724  14.526   8.460  0.00  0.00    -0.378 N 
ENDROOT
BRANCH   5   7
HETATM    7  C   UNK N   1      21.180  17.628   5.660  0.00  0.00     0.306 C 
BRANCH   7   8
HETATM    8  C   UNK N   1      21.229  17.076   4.230  0.00  0.00     0.170 C 
BRANCH   8   9
HETATM    9  C   UNK N   1      19.883  17.298   3.563  0.00  0.00     0.197 C 
BRANCH   9  10
HETATM   10  O   UNK N   1      18.887  16.594   4.242  0.00  0.00    -0.398 OA
HETATM   11  H   UNK N   1      18.798  16.653   5.206  0.00  0.00     0.209 HD
ENDBRANCH   9  10
ENDBRANCH   8   9
BRANCH   8  12
HETATM   12  O   UNK N   1      22.226  17.717   3.491  0.00  0.00    -0.392 OA
HETATM   13  H   UNK N   1      23.104  18.027   3.763  0.00  0.00     0.210 HD
ENDBRANCH   8  12
ENDBRANCH   7   8
ENDBRANCH   5   7
BRANCH   6  14
HETATM   14  C   UNK N   1      22.057  13.601   9.499  0.00  0.00     0.030 A 
HETATM   15  C   UNK N   1      21.064  13.054  10.325  0.00  0.00     0.029 A 
HETATM   16  C   UNK N   1      21.395  12.137  11.327  0.00  0.00     0.002 A 
HETATM   17  C   UNK N   1      22.729  11.763  11.519  0.00  0.00     0.000 A 
HETATM   18  C   UNK N   1      23.728  12.303  10.708  0.00  0.00     0.002 A 
HETATM   19  C   UNK N   1      23.397  13.212   9.700  0.00  0.00     0.029 A 
ENDBRANCH   6  14
TORSDOF 6
ENDMDL
MODEL 8
REMARK VINA RESULT:      -5.3     25.262     26.628
REMARK  6 active torsions:
REMARK  status: ('A' for Active; 'I' for Inactive)
REMARK    1  A    between atoms: C_13  and  C_10 
REMARK    2  A    between atoms: N_14  and  C_10 
REMARK    3  A    between atoms: C_13  and  C_11 
REMARK    4  A    between atoms: O_16  and  C_11 
REMARK    5  A    between atoms: N_15  and  C_12 
REMARK    6  A    between atoms: C_13  and  O_17 
ROOT
HETATM    1  C   UNK N   1      27.070  24.511  -7.045  0.00  0.00     0.292 C 
HETATM    2  C   UNK N   1      25.984  24.076  -5.050  0.00  0.00     0.292 C 
HETATM    3  C   UNK N   1      27.090  26.020  -6.875  0.00  0.00     0.153 C 
HETATM    4  C   UNK N   1      26.083  25.531  -4.576  0.00  0.00     0.153 C 
HETATM    5  N   UNK N   1      25.826  23.994  -6.494  0.00  0.00     0.094 N 
HETATM    6  N   UNK N   1      26.694  26.450  -5.542  0.00  0.00    -0.378 N 
ENDROOT
BRANCH   5   7
HETATM    7  C   UNK N   1      25.641  22.576  -6.823  0.00  0.00     0.306 C 
BRANCH   7   8
HETATM    8  C   UNK N   1      25.021  22.324  -8.203  0.00  0.00     0.170 C 
BRANCH   8   9
HETATM    9  C   UNK N   1      25.743  21.167  -8.870  0.00  0.00     0.197 C 
BRANCH   9  10
HETATM   10  O   UNK N   1      25.111  20.832 -10.069  0.00  0.00    -0.398 OA
HETATM   11  H   UNK N   1      24.628  21.497 -10.585  0.00  0.00     0.209 HD
ENDBRANCH   9  10
ENDBRANCH   8   9
BRANCH   8  12
HETATM   12  O   UNK N   1      23.664  22.017  -8.081  0.00  0.00    -0.392 OA
HETATM   13  H   UNK N   1      23.105  21.431  -8.614  0.00  0.00     0.210 HD
ENDBRANCH   8  12
ENDBRANCH   7   8
ENDBRANCH   5   7
BRANCH   6  14
HETATM   14  C   UNK N   1      26.857  27.823  -5.177  0.00  0.00     0.030 A 
HETATM   15  C   UNK N   1      27.713  28.667  -5.901  0.00  0.00     0.029 A 
HETATM   16  C   UNK N   1      27.853  30.013  -5.549  0.00  0.00     0.002 A 
HETATM   17  C   UNK N   1      27.144  30.528  -4.460  0.00  0.00     0.000 A 
HETATM   18  C   UNK N   1      26.294  29.699  -3.726  0.00  0.00     0.002 A 
HETATM   19  C   UNK N   1      26.144  28.356  -4.083  0.00  0.00     0.029 A 
ENDBRANCH   6  14
TORSDOF 6
ENDMDL
MODEL 9
REMARK VINA RESULT:      -5.2     15.101     17.203
REMARK  6 active torsions:
REMARK  status: ('A' for Active; 'I' for Inactive)
REMARK    1  A    between atoms: C_13  and  C_10 
REMARK    2  A    between atoms: N_14  and  C_10 
REMARK    3  A    between atoms: C_13  and  C_11 
REMARK    4  A    between atoms: O_16  and  C_11 
REMARK    5  A    between atoms: N_15  and  C_12 
REMARK    6  A    between atoms: C_13  and  O_17 
ROOT
HETATM    1  C   UNK N   1      20.013  16.773   5.080  0.00  0.00     0.292 C 
HETATM    2  C   UNK N   1      22.297  17.121   4.992  0.00  0.00     0.292 C 
HETATM    3  C   UNK N   1      20.071  15.684   6.137  0.00  0.00     0.153 C 
HETATM    4  C   UNK N   1      22.571  16.214   6.198  0.00  0.00     0.153 C 
HETATM    5  N   UNK N   1      21.170  16.640   4.208  0.00  0.00     0.094 N 
HETATM    6  N   UNK N   1      21.384  15.552   6.750  0.00  0.00    -0.378 N 
ENDROOT
BRANCH   5   7
HETATM    7  C   UNK N   1      21.063  17.516   3.035  0.00  0.00     0.306 C 
BRANCH   7   8
HETATM    8  C   UNK N   1      19.740  18.286   2.941  0.00  0.00     0.170 C 
BRANCH   8   9
HETATM    9  C   UNK N   1      20.031  19.776   2.904  0.00  0.00     0.197 C 
BRANCH   9  10
HETATM   10  O   UNK N   1      20.641  20.177   4.094  0.00  0.00    -0.398 OA
HETATM   11  H   UNK N   1      20.815  21.113   4.278  0.00  0.00     0.209 HD
ENDBRANCH   9  10
ENDBRANCH   8   9
BRANCH   8  12
HETATM   12  O   UNK N   1      19.041  17.919   1.788  0.00  0.00    -0.392 OA
HETATM   13  H   UNK N   1      19.119  18.247   0.879  0.00  0.00     0.210 HD
ENDBRANCH   8  12
ENDBRANCH   7   8
ENDBRANCH   5   7
BRANCH   6  14
HETATM   14  C   UNK N   1      21.536  14.709   7.895  0.00  0.00     0.030 A 
HETATM   15  C   UNK N   1      22.721  13.990   8.110  0.00  0.00     0.029 A 
HETATM   16  C   UNK N   1      22.870  13.182   9.241  0.00  0.00     0.002 A 
HETATM   17  C   UNK N   1      21.828  13.077  10.167  0.00  0.00     0.000 A 
HETATM   18  C   UNK N   1      20.641  13.782   9.963  0.00  0.00     0.002 A 
HETATM   19  C   UNK N   1      20.494  14.598   8.839  0.00  0.00     0.029 A 
ENDBRANCH   6  14
TORSDOF 6
ENDMDL
