MODEL 1
REMARK VINA RESULT:      -5.6      0.000      0.000
REMARK  2 active torsions:
REMARK  status: ('A' for Active; 'I' for Inactive)
REMARK    1  A    between atoms: N_10  and  C_7 
REMARK    2  A    between atoms: N_11  and  C_7 
ROOT
HETATM    1  C   UNK N   1      34.488  14.803  10.653  0.00  0.00     0.547 C 
ENDROOT
BRANCH   1   2
HETATM    2  N   UNK N   1      35.051  15.596   9.566  0.00  0.00     0.135 N 
HETATM    3  C   UNK N   1      34.298  16.851   9.457  0.00  0.00     0.293 C 
HETATM    4  C   UNK N   1      34.604  17.535   8.122  0.00  0.00     0.193 C 
HETATM    5  S   UNK N   1      33.757  16.620   6.773  0.00  0.00     0.229 S 
HETATM    6  N   UNK N   1      35.220  15.698   7.195  0.00  0.00    -0.292 N 
HETATM    7  O   UNK N   1      34.262  18.018   6.381  0.00  0.00    -0.206 OA
HETATM    8  O   UNK N   1      34.396  16.352   5.402  0.00  0.00    -0.206 OA
HETATM    9  C   UNK N   1      34.893  14.831   8.330  0.00  0.00     0.407 C 
HETATM   10  H   UNK N   1      36.125  15.762   6.730  0.00  0.00     0.173 HD
ENDBRANCH   1   2
BRANCH   1  11
HETATM   11  N   UNK N   1      35.546  14.144  11.410  0.00  0.00     0.135 N 
HETATM   12  C   UNK N   1      34.995  12.906  11.963  0.00  0.00     0.293 C 
HETATM   13  C   UNK N   1      35.930  12.356  13.049  0.00  0.00     0.193 C 
HETATM   14  S   UNK N   1      35.778  13.393  14.560  0.00  0.00     0.229 S 
HETATM   15  N   UNK N   1      36.815  14.281  13.417  0.00  0.00    -0.292 N 
HETATM   16  O   UNK N   1      36.480  12.045  14.778  0.00  0.00    -0.206 OA
HETATM   17  O   UNK N   1      36.974  13.799  15.433  0.00  0.00    -0.206 OA
HETATM   18  C   UNK N   1      35.944  15.027  12.508  0.00  0.00     0.407 C 
HETATM   19  H   UNK N   1      37.835  14.271  13.399  0.00  0.00     0.173 HD
ENDBRANCH   1  11
TORSDOF 2
ENDMDL
MODEL 2
REMARK VINA RESULT:      -5.6      0.032      7.217
REMARK  2 active torsions:
REMARK  status: ('A' for Active; 'I' for Inactive)
REMARK    1  A    between atoms: N_10  and  C_7 
REMARK    2  A    between atoms: N_11  and  C_7 
ROOT
HETATM    1  C   UNK N   1      34.483  14.784  10.627  0.00  0.00     0.547 C 
ENDROOT
BRANCH   1   2
HETATM    2  N   UNK N   1      35.539  14.125  11.389  0.00  0.00     0.135 N 
HETATM    3  C   UNK N   1      35.005  12.884  11.960  0.00  0.00     0.293 C 
HETATM    4  C   UNK N   1      35.945  12.359  13.050  0.00  0.00     0.193 C 
HETATM    5  S   UNK N   1      35.775  13.413  14.544  0.00  0.00     0.229 S 
HETATM    6  N   UNK N   1      36.808  14.295  13.393  0.00  0.00    -0.292 N 
HETATM    7  O   UNK N   1      36.490  12.074  14.783  0.00  0.00    -0.206 OA
HETATM    8  O   UNK N   1      36.965  13.842  15.417  0.00  0.00    -0.206 OA
HETATM    9  C   UNK N   1      35.934  15.024  12.472  0.00  0.00     0.407 C 
HETATM   10  H   UNK N   1      37.827  14.293  13.379  0.00  0.00     0.173 HD
ENDBRANCH   1   2
BRANCH   1  11
HETATM   11  N   UNK N   1      35.050  15.570   9.537  0.00  0.00     0.135 N 
HETATM   12  C   UNK N   1      34.302  16.825   9.456  0.00  0.00     0.293 C 
HETATM   13  C   UNK N   1      34.603  17.528   8.125  0.00  0.00     0.193 C 
HETATM   14  S   UNK N   1      33.744  16.639   6.764  0.00  0.00     0.229 S 
HETATM   15  N   UNK N   1      35.201  15.699   7.167  0.00  0.00    -0.292 N 
HETATM   16  O   UNK N   1      34.257  18.038   6.390  0.00  0.00    -0.206 OA
HETATM   17  O   UNK N   1      34.375  16.385   5.387  0.00  0.00    -0.206 OA
HETATM   18  C   UNK N   1      34.872  14.822   8.291  0.00  0.00     0.407 C 
HETATM   19  H   UNK N   1      36.105  15.762   6.697  0.00  0.00     0.173 HD
ENDBRANCH   1  11
TORSDOF 2
ENDMDL
MODEL 3
REMARK VINA RESULT:      -5.5      1.798      7.027
REMARK  2 active torsions:
REMARK  status: ('A' for Active; 'I' for Inactive)
REMARK    1  A    between atoms: N_10  and  C_7 
REMARK    2  A    between atoms: N_11  and  C_7 
ROOT
HETATM    1  C   UNK N   1      35.113  14.104  10.802  0.00  0.00     0.547 C 
ENDROOT
BRANCH   1   2
HETATM    2  N   UNK N   1      34.946  13.674  12.186  0.00  0.00     0.135 N 
HETATM    3  C   UNK N   1      36.086  14.162  12.972  0.00  0.00     0.293 C 
HETATM    4  C   UNK N   1      36.145  13.436  14.320  0.00  0.00     0.193 C 
HETATM    5  S   UNK N   1      36.746  11.722  14.050  0.00  0.00     0.229 S 
HETATM    6  N   UNK N   1      35.026  11.755  13.589  0.00  0.00    -0.292 N 
HETATM    7  O   UNK N   1      36.779  12.190  15.514  0.00  0.00    -0.206 OA
HETATM    8  O   UNK N   1      36.174  10.499  14.785  0.00  0.00    -0.206 OA
HETATM    9  C   UNK N   1      34.942  12.213  12.201  0.00  0.00     0.407 C 
HETATM   10  H   UNK N   1      34.240  11.500  14.186  0.00  0.00     0.173 HD
ENDBRANCH   1   2
BRANCH   1  11
HETATM   11  N   UNK N   1      34.421  15.367  10.570  0.00  0.00     0.135 N 
HETATM   12  C   UNK N   1      33.596  15.210   9.371  0.00  0.00     0.293 C 
HETATM   13  C   UNK N   1      33.131  16.584   8.872  0.00  0.00     0.193 C 
HETATM   14  S   UNK N   1      34.548  17.454   8.087  0.00  0.00     0.229 S 
HETATM   15  N   UNK N   1      34.749  17.609   9.849  0.00  0.00    -0.292 N 
HETATM   16  O   UNK N   1      33.173  18.067   7.782  0.00  0.00    -0.206 OA
HETATM   17  O   UNK N   1      34.826  18.954   8.265  0.00  0.00    -0.206 OA
HETATM   18  C   UNK N   1      35.425  16.404  10.331  0.00  0.00     0.407 C 
HETATM   19  H   UNK N   1      34.446  18.398  10.421  0.00  0.00     0.173 HD
ENDBRANCH   1  11
TORSDOF 2
ENDMDL
MODEL 4
REMARK VINA RESULT:      -5.5      1.778      2.300
REMARK  2 active torsions:
REMARK  status: ('A' for Active; 'I' for Inactive)
REMARK    1  A    between atoms: N_10  and  C_7 
REMARK    2  A    between atoms: N_11  and  C_7 
ROOT
HETATM    1  C   UNK N   1      35.097  14.092  10.760  0.00  0.00     0.547 C 
ENDROOT
BRANCH   1   2
HETATM    2  N   UNK N   1      34.387  15.342  10.512  0.00  0.00     0.135 N 
HETATM    3  C   UNK N   1      33.592  15.199   9.286  0.00  0.00     0.293 C 
HETATM    4  C   UNK N   1      33.133  16.574   8.792  0.00  0.00     0.193 C 
HETATM    5  S   UNK N   1      34.567  17.454   8.056  0.00  0.00     0.229 S 
HETATM    6  N   UNK N   1      34.715  17.596   9.825  0.00  0.00    -0.292 N 
HETATM    7  O   UNK N   1      33.198  18.064   7.717  0.00  0.00    -0.206 OA
HETATM    8  O   UNK N   1      34.832  18.955   8.255  0.00  0.00    -0.206 OA
HETATM    9  C   UNK N   1      35.386  16.391  10.318  0.00  0.00     0.407 C 
HETATM   10  H   UNK N   1      34.389  18.377  10.393  0.00  0.00     0.173 HD
ENDBRANCH   1   2
BRANCH   1  11
HETATM   11  N   UNK N   1      34.930  13.673  12.147  0.00  0.00     0.135 N 
HETATM   12  C   UNK N   1      36.077  14.172  12.905  0.00  0.00     0.293 C 
HETATM   13  C   UNK N   1      36.147  13.473  14.270  0.00  0.00     0.193 C 
HETATM   14  S   UNK N   1      36.736  11.747  14.035  0.00  0.00     0.229 S 
HETATM   15  N   UNK N   1      35.015  11.779  13.583  0.00  0.00    -0.292 N 
HETATM   16  O   UNK N   1      36.781  12.246  15.487  0.00  0.00    -0.206 OA
HETATM   17  O   UNK N   1      36.162  10.544  14.799  0.00  0.00    -0.206 OA
HETATM   18  C   UNK N   1      34.925  12.210  12.187  0.00  0.00     0.407 C 
HETATM   19  H   UNK N   1      34.230  11.541  14.190  0.00  0.00     0.173 HD
ENDBRANCH   1  11
TORSDOF 2
ENDMDL
MODEL 5
REMARK VINA RESULT:      -5.4      5.627      9.447
REMARK  2 active torsions:
REMARK  status: ('A' for Active; 'I' for Inactive)
REMARK    1  A    between atoms: N_10  and  C_7 
REMARK    2  A    between atoms: N_11  and  C_7 
ROOT
HETATM    1  C   UNK N   1      29.566  16.427   6.281  0.00  0.00     0.547 C 
ENDROOT
BRANCH   1   2
HETATM    2  N   UNK N   1      30.940  16.165   6.696  0.00  0.00     0.135 N 
HETATM    3  C   UNK N   1      31.060  16.442   8.132  0.00  0.00     0.293 C 
HETATM    4  C   UNK N   1      32.537  16.538   8.528  0.00  0.00     0.193 C 
HETATM    5  S   UNK N   1      33.219  18.127   7.911  0.00  0.00     0.229 S 
HETATM    6  N   UNK N   1      33.157  17.008   6.527  0.00  0.00    -0.292 N 
HETATM    7  O   UNK N   1      34.091  17.420   8.960  0.00  0.00    -0.206 OA
HETATM    8  O   UNK N   1      34.623  18.265   7.300  0.00  0.00    -0.206 OA
HETATM    9  C   UNK N   1      31.810  17.075   5.955  0.00  0.00     0.407 C 
HETATM   10  H   UNK N   1      33.923  16.425   6.192  0.00  0.00     0.173 HD
ENDBRANCH   1   2
BRANCH   1  11
HETATM   11  N   UNK N   1      29.365  17.852   6.044  0.00  0.00     0.135 N 
HETATM   12  C   UNK N   1      28.353  18.324   6.991  0.00  0.00     0.293 C 
HETATM   13  C   UNK N   1      27.841  19.706   6.564  0.00  0.00     0.193 C 
HETATM   14  S   UNK N   1      26.743  19.518   5.100  0.00  0.00     0.229 S 
HETATM   15  N   UNK N   1      28.420  19.410   4.514  0.00  0.00    -0.292 N 
HETATM   16  O   UNK N   1      26.647  20.882   5.801  0.00  0.00    -0.206 OA
HETATM   17  O   UNK N   1      26.748  20.485   3.907  0.00  0.00    -0.206 OA
HETATM   18  C   UNK N   1      28.865  18.026   4.679  0.00  0.00     0.407 C 
HETATM   19  H   UNK N   1      28.974  20.178   4.133  0.00  0.00     0.173 HD
ENDBRANCH   1  11
TORSDOF 2
ENDMDL
MODEL 6
REMARK VINA RESULT:      -5.3      5.043      7.165
REMARK  2 active torsions:
REMARK  status: ('A' for Active; 'I' for Inactive)
REMARK    1  A    between atoms: N_10  and  C_7 
REMARK    2  A    between atoms: N_11  and  C_7 
ROOT
HETATM    1  C   UNK N   1      30.877  15.839   5.985  0.00  0.00     0.547 C 
ENDROOT
BRANCH   1   2
HETATM    2  N   UNK N   1      30.282  17.165   5.857  0.00  0.00     0.135 N 
HETATM    3  C   UNK N   1      29.165  17.274   6.803  0.00  0.00     0.293 C 
HETATM    4  C   UNK N   1      28.294  18.484   6.452  0.00  0.00     0.193 C 
HETATM    5  S   UNK N   1      27.309  18.096   4.951  0.00  0.00     0.229 S 
HETATM    6  N   UNK N   1      28.955  18.507   4.409  0.00  0.00    -0.292 N 
HETATM    7  O   UNK N   1      26.826  19.327   5.735  0.00  0.00    -0.206 OA
HETATM    8  O   UNK N   1      27.052  19.108   3.823  0.00  0.00    -0.206 OA
HETATM    9  C   UNK N   1      29.772  17.294   4.493  0.00  0.00     0.407 C 
HETATM   10  H   UNK N   1      29.272  19.423   4.095  0.00  0.00     0.173 HD
ENDBRANCH   1   2
BRANCH   1  11
HETATM   11  N   UNK N   1      32.241  15.935   6.492  0.00  0.00     0.135 N 
HETATM   12  C   UNK N   1      32.173  15.945   7.954  0.00  0.00     0.293 C 
HETATM   13  C   UNK N   1      33.517  16.400   8.537  0.00  0.00     0.193 C 
HETATM   14  S   UNK N   1      33.704  18.212   8.284  0.00  0.00     0.229 S 
HETATM   15  N   UNK N   1      34.079  17.425   6.732  0.00  0.00    -0.292 N 
HETATM   16  O   UNK N   1      34.688  17.603   9.294  0.00  0.00    -0.206 OA
HETATM   17  O   UNK N   1      35.026  18.880   7.876  0.00  0.00    -0.206 OA
HETATM   18  C   UNK N   1      32.816  17.198   6.028  0.00  0.00     0.407 C 
HETATM   19  H   UNK N   1      35.009  17.176   6.395  0.00  0.00     0.173 HD
ENDBRANCH   1  11
TORSDOF 2
ENDMDL
MODEL 7
REMARK VINA RESULT:      -5.3     16.258     19.544
REMARK  2 active torsions:
REMARK  status: ('A' for Active; 'I' for Inactive)
REMARK    1  A    between atoms: N_10  and  C_7 
REMARK    2  A    between atoms: N_11  and  C_7 
ROOT
HETATM    1  C   UNK N   1      28.469  24.325  -4.992  0.00  0.00     0.547 C 
ENDROOT
BRANCH   1   2
HETATM    2  N   UNK N   1      28.976  23.230  -4.171  0.00  0.00     0.135 N 
HETATM    3  C   UNK N   1      29.838  23.787  -3.122  0.00  0.00     0.293 C 
HETATM    4  C   UNK N   1      30.673  22.673  -2.481  0.00  0.00     0.193 C 
HETATM    5  S   UNK N   1      31.997  22.171  -3.650  0.00  0.00     0.229 S 
HETATM    6  N   UNK N   1      30.491  21.396  -4.199  0.00  0.00    -0.292 N 
HETATM    7  O   UNK N   1      32.198  21.684  -2.207  0.00  0.00    -0.206 OA
HETATM    8  O   UNK N   1      32.426  20.711  -3.867  0.00  0.00    -0.206 OA
HETATM    9  C   UNK N   1      29.770  22.359  -5.035  0.00  0.00     0.407 C 
HETATM   10  H   UNK N   1      30.185  20.451  -3.971  0.00  0.00     0.173 HD
ENDBRANCH   1   2
BRANCH   1  11
HETATM   11  N   UNK N   1      28.179  25.493  -4.167  0.00  0.00     0.135 N 
HETATM   12  C   UNK N   1      26.789  25.391  -3.722  0.00  0.00     0.293 C 
HETATM   13  C   UNK N   1      26.318  26.739  -3.161  0.00  0.00     0.193 C 
HETATM   14  S   UNK N   1      26.049  27.912  -4.552  0.00  0.00     0.229 S 
HETATM   15  N   UNK N   1      27.803  27.840  -4.261  0.00  0.00    -0.292 N 
HETATM   16  O   UNK N   1      25.435  28.354  -3.215  0.00  0.00    -0.206 OA
HETATM   17  O   UNK N   1      26.445  29.395  -4.500  0.00  0.00    -0.206 OA
HETATM   18  C   UNK N   1      28.333  26.690  -4.995  0.00  0.00     0.407 C 
HETATM   19  H   UNK N   1      28.343  28.485  -3.683  0.00  0.00     0.173 HD
ENDBRANCH   1  11
TORSDOF 2
ENDMDL
MODEL 8
REMARK VINA RESULT:      -5.2      4.873      8.568
REMARK  2 active torsions:
REMARK  status: ('A' for Active; 'I' for Inactive)
REMARK    1  A    between atoms: N_10  and  C_7 
REMARK    2  A    between atoms: N_11  and  C_7 
ROOT
HETATM    1  C   UNK N   1      31.469  15.600   6.388  0.00  0.00     0.547 C 
ENDROOT
BRANCH   1   2
HETATM    2  N   UNK N   1      31.930  16.640   7.302  0.00  0.00     0.135 N 
HETATM    3  C   UNK N   1      33.054  17.349   6.681  0.00  0.00     0.293 C 
HETATM    4  C   UNK N   1      33.796  18.183   7.732  0.00  0.00     0.193 C 
HETATM    5  S   UNK N   1      34.774  17.058   8.804  0.00  0.00     0.229 S 
HETATM    6  N   UNK N   1      33.083  16.971   9.356  0.00  0.00    -0.292 N 
HETATM    7  O   UNK N   1      35.157  18.543   8.914  0.00  0.00    -0.206 OA
HETATM    8  O   UNK N   1      34.904  17.240  10.325  0.00  0.00    -0.206 OA
HETATM    9  C   UNK N   1      32.390  15.984   8.525  0.00  0.00     0.407 C 
HETATM   10  H   UNK N   1      32.671  17.513  10.115  0.00  0.00     0.173 HD
ENDBRANCH   1   2
BRANCH   1  11
HETATM   11  N   UNK N   1      30.076  15.824   6.017  0.00  0.00     0.135 N 
HETATM   12  C   UNK N   1      30.047  16.198   4.602  0.00  0.00     0.293 C 
HETATM   13  C   UNK N   1      28.676  16.788   4.245  0.00  0.00     0.193 C 
HETATM   14  S   UNK N   1      28.544  18.480   4.953  0.00  0.00     0.229 S 
HETATM   15  N   UNK N   1      28.257  17.333   6.283  0.00  0.00    -0.292 N 
HETATM   16  O   UNK N   1      27.482  18.145   3.895  0.00  0.00    -0.206 OA
HETATM   17  O   UNK N   1      27.266  19.029   5.605  0.00  0.00    -0.206 OA
HETATM   18  C   UNK N   1      29.559  16.933   6.819  0.00  0.00     0.407 C 
HETATM   19  H   UNK N   1      27.347  17.010   6.612  0.00  0.00     0.173 HD
ENDBRANCH   1  11
TORSDOF 2
ENDMDL
MODEL 9
REMARK VINA RESULT:      -5.1     16.790     19.720
REMARK  2 active torsions:
REMARK  status: ('A' for Active; 'I' for Inactive)
REMARK    1  A    between atoms: N_10  and  C_7 
REMARK    2  A    between atoms: N_11  and  C_7 
ROOT
HETATM    1  C   UNK N   1      29.190  23.813  -6.707  0.00  0.00     0.547 C 
ENDROOT
BRANCH   1   2
HETATM    2  N   UNK N   1      27.874  23.920  -7.328  0.00  0.00     0.135 N 
HETATM    3  C   UNK N   1      26.887  23.268  -6.458  0.00  0.00     0.293 C 
HETATM    4  C   UNK N   1      25.583  23.031  -7.226  0.00  0.00     0.193 C 
HETATM    5  S   UNK N   1      25.827  21.645  -8.405  0.00  0.00     0.229 S 
HETATM    6  N   UNK N   1      26.566  23.091  -9.135  0.00  0.00    -0.292 N 
HETATM    7  O   UNK N   1      24.359  22.025  -8.158  0.00  0.00    -0.206 OA
HETATM    8  O   UNK N   1      25.254  21.635  -9.831  0.00  0.00    -0.206 OA
HETATM    9  C   UNK N   1      27.927  23.215  -8.607  0.00  0.00     0.407 C 
HETATM   10  H   UNK N   1      26.121  23.721  -9.801  0.00  0.00     0.173 HD
ENDBRANCH   1   2
BRANCH   1  11
HETATM   11  N   UNK N   1      29.090  23.177  -5.399  0.00  0.00     0.135 N 
HETATM   12  C   UNK N   1      29.210  24.225  -4.383  0.00  0.00     0.293 C 
HETATM   13  C   UNK N   1      29.471  23.594  -3.009  0.00  0.00     0.193 C 
HETATM   14  S   UNK N   1      31.206  22.986  -2.944  0.00  0.00     0.229 S 
HETATM   15  N   UNK N   1      30.265  21.789  -3.866  0.00  0.00    -0.292 N 
HETATM   16  O   UNK N   1      30.510  23.080  -1.578  0.00  0.00    -0.206 OA
HETATM   17  O   UNK N   1      31.614  21.657  -2.290  0.00  0.00    -0.206 OA
HETATM   18  C   UNK N   1      30.205  22.240  -5.257  0.00  0.00     0.407 C 
HETATM   19  H   UNK N   1      29.842  20.939  -3.491  0.00  0.00     0.173 HD
ENDBRANCH   1  11
TORSDOF 2
ENDMDL
