MODEL 1
REMARK VINA RESULT:      -8.9      0.000      0.000
REMARK  3 active torsions:
REMARK  status: ('A' for Active; 'I' for Inactive)
REMARK    1  A    between atoms: C_20  and  C_17 
REMARK    2  A    between atoms: C_22  and  C_21 
REMARK    3  A    between atoms: O_35  and  C_23 
REMARK       I    between atoms: N_34  and  C_25 
ROOT
HETATM    1  C   UNK N   1      30.235  16.719   7.269  0.00  0.00     0.045 A 
HETATM    2  C   UNK N   1      29.047  17.320   7.557  0.00  0.00     0.075 A 
HETATM    3  C   UNK N   1      31.144  17.051   8.385  0.00  0.00     0.155 A 
HETATM    4  C   UNK N   1      29.302  18.001   8.854  0.00  0.00     0.261 A 
HETATM    5  N   UNK N   1      30.564  17.783   9.254  0.00  0.00    -0.303 N 
ATOM      6  HN  UNK N   1      30.988  18.143  10.109  1.00  0.00     0.171 HD
HETATM    7  O   UNK N   1      28.511  18.633   9.529  0.00  0.00    -0.267 OA
ENDROOT
BRANCH   2   8
HETATM    8  C   UNK N   1      27.762  17.225   6.751  0.00  0.00     0.078 A 
HETATM    9  C   UNK N   1      27.364  18.132   5.726  0.00  0.00     0.019 A 
HETATM   10  C   UNK N   1      28.137  19.225   5.323  0.00  0.00     0.016 A 
HETATM   11  C   UNK N   1      26.128  17.902   5.067  0.00  0.00     0.061 A 
HETATM   12  C   UNK N   1      27.698  20.084   4.312  0.00  0.00     0.001 A 
HETATM   13  C   UNK N   1      26.476  19.855   3.680  0.00  0.00     0.002 A 
HETATM   14  C   UNK N   1      25.696  18.763   4.054  0.00  0.00     0.031 A 
HETATM   15  N   UNK N   1      25.360  16.841   5.407  0.00  0.00    -0.191 N 
HETATM   16  C   UNK N   1      25.740  15.994   6.394  0.00  0.00     0.681 A 
ATOM     17  HN  UNK N   1      24.484  16.676   4.912  1.00  0.00     0.184 HD
HETATM   18  N   UNK N   1      26.912  16.205   7.046  0.00  0.00    -0.190 N 
HETATM   19  N   UNK N   1      24.935  14.866   6.720  0.00  0.00    -0.214 N 
ATOM     20  HN  UNK N   1      27.170  15.564   7.797  1.00  0.00     0.184 HD
HETATM   21  C   UNK N   1      25.270  14.033   7.858  0.00  0.00     0.171 C 
HETATM   22  C   UNK N   1      23.817  14.503   5.877  0.00  0.00     0.171 C 
HETATM   23  C   UNK N   1      24.299  12.859   7.972  0.00  0.00     0.292 C 
HETATM   24  N   UNK N   1      22.912  13.329   7.920  0.00  0.00     0.087 N 
HETATM   25  C   UNK N   1      22.071  12.149   7.854  0.00  0.00     0.310 C 
HETATM   26  C   UNK N   1      22.599  14.152   6.736  0.00  0.00     0.292 C 
ENDBRANCH   2   8
BRANCH   1  27
HETATM   27  C   UNK N   1      30.640  15.907   6.080  0.00  0.00     0.007 A 
HETATM   28  C   UNK N   1      30.187  14.630   5.749  0.00  0.00     0.101 A 
HETATM   29  N   UNK N   1      30.762  14.215   4.594  0.00  0.00    -0.364 N 
HETATM   30  C   UNK N   1      31.564  15.214   4.198  0.00  0.00     0.043 A 
HETATM   31  H   UNK N   1      30.619  13.354   4.138  0.00  0.00     0.165 HD
HETATM   32  C   UNK N   1      32.376  15.228   3.068  0.00  0.00     0.030 A 
HETATM   33  C   UNK N   1      31.509  16.267   5.068  0.00  0.00     0.003 A 
HETATM   34  C   UNK N   1      33.160  16.372   2.837  0.00  0.00     0.002 A 
HETATM   35  C   UNK N   1      33.110  17.462   3.735  0.00  0.00     0.001 A 
HETATM   36  C   UNK N   1      32.279  17.412   4.869  0.00  0.00     0.014 A 
ENDBRANCH   1  27
BRANCH   3  37
HETATM   37  O   UNK N   1      32.437  16.694   8.492  0.00  0.00    -0.345 OA
HETATM   38  H   UNK N   1      33.039  17.247   8.951  0.00  0.00     0.219 HD
ENDBRANCH   3  37
TORSDOF 3
ENDMDL
MODEL 2
REMARK VINA RESULT:      -8.9      2.730      6.015
REMARK  3 active torsions:
REMARK  status: ('A' for Active; 'I' for Inactive)
REMARK    1  A    between atoms: C_20  and  C_17 
REMARK    2  A    between atoms: C_22  and  C_21 
REMARK    3  A    between atoms: O_35  and  C_23 
REMARK       I    between atoms: N_34  and  C_25 
ROOT
HETATM    1  C   UNK N   1      27.925  16.143   6.109  0.00  0.00     0.045 A 
HETATM    2  C   UNK N   1      26.941  15.239   5.838  0.00  0.00     0.075 A 
HETATM    3  C   UNK N   1      29.183  15.536   5.629  0.00  0.00     0.155 A 
HETATM    4  C   UNK N   1      27.668  14.110   5.198  0.00  0.00     0.261 A 
HETATM    5  N   UNK N   1      28.979  14.382   5.124  0.00  0.00    -0.303 N 
ATOM      6  HN  UNK N   1      29.693  13.768   4.731  1.00  0.00     0.171 HD
HETATM    7  O   UNK N   1      27.194  13.087   4.740  0.00  0.00    -0.267 OA
ENDROOT
BRANCH   2   8
HETATM    8  C   UNK N   1      25.451  15.419   6.077  0.00  0.00     0.078 A 
HETATM    9  C   UNK N   1      24.646  14.591   6.911  0.00  0.00     0.019 A 
HETATM   10  C   UNK N   1      25.150  13.506   7.635  0.00  0.00     0.016 A 
HETATM   11  C   UNK N   1      23.265  14.894   7.028  0.00  0.00     0.061 A 
HETATM   12  C   UNK N   1      24.315  12.725   8.439  0.00  0.00     0.001 A 
HETATM   13  C   UNK N   1      22.956  13.025   8.535  0.00  0.00     0.002 A 
HETATM   14  C   UNK N   1      22.434  14.111   7.836  0.00  0.00     0.031 A 
HETATM   15  N   UNK N   1      22.739  15.950   6.365  0.00  0.00    -0.191 N 
HETATM   16  C   UNK N   1      23.510  16.722   5.562  0.00  0.00     0.681 A 
ATOM     17  HN  UNK N   1      21.748  16.169   6.474  1.00  0.00     0.184 HD
HETATM   18  N   UNK N   1      24.832  16.440   5.426  0.00  0.00    -0.190 N 
HETATM   19  N   UNK N   1      22.948  17.847   4.895  0.00  0.00    -0.214 N 
ATOM     20  HN  UNK N   1      25.389  17.024   4.803  1.00  0.00     0.184 HD
HETATM   21  C   UNK N   1      23.735  18.597   3.936  0.00  0.00     0.171 C 
HETATM   22  C   UNK N   1      21.611  18.292   5.221  0.00  0.00     0.171 C 
HETATM   23  C   UNK N   1      22.942  19.785   3.397  0.00  0.00     0.292 C 
HETATM   24  N   UNK N   1      21.621  19.356   2.931  0.00  0.00     0.087 N 
HETATM   25  C   UNK N   1      20.877  20.559   2.608  0.00  0.00     0.310 C 
HETATM   26  C   UNK N   1      20.836  18.618   3.941  0.00  0.00     0.292 C 
ENDBRANCH   2   8
BRANCH   1  27
HETATM   27  C   UNK N   1      27.848  17.476   6.783  0.00  0.00     0.007 A 
HETATM   28  C   UNK N   1      28.057  17.738   8.137  0.00  0.00     0.101 A 
HETATM   29  N   UNK N   1      27.916  19.063   8.383  0.00  0.00    -0.364 N 
HETATM   30  C   UNK N   1      27.626  19.632   7.203  0.00  0.00     0.043 A 
HETATM   31  H   UNK N   1      28.009  19.517   9.253  0.00  0.00     0.165 HD
HETATM   32  C   UNK N   1      27.376  20.981   6.972  0.00  0.00     0.030 A 
HETATM   33  C   UNK N   1      27.586  18.702   6.203  0.00  0.00     0.003 A 
HETATM   34  C   UNK N   1      27.071  21.376   5.657  0.00  0.00     0.002 A 
HETATM   35  C   UNK N   1      27.026  20.419   4.619  0.00  0.00     0.001 A 
HETATM   36  C   UNK N   1      27.282  19.062   4.890  0.00  0.00     0.014 A 
ENDBRANCH   1  27
BRANCH   3  37
HETATM   37  O   UNK N   1      30.414  16.069   5.733  0.00  0.00    -0.345 OA
HETATM   38  H   UNK N   1      30.515  16.971   5.965  0.00  0.00     0.219 HD
ENDBRANCH   3  37
TORSDOF 3
ENDMDL
MODEL 3
REMARK VINA RESULT:      -8.6      2.266      4.346
REMARK  3 active torsions:
REMARK  status: ('A' for Active; 'I' for Inactive)
REMARK    1  A    between atoms: C_20  and  C_17 
REMARK    2  A    between atoms: C_22  and  C_21 
REMARK    3  A    between atoms: O_35  and  C_23 
REMARK       I    between atoms: N_34  and  C_25 
ROOT
HETATM    1  C   UNK N   1      29.209  16.356   6.133  0.00  0.00     0.045 A 
HETATM    2  C   UNK N   1      28.720  15.178   5.651  0.00  0.00     0.075 A 
HETATM    3  C   UNK N   1      30.679  16.214   6.149  0.00  0.00     0.155 A 
HETATM    4  C   UNK N   1      29.942  14.369   5.397  0.00  0.00     0.261 A 
HETATM    5  N   UNK N   1      31.039  15.066   5.723  0.00  0.00    -0.303 N 
ATOM      6  HN  UNK N   1      32.001  14.734   5.646  1.00  0.00     0.171 HD
HETATM    7  O   UNK N   1      30.006  13.252   4.916  0.00  0.00    -0.267 OA
ENDROOT
BRANCH   2   8
HETATM    8  C   UNK N   1      27.263  14.843   5.377  0.00  0.00     0.078 A 
HETATM    9  C   UNK N   1      26.613  14.969   4.116  0.00  0.00     0.019 A 
HETATM   10  C   UNK N   1      27.260  15.408   2.957  0.00  0.00     0.016 A 
HETATM   11  C   UNK N   1      25.242  14.613   4.027  0.00  0.00     0.061 A 
HETATM   12  C   UNK N   1      26.574  15.515   1.744  0.00  0.00     0.001 A 
HETATM   13  C   UNK N   1      25.223  15.174   1.672  0.00  0.00     0.002 A 
HETATM   14  C   UNK N   1      24.561  14.718   2.810  0.00  0.00     0.031 A 
HETATM   15  N   UNK N   1      24.583  14.158   5.117  0.00  0.00    -0.191 N 
HETATM   16  C   UNK N   1      25.206  14.056   6.316  0.00  0.00     0.681 A 
ATOM     17  HN  UNK N   1      23.603  13.886   5.035  1.00  0.00     0.184 HD
HETATM   18  N   UNK N   1      26.514  14.406   6.425  0.00  0.00    -0.190 N 
HETATM   19  N   UNK N   1      24.507  13.548   7.447  0.00  0.00    -0.214 N 
ATOM     20  HN  UNK N   1      26.959  14.337   7.341  1.00  0.00     0.184 HD
HETATM   21  C   UNK N   1      25.128  13.559   8.757  0.00  0.00     0.171 C 
HETATM   22  C   UNK N   1      23.198  12.954   7.286  0.00  0.00     0.171 C 
HETATM   23  C   UNK N   1      24.212  12.915   9.795  0.00  0.00     0.292 C 
HETATM   24  N   UNK N   1      22.869  13.497   9.729  0.00  0.00     0.087 N 
HETATM   25  C   UNK N   1      22.027  12.712  10.613  0.00  0.00     0.310 C 
HETATM   26  C   UNK N   1      22.255  13.445   8.388  0.00  0.00     0.292 C 
ENDBRANCH   2   8
BRANCH   1  27
HETATM   27  C   UNK N   1      28.484  17.575   6.609  0.00  0.00     0.007 A 
HETATM   28  C   UNK N   1      28.213  17.918   7.933  0.00  0.00     0.101 A 
HETATM   29  N   UNK N   1      27.550  19.100   7.982  0.00  0.00    -0.364 N 
HETATM   30  C   UNK N   1      27.407  19.500   6.710  0.00  0.00     0.043 A 
HETATM   31  H   UNK N   1      27.237  19.570   8.789  0.00  0.00     0.165 HD
HETATM   32  C   UNK N   1      26.767  20.654   6.270  0.00  0.00     0.030 A 
HETATM   33  C   UNK N   1      27.973  18.605   5.844  0.00  0.00     0.003 A 
HETATM   34  C   UNK N   1      26.711  20.885   4.884  0.00  0.00     0.002 A 
HETATM   35  C   UNK N   1      27.290  19.963   3.984  0.00  0.00     0.001 A 
HETATM   36  C   UNK N   1      27.928  18.804   4.465  0.00  0.00     0.014 A 
ENDBRANCH   1  27
BRANCH   3  37
HETATM   37  O   UNK N   1      31.562  17.128   6.590  0.00  0.00    -0.345 OA
HETATM   38  H   UNK N   1      31.525  18.008   6.269  0.00  0.00     0.219 HD
ENDBRANCH   3  37
TORSDOF 3
ENDMDL
MODEL 4
REMARK VINA RESULT:      -8.6      3.160      5.247
REMARK  3 active torsions:
REMARK  status: ('A' for Active; 'I' for Inactive)
REMARK    1  A    between atoms: C_20  and  C_17 
REMARK    2  A    between atoms: C_22  and  C_21 
REMARK    3  A    between atoms: O_35  and  C_23 
REMARK       I    between atoms: N_34  and  C_25 
ROOT
HETATM    1  C   UNK N   1      26.946  16.490   4.215  0.00  0.00     0.045 A 
HETATM    2  C   UNK N   1      25.763  15.838   4.038  0.00  0.00     0.075 A 
HETATM    3  C   UNK N   1      27.787  16.136   3.053  0.00  0.00     0.155 A 
HETATM    4  C   UNK N   1      25.952  15.108   2.757  0.00  0.00     0.261 A 
HETATM    5  N   UNK N   1      27.174  15.347   2.260  0.00  0.00    -0.303 N 
ATOM      6  HN  UNK N   1      27.551  14.963   1.393  1.00  0.00     0.171 HD
HETATM    7  O   UNK N   1      25.139  14.420   2.167  0.00  0.00    -0.267 OA
ENDROOT
BRANCH   2   8
HETATM    8  C   UNK N   1      24.534  15.928   4.928  0.00  0.00     0.078 A 
HETATM    9  C   UNK N   1      23.507  16.908   4.815  0.00  0.00     0.019 A 
HETATM   10  C   UNK N   1      23.503  17.911   3.840  0.00  0.00     0.016 A 
HETATM   11  C   UNK N   1      22.421  16.854   5.727  0.00  0.00     0.061 A 
HETATM   12  C   UNK N   1      22.470  18.850   3.775  0.00  0.00     0.001 A 
HETATM   13  C   UNK N   1      21.415  18.793   4.685  0.00  0.00     0.002 A 
HETATM   14  C   UNK N   1      21.388  17.793   5.655  0.00  0.00     0.031 A 
HETATM   15  N   UNK N   1      22.370  15.885   6.671  0.00  0.00    -0.191 N 
HETATM   16  C   UNK N   1      23.360  14.966   6.780  0.00  0.00     0.681 A 
ATOM     17  HN  UNK N   1      21.574  15.845   7.307  1.00  0.00     0.184 HD
HETATM   18  N   UNK N   1      24.414  15.010   5.925  0.00  0.00    -0.190 N 
HETATM   19  N   UNK N   1      23.277  13.936   7.758  0.00  0.00    -0.214 N 
ATOM     20  HN  UNK N   1      25.156  14.319   6.036  1.00  0.00     0.184 HD
HETATM   21  C   UNK N   1      24.391  13.032   7.964  0.00  0.00     0.171 C 
HETATM   22  C   UNK N   1      22.054  13.741   8.507  0.00  0.00     0.171 C 
HETATM   23  C   UNK N   1      24.048  11.983   9.020  0.00  0.00     0.292 C 
HETATM   24  N   UNK N   1      23.521  12.622  10.229  0.00  0.00     0.087 N 
HETATM   25  C   UNK N   1      23.058  11.557  11.099  0.00  0.00     0.310 C 
HETATM   26  C   UNK N   1      22.371  13.515   9.988  0.00  0.00     0.292 C 
ENDBRANCH   2   8
BRANCH   1  27
HETATM   27  C   UNK N   1      27.403  17.368   5.337  0.00  0.00     0.007 A 
HETATM   28  C   UNK N   1      28.139  16.977   6.455  0.00  0.00     0.101 A 
HETATM   29  N   UNK N   1      28.381  18.046   7.253  0.00  0.00    -0.364 N 
HETATM   30  C   UNK N   1      27.809  19.098   6.648  0.00  0.00     0.043 A 
HETATM   31  H   UNK N   1      28.877  18.049   8.104  0.00  0.00     0.165 HD
HETATM   32  C   UNK N   1      27.784  20.409   7.114  0.00  0.00     0.030 A 
HETATM   33  C   UNK N   1      27.214  18.730   5.474  0.00  0.00     0.003 A 
HETATM   34  C   UNK N   1      27.114  21.368   6.334  0.00  0.00     0.002 A 
HETATM   35  C   UNK N   1      26.493  20.994   5.121  0.00  0.00     0.001 A 
HETATM   36  C   UNK N   1      26.538  19.658   4.682  0.00  0.00     0.014 A 
ENDBRANCH   1  27
BRANCH   3  37
HETATM   37  O   UNK N   1      29.056  16.530   2.841  0.00  0.00    -0.345 OA
HETATM   38  H   UNK N   1      29.295  16.918   2.022  0.00  0.00     0.219 HD
ENDBRANCH   3  37
TORSDOF 3
ENDMDL
MODEL 5
REMARK VINA RESULT:      -8.4      3.790      7.907
REMARK  3 active torsions:
REMARK  status: ('A' for Active; 'I' for Inactive)
REMARK    1  A    between atoms: C_20  and  C_17 
REMARK    2  A    between atoms: C_22  and  C_21 
REMARK    3  A    between atoms: O_35  and  C_23 
REMARK       I    between atoms: N_34  and  C_25 
ROOT
HETATM    1  C   UNK N   1      21.551  15.574   5.841  0.00  0.00     0.045 A 
HETATM    2  C   UNK N   1      21.853  16.885   6.054  0.00  0.00     0.075 A 
HETATM    3  C   UNK N   1      20.464  15.245   6.786  0.00  0.00     0.155 A 
HETATM    4  C   UNK N   1      20.919  17.290   7.138  0.00  0.00     0.261 A 
HETATM    5  N   UNK N   1      20.147  16.254   7.499  0.00  0.00    -0.303 N 
ATOM      6  HN  UNK N   1      19.428  16.271   8.223  1.00  0.00     0.171 HD
HETATM    7  O   UNK N   1      20.788  18.395   7.631  0.00  0.00    -0.267 OA
ENDROOT
BRANCH   2   8
HETATM    8  C   UNK N   1      22.862  17.722   5.285  0.00  0.00     0.078 A 
HETATM    9  C   UNK N   1      22.539  18.735   4.337  0.00  0.00     0.019 A 
HETATM   10  C   UNK N   1      21.227  19.095   4.013  0.00  0.00     0.016 A 
HETATM   11  C   UNK N   1      23.602  19.428   3.702  0.00  0.00     0.061 A 
HETATM   12  C   UNK N   1      20.965  20.096   3.073  0.00  0.00     0.001 A 
HETATM   13  C   UNK N   1      22.019  20.761   2.447  0.00  0.00     0.002 A 
HETATM   14  C   UNK N   1      23.335  20.431   2.766  0.00  0.00     0.031 A 
HETATM   15  N   UNK N   1      24.887  19.130   4.005  0.00  0.00    -0.191 N 
HETATM   16  C   UNK N   1      25.185  18.154   4.897  0.00  0.00     0.681 A 
ATOM     17  HN  UNK N   1      25.642  19.650   3.556  1.00  0.00     0.184 HD
HETATM   18  N   UNK N   1      24.181  17.470   5.504  0.00  0.00    -0.190 N 
HETATM   19  N   UNK N   1      26.541  17.874   5.226  0.00  0.00    -0.214 N 
ATOM     20  HN  UNK N   1      24.428  16.729   6.159  1.00  0.00     0.184 HD
HETATM   21  C   UNK N   1      26.868  16.747   6.078  0.00  0.00     0.171 C 
HETATM   22  C   UNK N   1      27.597  18.750   4.769  0.00  0.00     0.171 C 
HETATM   23  C   UNK N   1      28.372  16.683   6.334  0.00  0.00     0.292 C 
HETATM   24  N   UNK N   1      29.114  16.756   5.072  0.00  0.00     0.087 N 
HETATM   25  C   UNK N   1      30.519  16.868   5.416  0.00  0.00     0.310 C 
HETATM   26  C   UNK N   1      28.776  17.928   4.242  0.00  0.00     0.292 C 
ENDBRANCH   2   8
BRANCH   1  27
HETATM   27  C   UNK N   1      22.164  14.586   4.900  0.00  0.00     0.007 A 
HETATM   28  C   UNK N   1      22.964  13.496   5.241  0.00  0.00     0.101 A 
HETATM   29  N   UNK N   1      23.328  12.816   4.126  0.00  0.00    -0.364 N 
HETATM   30  C   UNK N   1      22.763  13.463   3.096  0.00  0.00     0.043 A 
HETATM   31  H   UNK N   1      23.891  12.009   4.082  0.00  0.00     0.165 HD
HETATM   32  C   UNK N   1      22.878  13.136   1.748  0.00  0.00     0.030 A 
HETATM   33  C   UNK N   1      22.037  14.538   3.525  0.00  0.00     0.003 A 
HETATM   34  C   UNK N   1      22.218  13.956   0.816  0.00  0.00     0.002 A 
HETATM   35  C   UNK N   1      21.469  15.072   1.253  0.00  0.00     0.001 A 
HETATM   36  C   UNK N   1      21.377  15.373   2.625  0.00  0.00     0.014 A 
ENDBRANCH   1  27
BRANCH   3  37
HETATM   37  O   UNK N   1      19.887  14.040   6.946  0.00  0.00    -0.345 OA
HETATM   38  H   UNK N   1      19.989  13.380   6.288  0.00  0.00     0.219 HD
ENDBRANCH   3  37
TORSDOF 3
ENDMDL
MODEL 6
REMARK VINA RESULT:      -8.4      3.775      7.817
REMARK  3 active torsions:
REMARK  status: ('A' for Active; 'I' for Inactive)
REMARK    1  A    between atoms: C_20  and  C_17 
REMARK    2  A    between atoms: C_22  and  C_21 
REMARK    3  A    between atoms: O_35  and  C_23 
REMARK       I    between atoms: N_34  and  C_25 
ROOT
HETATM    1  C   UNK N   1      22.495  17.408   5.063  0.00  0.00     0.045 A 
HETATM    2  C   UNK N   1      22.712  16.076   4.877  0.00  0.00     0.075 A 
HETATM    3  C   UNK N   1      21.725  17.527   6.319  0.00  0.00     0.155 A 
HETATM    4  C   UNK N   1      22.049  15.445   6.050  0.00  0.00     0.261 A 
HETATM    5  N   UNK N   1      21.498  16.382   6.834  0.00  0.00    -0.303 N 
ATOM      6  HN  UNK N   1      20.983  16.209   7.697  1.00  0.00     0.171 HD
HETATM    7  O   UNK N   1      22.020  14.263   6.339  0.00  0.00    -0.267 OA
ENDROOT
BRANCH   2   8
HETATM    8  C   UNK N   1      23.519  15.433   3.761  0.00  0.00     0.078 A 
HETATM    9  C   UNK N   1      22.970  14.748   2.638  0.00  0.00     0.019 A 
HETATM   10  C   UNK N   1      21.597  14.604   2.421  0.00  0.00     0.016 A 
HETATM   11  C   UNK N   1      23.863  14.203   1.680  0.00  0.00     0.061 A 
HETATM   12  C   UNK N   1      21.111  13.921   1.303  0.00  0.00     0.001 A 
HETATM   13  C   UNK N   1      22.000  13.377   0.375  0.00  0.00     0.002 A 
HETATM   14  C   UNK N   1      23.373  13.524   0.561  0.00  0.00     0.031 A 
HETATM   15  N   UNK N   1      25.200  14.342   1.836  0.00  0.00    -0.191 N 
HETATM   16  C   UNK N   1      25.713  14.981   2.916  0.00  0.00     0.681 A 
ATOM     17  HN  UNK N   1      25.831  13.962   1.130  1.00  0.00     0.184 HD
HETATM   18  N   UNK N   1      24.874  15.498   3.851  0.00  0.00    -0.190 N 
HETATM   19  N   UNK N   1      27.120  15.145   3.051  0.00  0.00    -0.214 N 
ATOM     20  HN  UNK N   1      25.283  15.960   4.664  1.00  0.00     0.184 HD
HETATM   21  C   UNK N   1      27.678  15.711   4.263  0.00  0.00     0.171 C 
HETATM   22  C   UNK N   1      28.000  14.812   1.951  0.00  0.00     0.171 C 
HETATM   23  C   UNK N   1      29.195  15.839   4.152  0.00  0.00     0.292 C 
HETATM   24  N   UNK N   1      29.789  14.572   3.715  0.00  0.00     0.087 N 
HETATM   25  C   UNK N   1      31.195  14.831   3.465  0.00  0.00     0.310 C 
HETATM   26  C   UNK N   1      29.217  14.038   2.464  0.00  0.00     0.292 C 
ENDBRANCH   2   8
BRANCH   1  27
HETATM   27  C   UNK N   1      22.881  18.574   4.209  0.00  0.00     0.007 A 
HETATM   28  C   UNK N   1      22.023  19.380   3.462  0.00  0.00     0.101 A 
HETATM   29  N   UNK N   1      22.727  20.347   2.824  0.00  0.00    -0.364 N 
HETATM   30  C   UNK N   1      24.010  20.159   3.166  0.00  0.00     0.043 A 
HETATM   31  H   UNK N   1      22.368  21.047   2.231  0.00  0.00     0.165 HD
HETATM   32  C   UNK N   1      25.102  20.905   2.732  0.00  0.00     0.030 A 
HETATM   33  C   UNK N   1      24.145  19.097   4.016  0.00  0.00     0.003 A 
HETATM   34  C   UNK N   1      26.376  20.533   3.196  0.00  0.00     0.002 A 
HETATM   35  C   UNK N   1      26.523  19.434   4.072  0.00  0.00     0.001 A 
HETATM   36  C   UNK N   1      25.396  18.701   4.488  0.00  0.00     0.014 A 
ENDBRANCH   1  27
BRANCH   3  37
HETATM   37  O   UNK N   1      21.260  18.667   6.861  0.00  0.00    -0.345 OA
HETATM   38  H   UNK N   1      21.682  19.482   6.671  0.00  0.00     0.219 HD
ENDBRANCH   3  37
TORSDOF 3
ENDMDL
MODEL 7
REMARK VINA RESULT:      -8.2      4.202      7.936
REMARK  3 active torsions:
REMARK  status: ('A' for Active; 'I' for Inactive)
REMARK    1  A    between atoms: C_20  and  C_17 
REMARK    2  A    between atoms: C_22  and  C_21 
REMARK    3  A    between atoms: O_35  and  C_23 
REMARK       I    between atoms: N_34  and  C_25 
ROOT
HETATM    1  C   UNK N   1      22.405  18.923   4.030  0.00  0.00     0.045 A 
HETATM    2  C   UNK N   1      23.688  19.255   3.715  0.00  0.00     0.075 A 
HETATM    3  C   UNK N   1      21.542  19.858   3.278  0.00  0.00     0.155 A 
HETATM    4  C   UNK N   1      23.534  20.396   2.773  0.00  0.00     0.261 A 
HETATM    5  N   UNK N   1      22.236  20.673   2.584  0.00  0.00    -0.303 N 
ATOM      6  HN  UNK N   1      21.865  21.412   1.987  1.00  0.00     0.171 HD
HETATM    7  O   UNK N   1      24.415  20.998   2.186  0.00  0.00    -0.267 OA
ENDROOT
BRANCH   2   8
HETATM    8  C   UNK N   1      24.951  18.547   4.177  0.00  0.00     0.078 A 
HETATM    9  C   UNK N   1      25.935  19.102   5.044  0.00  0.00     0.019 A 
HETATM   10  C   UNK N   1      25.840  20.383   5.596  0.00  0.00     0.016 A 
HETATM   11  C   UNK N   1      27.061  18.307   5.382  0.00  0.00     0.061 A 
HETATM   12  C   UNK N   1      26.836  20.881   6.441  0.00  0.00     0.001 A 
HETATM   13  C   UNK N   1      27.944  20.094   6.755  0.00  0.00     0.002 A 
HETATM   14  C   UNK N   1      28.053  18.807   6.231  0.00  0.00     0.031 A 
HETATM   15  N   UNK N   1      27.180  17.051   4.892  0.00  0.00    -0.191 N 
HETATM   16  C   UNK N   1      26.246  16.537   4.055  0.00  0.00     0.681 A 
ATOM     17  HN  UNK N   1      27.985  16.482   5.158  1.00  0.00     0.184 HD
HETATM   18  N   UNK N   1      25.169  17.288   3.710  0.00  0.00    -0.190 N 
HETATM   19  N   UNK N   1      26.372  15.204   3.572  0.00  0.00    -0.214 N 
ATOM     20  HN  UNK N   1      24.487  16.888   3.065  1.00  0.00     0.184 HD
HETATM   21  C   UNK N   1      25.448  14.697   2.578  0.00  0.00     0.171 C 
HETATM   22  C   UNK N   1      27.381  14.324   4.121  0.00  0.00     0.171 C 
HETATM   23  C   UNK N   1      25.746  13.234   2.260  0.00  0.00     0.292 C 
HETATM   24  N   UNK N   1      27.167  13.052   1.951  0.00  0.00     0.087 N 
HETATM   25  C   UNK N   1      27.394  11.623   1.840  0.00  0.00     0.310 C 
HETATM   26  C   UNK N   1      28.080  13.555   2.996  0.00  0.00     0.292 C 
ENDBRANCH   2   8
BRANCH   1  27
HETATM   27  C   UNK N   1      21.883  17.875   4.961  0.00  0.00     0.007 A 
HETATM   28  C   UNK N   1      21.472  18.063   6.280  0.00  0.00     0.101 A 
HETATM   29  N   UNK N   1      21.049  16.889   6.809  0.00  0.00    -0.364 N 
HETATM   30  C   UNK N   1      21.186  15.973   5.839  0.00  0.00     0.043 A 
HETATM   31  H   UNK N   1      20.708  16.739   7.721  0.00  0.00     0.165 HD
HETATM   32  C   UNK N   1      20.893  14.615   5.932  0.00  0.00     0.030 A 
HETATM   33  C   UNK N   1      21.680  16.535   4.695  0.00  0.00     0.003 A 
HETATM   34  C   UNK N   1      21.125  13.816   4.799  0.00  0.00     0.002 A 
HETATM   35  C   UNK N   1      21.638  14.389   3.615  0.00  0.00     0.001 A 
HETATM   36  C   UNK N   1      21.925  15.766   3.558  0.00  0.00     0.014 A 
ENDBRANCH   1  27
BRANCH   3  37
HETATM   37  O   UNK N   1      20.199  19.913   3.325  0.00  0.00    -0.345 OA
HETATM   38  H   UNK N   1      19.765  20.091   4.136  0.00  0.00     0.219 HD
ENDBRANCH   3  37
TORSDOF 3
ENDMDL
MODEL 8
REMARK VINA RESULT:      -8.2      4.887      8.351
REMARK  3 active torsions:
REMARK  status: ('A' for Active; 'I' for Inactive)
REMARK    1  A    between atoms: C_20  and  C_17 
REMARK    2  A    between atoms: C_22  and  C_21 
REMARK    3  A    between atoms: O_35  and  C_23 
REMARK       I    between atoms: N_34  and  C_25 
ROOT
HETATM    1  C   UNK N   1      20.539  18.098   3.226  0.00  0.00     0.045 A 
HETATM    2  C   UNK N   1      21.655  18.830   3.503  0.00  0.00     0.075 A 
HETATM    3  C   UNK N   1      19.568  19.040   2.631  0.00  0.00     0.155 A 
HETATM    4  C   UNK N   1      21.296  20.202   3.055  0.00  0.00     0.261 A 
HETATM    5  N   UNK N   1      20.049  20.219   2.561  0.00  0.00    -0.303 N 
ATOM      6  HN  UNK N   1      19.566  21.039   2.191  1.00  0.00     0.171 HD
HETATM    7  O   UNK N   1      22.001  21.194   3.061  0.00  0.00    -0.267 OA
ENDROOT
BRANCH   2   8
HETATM    8  C   UNK N   1      22.968  18.309   4.065  0.00  0.00     0.078 A 
HETATM    9  C   UNK N   1      24.248  18.894   3.843  0.00  0.00     0.019 A 
HETATM   10  C   UNK N   1      24.444  20.051   3.082  0.00  0.00     0.016 A 
HETATM   11  C   UNK N   1      25.380  18.283   4.441  0.00  0.00     0.061 A 
HETATM   12  C   UNK N   1      25.722  20.583   2.894  0.00  0.00     0.001 A 
HETATM   13  C   UNK N   1      26.829  19.965   3.477  0.00  0.00     0.002 A 
HETATM   14  C   UNK N   1      26.657  18.821   4.253  0.00  0.00     0.031 A 
HETATM   15  N   UNK N   1      25.234  17.177   5.207  0.00  0.00    -0.191 N 
HETATM   16  C   UNK N   1      24.014  16.619   5.399  0.00  0.00     0.681 A 
ATOM     17  HN  UNK N   1      26.054  16.759   5.647  1.00  0.00     0.184 HD
HETATM   18  N   UNK N   1      22.920  17.181   4.824  0.00  0.00    -0.190 N 
HETATM   19  N   UNK N   1      23.873  15.473   6.231  0.00  0.00    -0.214 N 
ATOM     20  HN  UNK N   1      22.014  16.734   4.968  1.00  0.00     0.184 HD
HETATM   21  C   UNK N   1      22.595  14.797   6.335  0.00  0.00     0.171 C 
HETATM   22  C   UNK N   1      24.987  15.015   7.033  0.00  0.00     0.171 C 
HETATM   23  C   UNK N   1      22.676  13.637   7.324  0.00  0.00     0.292 C 
HETATM   24  N   UNK N   1      23.822  12.776   7.018  0.00  0.00     0.087 N 
HETATM   25  C   UNK N   1      23.927  11.815   8.100  0.00  0.00     0.310 C 
HETATM   26  C   UNK N   1      25.110  13.491   6.946  0.00  0.00     0.292 C 
ENDBRANCH   2   8
BRANCH   1  27
HETATM   27  C   UNK N   1      20.251  16.651   3.475  0.00  0.00     0.007 A 
HETATM   28  C   UNK N   1      19.560  16.114   4.559  0.00  0.00     0.101 A 
HETATM   29  N   UNK N   1      19.481  14.766   4.442  0.00  0.00    -0.364 N 
HETATM   30  C   UNK N   1      20.111  14.455   3.298  0.00  0.00     0.043 A 
HETATM   31  H   UNK N   1      19.049  14.141   5.069  0.00  0.00     0.165 HD
HETATM   32  C   UNK N   1      20.299  13.179   2.776  0.00  0.00     0.030 A 
HETATM   33  C   UNK N   1      20.583  15.575   2.674  0.00  0.00     0.003 A 
HETATM   34  C   UNK N   1      21.005  13.065   1.565  0.00  0.00     0.002 A 
HETATM   35  C   UNK N   1      21.499  14.218   0.916  0.00  0.00     0.001 A 
HETATM   36  C   UNK N   1      21.291  15.493   1.476  0.00  0.00     0.014 A 
ENDBRANCH   1  27
BRANCH   3  37
HETATM   37  O   UNK N   1      18.313  18.749   2.244  0.00  0.00    -0.345 OA
HETATM   38  H   UNK N   1      17.758  18.237   2.800  0.00  0.00     0.219 HD
ENDBRANCH   3  37
TORSDOF 3
ENDMDL
MODEL 9
REMARK VINA RESULT:      -8.2      3.533      7.598
REMARK  3 active torsions:
REMARK  status: ('A' for Active; 'I' for Inactive)
REMARK    1  A    between atoms: C_20  and  C_17 
REMARK    2  A    between atoms: C_22  and  C_21 
REMARK    3  A    between atoms: O_35  and  C_23 
REMARK       I    between atoms: N_34  and  C_25 
ROOT
HETATM    1  C   UNK N   1      21.421  15.727   6.341  0.00  0.00     0.045 A 
HETATM    2  C   UNK N   1      21.686  17.063   6.342  0.00  0.00     0.075 A 
HETATM    3  C   UNK N   1      20.364  15.517   7.351  0.00  0.00     0.155 A 
HETATM    4  C   UNK N   1      20.761  17.604   7.373  0.00  0.00     0.261 A 
HETATM    5  N   UNK N   1      20.029  16.615   7.908  0.00  0.00    -0.303 N 
ATOM      6  HN  UNK N   1      19.324  16.723   8.637  1.00  0.00     0.171 HD
HETATM    7  O   UNK N   1      20.604  18.768   7.693  0.00  0.00    -0.267 OA
ENDROOT
BRANCH   2   8
HETATM    8  C   UNK N   1      22.653  17.800   5.429  0.00  0.00     0.078 A 
HETATM    9  C   UNK N   1      22.285  18.766   4.449  0.00  0.00     0.019 A 
HETATM   10  C   UNK N   1      20.966  19.171   4.225  0.00  0.00     0.016 A 
HETATM   11  C   UNK N   1      23.313  19.364   3.675  0.00  0.00     0.061 A 
HETATM   12  C   UNK N   1      20.659  20.124   3.249  0.00  0.00     0.001 A 
HETATM   13  C   UNK N   1      21.677  20.695   2.485  0.00  0.00     0.002 A 
HETATM   14  C   UNK N   1      23.002  20.320   2.702  0.00  0.00     0.031 A 
HETATM   15  N   UNK N   1      24.606  19.022   3.876  0.00  0.00    -0.191 N 
HETATM   16  C   UNK N   1      24.944  18.090   4.800  0.00  0.00     0.681 A 
ATOM     17  HN  UNK N   1      25.337  19.474   3.326  1.00  0.00     0.184 HD
HETATM   18  N   UNK N   1      23.974  17.496   5.541  0.00  0.00    -0.190 N 
HETATM   19  N   UNK N   1      26.312  17.762   5.020  0.00  0.00    -0.214 N 
ATOM     20  HN  UNK N   1      24.250  16.785   6.218  1.00  0.00     0.184 HD
HETATM   21  C   UNK N   1      26.669  16.676   5.911  0.00  0.00     0.171 C 
HETATM   22  C   UNK N   1      27.357  18.555   4.410  0.00  0.00     0.171 C 
HETATM   23  C   UNK N   1      28.186  16.552   6.030  0.00  0.00     0.292 C 
HETATM   24  N   UNK N   1      28.807  16.510   4.704  0.00  0.00     0.087 N 
HETATM   25  C   UNK N   1      30.242  16.573   4.908  0.00  0.00     0.310 C 
HETATM   26  C   UNK N   1      28.443  17.644   3.832  0.00  0.00     0.292 C 
ENDBRANCH   2   8
BRANCH   1  27
HETATM   27  C   UNK N   1      22.047  14.623   5.549  0.00  0.00     0.007 A 
HETATM   28  C   UNK N   1      21.554  14.059   4.372  0.00  0.00     0.101 A 
HETATM   29  N   UNK N   1      22.395  13.091   3.930  0.00  0.00    -0.364 N 
HETATM   30  C   UNK N   1      23.405  13.046   4.811  0.00  0.00     0.043 A 
HETATM   31  H   UNK N   1      22.285  12.535   3.125  0.00  0.00     0.165 HD
HETATM   32  C   UNK N   1      24.498  12.185   4.776  0.00  0.00     0.030 A 
HETATM   33  C   UNK N   1      23.237  13.970   5.805  0.00  0.00     0.003 A 
HETATM   34  C   UNK N   1      25.445  12.286   5.810  0.00  0.00     0.002 A 
HETATM   35  C   UNK N   1      25.276  13.236   6.842  0.00  0.00     0.001 A 
HETATM   36  C   UNK N   1      24.157  14.089   6.845  0.00  0.00     0.014 A 
ENDBRANCH   1  27
BRANCH   3  37
HETATM   37  O   UNK N   1      19.828  14.336   7.708  0.00  0.00    -0.345 OA
HETATM   38  H   UNK N   1      20.381  13.645   8.018  0.00  0.00     0.219 HD
ENDBRANCH   3  37
TORSDOF 3
ENDMDL
