MODEL 1
REMARK VINA RESULT:      -7.8      0.000      0.000
REMARK  21 active torsions:
REMARK  status: ('A' for Active; 'I' for Inactive)
REMARK    1  A    between atoms: C_2  and  C_4 
REMARK    2  A    between atoms: C_2  and  N_53 
REMARK       I    between atoms: C_4  and  N_6 
REMARK    3  A    between atoms: C_7  and  N_6 
REMARK    4  A    between atoms: C_7  and  C_8 
REMARK    5  A    between atoms: C_7  and  C_15 
REMARK    6  A    between atoms: C_8  and  C_9 
REMARK       I    between atoms: C_15  and  N_17 
REMARK    7  A    between atoms: C_18  and  N_17 
REMARK    8  A    between atoms: C_18  and  C_19 
REMARK    9  A    between atoms: C_18  and  C_30 
REMARK   10  A    between atoms: C_19  and  C_20 
REMARK       I    between atoms: C_30  and  N_32 
REMARK   11  A    between atoms: C_33  and  N_32 
REMARK   12  A    between atoms: C_33  and  C_34 
REMARK   13  A    between atoms: C_33  and  C_41 
REMARK   14  A    between atoms: C_34  and  C_35 
REMARK       I    between atoms: C_41  and  N_43 
REMARK   15  A    between atoms: C_44  and  N_43 
REMARK   16  A    between atoms: C_44  and  C_45 
REMARK   17  A    between atoms: C_44  and  C_50 
REMARK   18  A    between atoms: C_45  and  C_46 
REMARK   19  A    between atoms: C_46  and  C_47 
REMARK   20  A    between atoms: C_47  and  C_48 
REMARK   21  A    between atoms: C_48  and  N_49 
REMARK       I    between atoms: C_50  and  N_52 
ROOT
HETATM    1  C   UNK N   1      25.979  15.052   4.307  0.00  0.00     0.180 C 
ENDROOT
BRANCH   1   2
HETATM    2  N   UNK N   1      25.257  16.225   4.726  0.00  0.00    -0.346 N 
HETATM    3  C   UNK N   1      25.200  17.324   3.933  0.00  0.00     0.241 C 
HETATM    4  O   UNK N   1      25.811  17.356   2.872  0.00  0.00    -0.271 OA
HETATM    5  H   UNK N   1      24.800  16.230   5.598  0.00  0.00     0.163 HD
BRANCH   3   6
HETATM    6  C   UNK N   1      24.429  18.532   4.361  0.00  0.00     0.182 C 
BRANCH   6   7
HETATM    7  N   UNK N   1      25.068  19.115   5.512  0.00  0.00    -0.345 N 
HETATM    8  C   UNK N   1      26.021  20.075   5.364  0.00  0.00     0.245 C 
HETATM    9  O   UNK N   1      26.191  20.611   4.288  0.00  0.00    -0.271 OA
HETATM   10  H   UNK N   1      24.813  18.815   6.415  0.00  0.00     0.163 HD
BRANCH   8  11
HETATM   11  C   UNK N   1      26.920  20.425   6.527  0.00  0.00     0.098 C 
HETATM   12  C   UNK N   1      27.737  21.647   6.144  0.00  0.00     0.048 C 
HETATM   13  C   UNK N   1      27.885  19.305   6.873  0.00  0.00     0.048 C 
BRANCH  11  14
HETATM   14  N   UNK N   1      26.117  20.737   7.696  0.00  0.00    -0.415 N 
HETATM   15  H   UNK N   1      25.907  20.116   8.478  0.00  0.00     0.151 HD
HETATM   16  H   UNK N   1      25.720  21.676   7.740  0.00  0.00     0.151 HD
ENDBRANCH  11  14
ENDBRANCH   8  11
ENDBRANCH   6   7
BRANCH   6  17
HETATM   17  C   UNK N   1      22.904  18.411   4.505  0.00  0.00     0.093 C 
BRANCH  17  18
HETATM   18  C   UNK N   1      22.055  19.389   3.757  0.00  0.00     0.028 A 
HETATM   19  C   UNK N   1      22.528  20.337   2.884  0.00  0.00     0.114 A 
HETATM   20  N   UNK N   1      21.478  21.066   2.466  0.00  0.00    -0.360 N 
HETATM   21  C   UNK N   1      20.397  20.550   3.089  0.00  0.00     0.180 A 
HETATM   22  H   UNK N   1      21.494  21.821   1.834  0.00  0.00     0.166 HD
HETATM   23  N   UNK N   1      20.728  19.521   3.896  0.00  0.00    -0.354 N 
ATOM     24  HN  UNK N   1      20.105  18.967   4.483  1.00  0.00     0.166 HD
ENDBRANCH  17  18
ENDBRANCH   6  17
ENDBRANCH   3   6
ENDBRANCH   1   2
BRANCH   1  25
HETATM   25  C   UNK N   1      27.163  14.729   5.239  0.00  0.00     0.073 C 
BRANCH  25  26
HETATM   26  C   UNK N   1      28.446  15.367   4.781  0.00  0.00    -0.055 A 
HETATM   27  C   UNK N   1      28.671  15.583   3.416  0.00  0.00     0.008 A 
HETATM   28  C   UNK N   1      29.830  16.204   2.972  0.00  0.00     0.013 A 
HETATM   29  C   UNK N   1      30.803  16.595   3.880  0.00  0.00    -0.026 A 
HETATM   30  C   UNK N   1      31.968  17.214   3.426  0.00  0.00     0.012 A 
HETATM   31  C   UNK N   1      30.609  16.360   5.260  0.00  0.00    -0.025 A 
HETATM   32  C   UNK N   1      32.951  17.600   4.340  0.00  0.00     0.001 A 
HETATM   33  C   UNK N   1      32.769  17.362   5.707  0.00  0.00     0.001 A 
HETATM   34  C   UNK N   1      31.599  16.745   6.168  0.00  0.00     0.012 A 
HETATM   35  C   UNK N   1      29.426  15.750   5.707  0.00  0.00     0.019 A 
ENDBRANCH  25  26
ENDBRANCH   1  25
BRANCH   1  36
HETATM   36  C   UNK N   1      25.019  13.920   4.162  0.00  0.00     0.241 C 
HETATM   37  O   UNK N   1      25.206  13.106   3.271  0.00  0.00    -0.271 OA
HETATM   38  N   UNK N   1      23.975  13.782   5.030  0.00  0.00    -0.346 N 
HETATM   39  H   UNK N   1      23.855  14.472   5.722  0.00  0.00     0.163 HD
BRANCH  38  40
HETATM   40  C   UNK N   1      23.034  12.678   4.993  0.00  0.00     0.180 C 
BRANCH  40  41
HETATM   41  C   UNK N   1      23.350  11.709   6.138  0.00  0.00     0.073 C 
BRANCH  41  42
HETATM   42  C   UNK N   1      23.109  12.186   7.538  0.00  0.00    -0.056 A 
HETATM   43  C   UNK N   1      24.206  12.642   8.276  0.00  0.00     0.007 A 
HETATM   44  C   UNK N   1      24.032  13.117   9.578  0.00  0.00     0.001 A 
HETATM   45  C   UNK N   1      22.757  13.143  10.148  0.00  0.00     0.000 A 
HETATM   46  C   UNK N   1      21.657  12.684   9.418  0.00  0.00     0.001 A 
HETATM   47  C   UNK N   1      21.832  12.204   8.118  0.00  0.00     0.007 A 
ENDBRANCH  41  42
ENDBRANCH  40  41
BRANCH  40  48
HETATM   48  C   UNK N   1      21.598  13.163   4.999  0.00  0.00     0.241 C 
HETATM   49  O   UNK N   1      20.693  12.407   4.677  0.00  0.00    -0.271 OA
HETATM   50  N   UNK N   1      21.330  14.460   5.314  0.00  0.00    -0.346 N 
HETATM   51  H   UNK N   1      22.081  15.036   5.587  0.00  0.00     0.163 HD
BRANCH  50  52
HETATM   52  C   UNK N   1      19.998  15.045   5.269  0.00  0.00     0.176 C 
BRANCH  52  53
HETATM   53  C   UNK N   1      19.799  16.033   6.416  0.00  0.00     0.035 C 
BRANCH  53  54
HETATM   54  C   UNK N   1      20.734  15.683   7.558  0.00  0.00     0.004 C 
BRANCH  54  55
HETATM   55  C   UNK N   1      20.240  16.330   8.839  0.00  0.00     0.019 C 
BRANCH  55  56
HETATM   56  C   UNK N   1      19.648  17.698   8.557  0.00  0.00     0.111 C 
BRANCH  56  57
HETATM   57  N   UNK N   1      18.396  17.836   9.277  0.00  0.00    -0.430 N 
HETATM   58  H   UNK N   1      17.863  18.698   9.391  0.00  0.00     0.149 HD
HETATM   59  H   UNK N   1      18.016  16.995   9.710  0.00  0.00     0.149 HD
ENDBRANCH  56  57
ENDBRANCH  55  56
ENDBRANCH  54  55
ENDBRANCH  53  54
ENDBRANCH  52  53
BRANCH  52  60
HETATM   60  C   UNK N   1      19.667  15.627   3.922  0.00  0.00     0.238 C 
HETATM   61  O   UNK N   1      19.657  16.837   3.746  0.00  0.00    -0.271 OA
HETATM   62  N   UNK N   1      19.316  14.805   2.913  0.00  0.00    -0.368 N 
HETATM   63  H   UNK N   1      19.549  13.982   2.427  0.00  0.00     0.159 HD
HETATM   64  H   UNK N   1      18.503  15.174   2.498  0.00  0.00     0.159 HD
ENDBRANCH  52  60
ENDBRANCH  50  52
ENDBRANCH  40  48
ENDBRANCH  38  40
ENDBRANCH   1  36
TORSDOF 21
ENDMDL
MODEL 2
REMARK VINA RESULT:      -7.8      2.639      5.682
REMARK  21 active torsions:
REMARK  status: ('A' for Active; 'I' for Inactive)
REMARK    1  A    between atoms: C_2  and  C_4 
REMARK    2  A    between atoms: C_2  and  N_53 
REMARK       I    between atoms: C_4  and  N_6 
REMARK    3  A    between atoms: C_7  and  N_6 
REMARK    4  A    between atoms: C_7  and  C_8 
REMARK    5  A    between atoms: C_7  and  C_15 
REMARK    6  A    between atoms: C_8  and  C_9 
REMARK       I    between atoms: C_15  and  N_17 
REMARK    7  A    between atoms: C_18  and  N_17 
REMARK    8  A    between atoms: C_18  and  C_19 
REMARK    9  A    between atoms: C_18  and  C_30 
REMARK   10  A    between atoms: C_19  and  C_20 
REMARK       I    between atoms: C_30  and  N_32 
REMARK   11  A    between atoms: C_33  and  N_32 
REMARK   12  A    between atoms: C_33  and  C_34 
REMARK   13  A    between atoms: C_33  and  C_41 
REMARK   14  A    between atoms: C_34  and  C_35 
REMARK       I    between atoms: C_41  and  N_43 
REMARK   15  A    between atoms: C_44  and  N_43 
REMARK   16  A    between atoms: C_44  and  C_45 
REMARK   17  A    between atoms: C_44  and  C_50 
REMARK   18  A    between atoms: C_45  and  C_46 
REMARK   19  A    between atoms: C_46  and  C_47 
REMARK   20  A    between atoms: C_47  and  C_48 
REMARK   21  A    between atoms: C_48  and  N_49 
REMARK       I    between atoms: C_50  and  N_52 
ROOT
HETATM    1  C   UNK N   1      25.102  14.532   2.800  0.00  0.00     0.180 C 
ENDROOT
BRANCH   1   2
HETATM    2  N   UNK N   1      23.771  15.046   2.989  0.00  0.00    -0.346 N 
HETATM    3  C   UNK N   1      22.819  14.871   2.038  0.00  0.00     0.241 C 
HETATM    4  O   UNK N   1      23.095  14.324   0.978  0.00  0.00    -0.271 OA
HETATM    5  H   UNK N   1      23.548  15.529   3.817  0.00  0.00     0.163 HD
BRANCH   3   6
HETATM    6  C   UNK N   1      21.431  15.386   2.248  0.00  0.00     0.182 C 
BRANCH   6   7
HETATM    7  N   UNK N   1      21.477  16.521   3.131  0.00  0.00    -0.345 N 
HETATM    8  C   UNK N   1      20.858  17.686   2.797  0.00  0.00     0.245 C 
HETATM    9  O   UNK N   1      20.079  17.722   1.866  0.00  0.00    -0.271 OA
HETATM   10  H   UNK N   1      21.962  16.454   3.986  0.00  0.00     0.163 HD
BRANCH   8  11
HETATM   11  C   UNK N   1      21.197  18.956   3.543  0.00  0.00     0.098 C 
HETATM   12  C   UNK N   1      20.119  19.984   3.242  0.00  0.00     0.048 C 
HETATM   13  C   UNK N   1      22.533  19.539   3.120  0.00  0.00     0.048 C 
BRANCH  11  14
HETATM   14  N   UNK N   1      21.222  18.698   4.972  0.00  0.00    -0.415 N 
HETATM   15  H   UNK N   1      22.039  18.467   5.537  0.00  0.00     0.151 HD
HETATM   16  H   UNK N   1      20.329  18.754   5.462  0.00  0.00     0.151 HD
ENDBRANCH  11  14
ENDBRANCH   8  11
ENDBRANCH   6   7
BRANCH   6  17
HETATM   17  C   UNK N   1      20.325  14.379   2.604  0.00  0.00     0.093 C 
BRANCH  17  18
HETATM   18  C   UNK N   1      19.259  14.128   1.588  0.00  0.00     0.028 A 
HETATM   19  C   UNK N   1      18.629  12.924   1.386  0.00  0.00     0.114 A 
HETATM   20  N   UNK N   1      17.787  13.073   0.349  0.00  0.00    -0.360 N 
HETATM   21  C   UNK N   1      17.920  14.354  -0.056  0.00  0.00     0.180 A 
HETATM   22  H   UNK N   1      17.193  12.388  -0.037  0.00  0.00     0.166 HD
HETATM   23  N   UNK N   1      18.827  15.022   0.686  0.00  0.00    -0.354 N 
ATOM     24  HN  UNK N   1      19.120  15.993   0.584  1.00  0.00     0.166 HD
ENDBRANCH  17  18
ENDBRANCH   6  17
ENDBRANCH   3   6
ENDBRANCH   1   2
BRANCH   1  25
HETATM   25  C   UNK N   1      25.980  15.478   1.958  0.00  0.00     0.073 C 
BRANCH  25  26
HETATM   26  C   UNK N   1      26.591  16.580   2.780  0.00  0.00    -0.055 A 
HETATM   27  C   UNK N   1      27.982  16.662   2.915  0.00  0.00     0.008 A 
HETATM   28  C   UNK N   1      28.570  17.692   3.635  0.00  0.00     0.013 A 
HETATM   29  C   UNK N   1      27.781  18.644   4.261  0.00  0.00    -0.026 A 
HETATM   30  C   UNK N   1      28.379  19.674   4.989  0.00  0.00     0.012 A 
HETATM   31  C   UNK N   1      26.373  18.564   4.162  0.00  0.00    -0.025 A 
HETATM   32  C   UNK N   1      27.583  20.628   5.627  0.00  0.00     0.001 A 
HETATM   33  C   UNK N   1      26.188  20.548   5.539  0.00  0.00     0.001 A 
HETATM   34  C   UNK N   1      25.583  19.519   4.807  0.00  0.00     0.012 A 
HETATM   35  C   UNK N   1      25.782  17.532   3.415  0.00  0.00     0.019 A 
ENDBRANCH  25  26
ENDBRANCH   1  25
BRANCH   1  36
HETATM   36  C   UNK N   1      25.691  14.215   4.134  0.00  0.00     0.241 C 
HETATM   37  O   UNK N   1      26.669  13.485   4.181  0.00  0.00    -0.271 OA
HETATM   38  N   UNK N   1      25.165  14.759   5.269  0.00  0.00    -0.346 N 
HETATM   39  H   UNK N   1      24.367  15.328   5.183  0.00  0.00     0.163 HD
BRANCH  38  40
HETATM   40  C   UNK N   1      25.715  14.547   6.596  0.00  0.00     0.180 C 
BRANCH  40  41
HETATM   41  C   UNK N   1      26.146  15.897   7.182  0.00  0.00     0.073 C 
BRANCH  41  42
HETATM   42  C   UNK N   1      27.595  16.267   7.079  0.00  0.00    -0.056 A 
HETATM   43  C   UNK N   1      28.054  17.346   7.841  0.00  0.00     0.007 A 
HETATM   44  C   UNK N   1      29.400  17.718   7.797  0.00  0.00     0.001 A 
HETATM   45  C   UNK N   1      30.295  17.009   6.993  0.00  0.00     0.000 A 
HETATM   46  C   UNK N   1      29.843  15.933   6.226  0.00  0.00     0.001 A 
HETATM   47  C   UNK N   1      28.496  15.564   6.265  0.00  0.00     0.007 A 
ENDBRANCH  41  42
ENDBRANCH  40  41
BRANCH  40  48
HETATM   48  C   UNK N   1      24.755  13.787   7.488  0.00  0.00     0.241 C 
HETATM   49  O   UNK N   1      25.183  13.020   8.339  0.00  0.00    -0.271 OA
HETATM   50  N   UNK N   1      23.414  13.922   7.298  0.00  0.00    -0.346 N 
HETATM   51  H   UNK N   1      23.104  14.562   6.617  0.00  0.00     0.163 HD
BRANCH  50  52
HETATM   52  C   UNK N   1      22.412  13.175   8.044  0.00  0.00     0.176 C 
BRANCH  52  53
HETATM   53  C   UNK N   1      22.065  13.884   9.351  0.00  0.00     0.035 C 
BRANCH  53  54
HETATM   54  C   UNK N   1      21.650  12.860  10.391  0.00  0.00     0.004 C 
BRANCH  54  55
HETATM   55  C   UNK N   1      22.685  11.752  10.456  0.00  0.00     0.019 C 
BRANCH  55  56
HETATM   56  C   UNK N   1      23.628  11.963  11.626  0.00  0.00     0.111 C 
BRANCH  56  57
HETATM   57  N   UNK N   1      24.919  12.398  11.129  0.00  0.00    -0.430 N 
HETATM   58  H   UNK N   1      25.575  11.832  10.591  0.00  0.00     0.149 HD
HETATM   59  H   UNK N   1      25.196  13.358  11.337  0.00  0.00     0.149 HD
ENDBRANCH  56  57
ENDBRANCH  55  56
ENDBRANCH  54  55
ENDBRANCH  53  54
ENDBRANCH  52  53
BRANCH  52  60
HETATM   60  C   UNK N   1      21.203  12.840   7.213  0.00  0.00     0.238 C 
HETATM   61  O   UNK N   1      20.249  13.603   7.156  0.00  0.00    -0.271 OA
HETATM   62  N   UNK N   1      21.147  11.655   6.573  0.00  0.00    -0.368 N 
HETATM   63  H   UNK N   1      21.637  11.029   5.994  0.00  0.00     0.159 HD
HETATM   64  H   UNK N   1      20.265  11.258   6.760  0.00  0.00     0.159 HD
ENDBRANCH  52  60
ENDBRANCH  50  52
ENDBRANCH  40  48
ENDBRANCH  38  40
ENDBRANCH   1  36
TORSDOF 21
ENDMDL
MODEL 3
REMARK VINA RESULT:      -7.7      2.384      6.195
REMARK  21 active torsions:
REMARK  status: ('A' for Active; 'I' for Inactive)
REMARK    1  A    between atoms: C_2  and  C_4 
REMARK    2  A    between atoms: C_2  and  N_53 
REMARK       I    between atoms: C_4  and  N_6 
REMARK    3  A    between atoms: C_7  and  N_6 
REMARK    4  A    between atoms: C_7  and  C_8 
REMARK    5  A    between atoms: C_7  and  C_15 
REMARK    6  A    between atoms: C_8  and  C_9 
REMARK       I    between atoms: C_15  and  N_17 
REMARK    7  A    between atoms: C_18  and  N_17 
REMARK    8  A    between atoms: C_18  and  C_19 
REMARK    9  A    between atoms: C_18  and  C_30 
REMARK   10  A    between atoms: C_19  and  C_20 
REMARK       I    between atoms: C_30  and  N_32 
REMARK   11  A    between atoms: C_33  and  N_32 
REMARK   12  A    between atoms: C_33  and  C_34 
REMARK   13  A    between atoms: C_33  and  C_41 
REMARK   14  A    between atoms: C_34  and  C_35 
REMARK       I    between atoms: C_41  and  N_43 
REMARK   15  A    between atoms: C_44  and  N_43 
REMARK   16  A    between atoms: C_44  and  C_45 
REMARK   17  A    between atoms: C_44  and  C_50 
REMARK   18  A    between atoms: C_45  and  C_46 
REMARK   19  A    between atoms: C_46  and  C_47 
REMARK   20  A    between atoms: C_47  and  C_48 
REMARK   21  A    between atoms: C_48  and  N_49 
REMARK       I    between atoms: C_50  and  N_52 
ROOT
HETATM    1  C   UNK N   1      25.159  15.401   4.694  0.00  0.00     0.180 C 
ENDROOT
BRANCH   1   2
HETATM    2  N   UNK N   1      26.075  16.435   4.289  0.00  0.00    -0.346 N 
HETATM    3  C   UNK N   1      27.313  16.518   4.838  0.00  0.00     0.241 C 
HETATM    4  O   UNK N   1      27.650  15.747   5.729  0.00  0.00    -0.271 OA
HETATM    5  H   UNK N   1      25.801  17.090   3.608  0.00  0.00     0.163 HD
BRANCH   3   6
HETATM    6  C   UNK N   1      28.271  17.580   4.399  0.00  0.00     0.182 C 
BRANCH   6   7
HETATM    7  N   UNK N   1      29.424  17.560   5.261  0.00  0.00    -0.345 N 
HETATM    8  C   UNK N   1      30.611  17.063   4.819  0.00  0.00     0.245 C 
HETATM    9  O   UNK N   1      30.780  16.834   3.639  0.00  0.00    -0.271 OA
HETATM   10  H   UNK N   1      29.352  17.911   6.179  0.00  0.00     0.163 HD
BRANCH   8  11
HETATM   11  C   UNK N   1      31.699  16.727   5.813  0.00  0.00     0.098 C 
HETATM   12  C   UNK N   1      31.212  17.117   7.198  0.00  0.00     0.048 C 
HETATM   13  C   UNK N   1      32.988  17.479   5.539  0.00  0.00     0.048 C 
BRANCH  11  14
HETATM   14  N   UNK N   1      31.967  15.299   5.789  0.00  0.00    -0.415 N 
HETATM   15  H   UNK N   1      32.810  14.842   5.441  0.00  0.00     0.151 HD
HETATM   16  H   UNK N   1      31.236  14.691   6.157  0.00  0.00     0.151 HD
ENDBRANCH  11  14
ENDBRANCH   8  11
ENDBRANCH   6   7
BRANCH   6  17
HETATM   17  C   UNK N   1      27.725  18.993   4.140  0.00  0.00     0.093 C 
BRANCH  17  18
HETATM   18  C   UNK N   1      27.313  19.808   5.323  0.00  0.00     0.028 A 
HETATM   19  C   UNK N   1      27.277  21.181   5.362  0.00  0.00     0.114 A 
HETATM   20  N   UNK N   1      26.926  21.544   6.608  0.00  0.00    -0.360 N 
HETATM   21  C   UNK N   1      26.757  20.395   7.297  0.00  0.00     0.180 A 
HETATM   22  H   UNK N   1      26.813  22.462   6.949  0.00  0.00     0.166 HD
HETATM   23  N   UNK N   1      26.999  19.312   6.529  0.00  0.00    -0.354 N 
ATOM     24  HN  UNK N   1      26.952  18.332   6.806  1.00  0.00     0.166 HD
ENDBRANCH  17  18
ENDBRANCH   6  17
ENDBRANCH   3   6
ENDBRANCH   1   2
BRANCH   1  25
HETATM   25  C   UNK N   1      24.128  15.901   5.723  0.00  0.00     0.073 C 
BRANCH  25  26
HETATM   26  C   UNK N   1      23.923  14.928   6.852  0.00  0.00    -0.055 A 
HETATM   27  C   UNK N   1      24.982  14.115   7.274  0.00  0.00     0.008 A 
HETATM   28  C   UNK N   1      24.828  13.238   8.339  0.00  0.00     0.013 A 
HETATM   29  C   UNK N   1      23.605  13.132   8.984  0.00  0.00    -0.026 A 
HETATM   30  C   UNK N   1      23.456  12.244  10.050  0.00  0.00     0.012 A 
HETATM   31  C   UNK N   1      22.515  13.923   8.555  0.00  0.00    -0.025 A 
HETATM   32  C   UNK N   1      22.222  12.131  10.693  0.00  0.00     0.001 A 
HETATM   33  C   UNK N   1      21.136  12.906  10.267  0.00  0.00     0.001 A 
HETATM   34  C   UNK N   1      21.282  13.801   9.201  0.00  0.00     0.012 A 
HETATM   35  C   UNK N   1      22.680  14.824   7.491  0.00  0.00     0.019 A 
ENDBRANCH  25  26
ENDBRANCH   1  25
BRANCH   1  36
HETATM   36  C   UNK N   1      24.535  14.807   3.476  0.00  0.00     0.241 C 
HETATM   37  O   UNK N   1      25.264  14.416   2.577  0.00  0.00    -0.271 OA
HETATM   38  N   UNK N   1      23.180  14.674   3.388  0.00  0.00    -0.346 N 
HETATM   39  H   UNK N   1      22.632  15.018   4.130  0.00  0.00     0.163 HD
BRANCH  38  40
HETATM   40  C   UNK N   1      22.500  14.054   2.265  0.00  0.00     0.180 C 
BRANCH  40  41
HETATM   41  C   UNK N   1      22.345  12.553   2.538  0.00  0.00     0.073 C 
BRANCH  41  42
HETATM   42  C   UNK N   1      22.106  12.126   3.955  0.00  0.00    -0.056 A 
HETATM   43  C   UNK N   1      20.834  12.331   4.498  0.00  0.00     0.007 A 
HETATM   44  C   UNK N   1      20.553  11.931   5.807  0.00  0.00     0.001 A 
HETATM   45  C   UNK N   1      21.544  11.320   6.579  0.00  0.00     0.000 A 
HETATM   46  C   UNK N   1      22.818  11.117   6.044  0.00  0.00     0.001 A 
HETATM   47  C   UNK N   1      23.101  11.521   4.738  0.00  0.00     0.007 A 
ENDBRANCH  41  42
ENDBRANCH  40  41
BRANCH  40  48
HETATM   48  C   UNK N   1      21.188  14.743   1.951  0.00  0.00     0.241 C 
HETATM   49  O   UNK N   1      20.299  14.137   1.371  0.00  0.00    -0.271 OA
HETATM   50  N   UNK N   1      21.028  16.057   2.271  0.00  0.00    -0.346 N 
HETATM   51  H   UNK N   1      21.757  16.508   2.755  0.00  0.00     0.163 HD
BRANCH  50  52
HETATM   52  C   UNK N   1      19.842  16.832   1.939  0.00  0.00     0.176 C 
BRANCH  52  53
HETATM   53  C   UNK N   1      19.838  18.166   2.683  0.00  0.00     0.035 C 
BRANCH  53  54
HETATM   54  C   UNK N   1      21.256  18.534   3.075  0.00  0.00     0.004 C 
BRANCH  54  55
HETATM   55  C   UNK N   1      21.625  19.871   2.457  0.00  0.00     0.019 C 
BRANCH  55  56
HETATM   56  C   UNK N   1      20.407  20.533   1.841  0.00  0.00     0.111 C 
BRANCH  56  57
HETATM   57  N   UNK N   1      20.617  20.690   0.414  0.00  0.00    -0.430 N 
HETATM   58  H   UNK N   1      20.688  21.575  -0.087  0.00  0.00     0.149 HD
HETATM   59  H   UNK N   1      20.700  19.836  -0.138  0.00  0.00     0.149 HD
ENDBRANCH  56  57
ENDBRANCH  55  56
ENDBRANCH  54  55
ENDBRANCH  53  54
ENDBRANCH  52  53
BRANCH  52  60
HETATM   60  C   UNK N   1      19.644  16.980   0.455  0.00  0.00     0.238 C 
HETATM   61  O   UNK N   1      20.443  17.606  -0.225  0.00  0.00    -0.271 OA
HETATM   62  N   UNK N   1      18.538  16.467  -0.120  0.00  0.00    -0.368 N 
HETATM   63  H   UNK N   1      17.961  15.673  -0.189  0.00  0.00     0.159 HD
HETATM   64  H   UNK N   1      18.157  17.163  -0.703  0.00  0.00     0.159 HD
ENDBRANCH  52  60
ENDBRANCH  50  52
ENDBRANCH  40  48
ENDBRANCH  38  40
ENDBRANCH   1  36
TORSDOF 21
ENDMDL
MODEL 4
REMARK VINA RESULT:      -7.5      2.784      7.649
REMARK  21 active torsions:
REMARK  status: ('A' for Active; 'I' for Inactive)
REMARK    1  A    between atoms: C_2  and  C_4 
REMARK    2  A    between atoms: C_2  and  N_53 
REMARK       I    between atoms: C_4  and  N_6 
REMARK    3  A    between atoms: C_7  and  N_6 
REMARK    4  A    between atoms: C_7  and  C_8 
REMARK    5  A    between atoms: C_7  and  C_15 
REMARK    6  A    between atoms: C_8  and  C_9 
REMARK       I    between atoms: C_15  and  N_17 
REMARK    7  A    between atoms: C_18  and  N_17 
REMARK    8  A    between atoms: C_18  and  C_19 
REMARK    9  A    between atoms: C_18  and  C_30 
REMARK   10  A    between atoms: C_19  and  C_20 
REMARK       I    between atoms: C_30  and  N_32 
REMARK   11  A    between atoms: C_33  and  N_32 
REMARK   12  A    between atoms: C_33  and  C_34 
REMARK   13  A    between atoms: C_33  and  C_41 
REMARK   14  A    between atoms: C_34  and  C_35 
REMARK       I    between atoms: C_41  and  N_43 
REMARK   15  A    between atoms: C_44  and  N_43 
REMARK   16  A    between atoms: C_44  and  C_45 
REMARK   17  A    between atoms: C_44  and  C_50 
REMARK   18  A    between atoms: C_45  and  C_46 
REMARK   19  A    between atoms: C_46  and  C_47 
REMARK   20  A    between atoms: C_47  and  C_48 
REMARK   21  A    between atoms: C_48  and  N_49 
REMARK       I    between atoms: C_50  and  N_52 
ROOT
HETATM    1  C   UNK N   1      24.662  15.326   6.391  0.00  0.00     0.180 C 
ENDROOT
BRANCH   1   2
HETATM    2  N   UNK N   1      23.976  14.077   6.593  0.00  0.00    -0.346 N 
HETATM    3  C   UNK N   1      24.229  13.317   7.688  0.00  0.00     0.241 C 
HETATM    4  O   UNK N   1      25.087  13.656   8.494  0.00  0.00    -0.271 OA
HETATM    5  H   UNK N   1      23.318  13.769   5.929  0.00  0.00     0.163 HD
BRANCH   3   6
HETATM    6  C   UNK N   1      23.497  12.031   7.907  0.00  0.00     0.182 C 
BRANCH   6   7
HETATM    7  N   UNK N   1      23.252  11.406   6.633  0.00  0.00    -0.345 N 
HETATM    8  C   UNK N   1      23.652  10.126   6.401  0.00  0.00     0.245 C 
HETATM    9  O   UNK N   1      24.017   9.420   7.319  0.00  0.00    -0.271 OA
HETATM   10  H   UNK N   1      22.791  11.910   5.924  0.00  0.00     0.163 HD
BRANCH   8  11
HETATM   11  C   UNK N   1      23.708   9.604   4.983  0.00  0.00     0.098 C 
HETATM   12  C   UNK N   1      22.855  10.509   4.111  0.00  0.00     0.048 C 
HETATM   13  C   UNK N   1      23.168   8.190   4.863  0.00  0.00     0.048 C 
BRANCH  11  14
HETATM   14  N   UNK N   1      25.078   9.632   4.500  0.00  0.00    -0.415 N 
HETATM   15  H   UNK N   1      25.597  10.451   4.184  0.00  0.00     0.151 HD
HETATM   16  H   UNK N   1      25.571   8.740   4.474  0.00  0.00     0.151 HD
ENDBRANCH  11  14
ENDBRANCH   8  11
ENDBRANCH   6   7
BRANCH   6  17
HETATM   17  C   UNK N   1      22.270  12.037   8.831  0.00  0.00     0.093 C 
BRANCH  17  18
HETATM   18  C   UNK N   1      22.506  11.930  10.303  0.00  0.00     0.028 A 
HETATM   19  C   UNK N   1      21.522  11.931  11.262  0.00  0.00     0.114 A 
HETATM   20  N   UNK N   1      22.125  11.888  12.464  0.00  0.00    -0.360 N 
HETATM   21  C   UNK N   1      23.451  11.863  12.213  0.00  0.00     0.180 A 
HETATM   22  H   UNK N   1      21.687  11.876  13.346  0.00  0.00     0.166 HD
HETATM   23  N   UNK N   1      23.712  11.896  10.890  0.00  0.00    -0.354 N 
ATOM     24  HN  UNK N   1      24.624  11.896  10.436  1.00  0.00     0.166 HD
ENDBRANCH  17  18
ENDBRANCH   6  17
ENDBRANCH   3   6
ENDBRANCH   1   2
BRANCH   1  25
HETATM   25  C   UNK N   1      25.886  15.179   5.468  0.00  0.00     0.073 C 
BRANCH  25  26
HETATM   26  C   UNK N   1      27.130  15.782   6.063  0.00  0.00    -0.055 A 
HETATM   27  C   UNK N   1      28.375  15.544   5.468  0.00  0.00     0.008 A 
HETATM   28  C   UNK N   1      29.531  16.120   5.975  0.00  0.00     0.013 A 
HETATM   29  C   UNK N   1      29.473  16.921   7.105  0.00  0.00    -0.026 A 
HETATM   30  C   UNK N   1      30.641  17.493   7.613  0.00  0.00     0.012 A 
HETATM   31  C   UNK N   1      28.231  17.151   7.739  0.00  0.00    -0.025 A 
HETATM   32  C   UNK N   1      30.582  18.292   8.757  0.00  0.00     0.001 A 
HETATM   33  C   UNK N   1      29.356  18.516   9.394  0.00  0.00     0.001 A 
HETATM   34  C   UNK N   1      28.181  17.948   8.885  0.00  0.00     0.012 A 
HETATM   35  C   UNK N   1      27.060  16.583   7.211  0.00  0.00     0.019 A 
ENDBRANCH  25  26
ENDBRANCH   1  25
BRANCH   1  36
HETATM   36  C   UNK N   1      23.681  16.342   5.910  0.00  0.00     0.241 C 
HETATM   37  O   UNK N   1      22.566  16.358   6.408  0.00  0.00    -0.271 OA
HETATM   38  N   UNK N   1      24.038  17.253   4.959  0.00  0.00    -0.346 N 
HETATM   39  H   UNK N   1      24.943  17.190   4.575  0.00  0.00     0.163 HD
BRANCH  38  40
HETATM   40  C   UNK N   1      23.163  18.308   4.482  0.00  0.00     0.180 C 
BRANCH  40  41
HETATM   41  C   UNK N   1      24.010  19.405   3.826  0.00  0.00     0.073 C 
BRANCH  41  42
HETATM   42  C   UNK N   1      25.442  19.527   4.255  0.00  0.00    -0.056 A 
HETATM   43  C   UNK N   1      25.732  20.339   5.355  0.00  0.00     0.007 A 
HETATM   44  C   UNK N   1      27.047  20.469   5.808  0.00  0.00     0.001 A 
HETATM   45  C   UNK N   1      28.079  19.782   5.164  0.00  0.00     0.000 A 
HETATM   46  C   UNK N   1      27.796  18.973   4.061  0.00  0.00     0.001 A 
HETATM   47  C   UNK N   1      26.482  18.847   3.605  0.00  0.00     0.007 A 
ENDBRANCH  41  42
ENDBRANCH  40  41
BRANCH  40  48
HETATM   48  C   UNK N   1      22.075  17.770   3.575  0.00  0.00     0.241 C 
HETATM   49  O   UNK N   1      21.212  18.518   3.139  0.00  0.00    -0.271 OA
HETATM   50  N   UNK N   1      22.035  16.438   3.294  0.00  0.00    -0.346 N 
HETATM   51  H   UNK N   1      22.757  15.868   3.646  0.00  0.00     0.163 HD
BRANCH  50  52
HETATM   52  C   UNK N   1      20.987  15.809   2.504  0.00  0.00     0.176 C 
BRANCH  52  53
HETATM   53  C   UNK N   1      21.578  15.067   1.307  0.00  0.00     0.035 C 
BRANCH  53  54
HETATM   54  C   UNK N   1      22.634  14.089   1.786  0.00  0.00     0.004 C 
BRANCH  54  55
HETATM   55  C   UNK N   1      23.888  14.240   0.944  0.00  0.00     0.019 C 
BRANCH  55  56
HETATM   56  C   UNK N   1      25.012  14.855   1.758  0.00  0.00     0.111 C 
BRANCH  56  57
HETATM   57  N   UNK N   1      25.986  13.830   2.080  0.00  0.00    -0.430 N 
HETATM   58  H   UNK N   1      26.083  13.357   2.978  0.00  0.00     0.149 HD
HETATM   59  H   UNK N   1      26.635  13.559   1.341  0.00  0.00     0.149 HD
ENDBRANCH  56  57
ENDBRANCH  55  56
ENDBRANCH  54  55
ENDBRANCH  53  54
ENDBRANCH  52  53
BRANCH  52  60
HETATM   60  C   UNK N   1      20.069  14.956   3.336  0.00  0.00     0.238 C 
HETATM   61  O   UNK N   1      19.111  14.387   2.831  0.00  0.00    -0.271 OA
HETATM   62  N   UNK N   1      20.269  14.867   4.666  0.00  0.00    -0.368 N 
HETATM   63  H   UNK N   1      20.939  14.717   5.370  0.00  0.00     0.159 HD
HETATM   64  H   UNK N   1      19.401  15.010   5.107  0.00  0.00     0.159 HD
ENDBRANCH  52  60
ENDBRANCH  50  52
ENDBRANCH  40  48
ENDBRANCH  38  40
ENDBRANCH   1  36
TORSDOF 21
ENDMDL
MODEL 5
REMARK VINA RESULT:      -7.5      2.513      8.183
REMARK  21 active torsions:
REMARK  status: ('A' for Active; 'I' for Inactive)
REMARK    1  A    between atoms: C_2  and  C_4 
REMARK    2  A    between atoms: C_2  and  N_53 
REMARK       I    between atoms: C_4  and  N_6 
REMARK    3  A    between atoms: C_7  and  N_6 
REMARK    4  A    between atoms: C_7  and  C_8 
REMARK    5  A    between atoms: C_7  and  C_15 
REMARK    6  A    between atoms: C_8  and  C_9 
REMARK       I    between atoms: C_15  and  N_17 
REMARK    7  A    between atoms: C_18  and  N_17 
REMARK    8  A    between atoms: C_18  and  C_19 
REMARK    9  A    between atoms: C_18  and  C_30 
REMARK   10  A    between atoms: C_19  and  C_20 
REMARK       I    between atoms: C_30  and  N_32 
REMARK   11  A    between atoms: C_33  and  N_32 
REMARK   12  A    between atoms: C_33  and  C_34 
REMARK   13  A    between atoms: C_33  and  C_41 
REMARK   14  A    between atoms: C_34  and  C_35 
REMARK       I    between atoms: C_41  and  N_43 
REMARK   15  A    between atoms: C_44  and  N_43 
REMARK   16  A    between atoms: C_44  and  C_45 
REMARK   17  A    between atoms: C_44  and  C_50 
REMARK   18  A    between atoms: C_45  and  C_46 
REMARK   19  A    between atoms: C_46  and  C_47 
REMARK   20  A    between atoms: C_47  and  C_48 
REMARK   21  A    between atoms: C_48  and  N_49 
REMARK       I    between atoms: C_50  and  N_52 
ROOT
HETATM    1  C   UNK N   1      25.295  14.310   5.772  0.00  0.00     0.180 C 
ENDROOT
BRANCH   1   2
HETATM    2  N   UNK N   1      24.113  15.046   5.407  0.00  0.00    -0.346 N 
HETATM    3  C   UNK N   1      24.041  16.386   5.609  0.00  0.00     0.241 C 
HETATM    4  O   UNK N   1      24.959  16.981   6.158  0.00  0.00    -0.271 OA
HETATM    5  H   UNK N   1      23.348  14.573   5.007  0.00  0.00     0.163 HD
BRANCH   3   6
HETATM    6  C   UNK N   1      22.820  17.151   5.207  0.00  0.00     0.182 C 
BRANCH   6   7
HETATM    7  N   UNK N   1      21.693  16.671   5.963  0.00  0.00    -0.345 N 
HETATM    8  C   UNK N   1      21.068  17.479   6.862  0.00  0.00     0.245 C 
HETATM    9  O   UNK N   1      21.301  18.670   6.884  0.00  0.00    -0.271 OA
HETATM   10  H   UNK N   1      21.372  15.750   5.828  0.00  0.00     0.163 HD
BRANCH   8  11
HETATM   11  C   UNK N   1      20.131  16.877   7.885  0.00  0.00     0.098 C 
HETATM   12  C   UNK N   1      20.897  15.824   8.668  0.00  0.00     0.048 C 
HETATM   13  C   UNK N   1      18.928  16.205   7.248  0.00  0.00     0.048 C 
BRANCH  11  14
HETATM   14  N   UNK N   1      19.671  17.907   8.800  0.00  0.00    -0.415 N 
HETATM   15  H   UNK N   1      18.824  17.885   9.368  0.00  0.00     0.151 HD
HETATM   16  H   UNK N   1      20.254  18.740   8.882  0.00  0.00     0.151 HD
ENDBRANCH  11  14
ENDBRANCH   8  11
ENDBRANCH   6   7
BRANCH   6  17
HETATM   17  C   UNK N   1      22.524  17.318   3.708  0.00  0.00     0.093 C 
BRANCH  17  18
HETATM   18  C   UNK N   1      21.426  18.252   3.316  0.00  0.00     0.028 A 
HETATM   19  C   UNK N   1      21.489  19.622   3.397  0.00  0.00     0.114 A 
HETATM   20  N   UNK N   1      20.292  20.109   3.022  0.00  0.00    -0.360 N 
HETATM   21  C   UNK N   1      19.532  19.033   2.723  0.00  0.00     0.180 A 
HETATM   22  H   UNK N   1      20.025  21.055   2.975  0.00  0.00     0.166 HD
HETATM   23  N   UNK N   1      20.205  17.878   2.904  0.00  0.00    -0.354 N 
ATOM     24  HN  UNK N   1      19.861  16.930   2.759  1.00  0.00     0.166 HD
ENDBRANCH  17  18
ENDBRANCH   6  17
ENDBRANCH   3   6
ENDBRANCH   1   2
BRANCH   1  25
HETATM   25  C   UNK N   1      24.994  12.829   6.070  0.00  0.00     0.073 C 
BRANCH  25  26
HETATM   26  C   UNK N   1      24.145  12.651   7.300  0.00  0.00    -0.055 A 
HETATM   27  C   UNK N   1      22.751  12.584   7.183  0.00  0.00     0.008 A 
HETATM   28  C   UNK N   1      21.950  12.381   8.298  0.00  0.00     0.013 A 
HETATM   29  C   UNK N   1      22.522  12.271   9.556  0.00  0.00    -0.026 A 
HETATM   30  C   UNK N   1      21.709  12.073  10.674  0.00  0.00     0.012 A 
HETATM   31  C   UNK N   1      23.924  12.366   9.701  0.00  0.00    -0.025 A 
HETATM   32  C   UNK N   1      22.284  11.973  11.942  0.00  0.00     0.001 A 
HETATM   33  C   UNK N   1      23.673  12.074  12.092  0.00  0.00     0.001 A 
HETATM   34  C   UNK N   1      24.492  12.268  10.974  0.00  0.00     0.012 A 
HETATM   35  C   UNK N   1      24.734  12.550   8.568  0.00  0.00     0.019 A 
ENDBRANCH  25  26
ENDBRANCH   1  25
BRANCH   1  36
HETATM   36  C   UNK N   1      26.328  14.499   4.711  0.00  0.00     0.241 C 
HETATM   37  O   UNK N   1      26.229  13.852   3.680  0.00  0.00    -0.271 OA
HETATM   38  N   UNK N   1      27.337  15.400   4.882  0.00  0.00    -0.346 N 
HETATM   39  H   UNK N   1      27.385  15.886   5.736  0.00  0.00     0.163 HD
BRANCH  38  40
HETATM   40  C   UNK N   1      28.344  15.684   3.875  0.00  0.00     0.180 C 
BRANCH  40  41
HETATM   41  C   UNK N   1      27.906  16.903   3.056  0.00  0.00     0.073 C 
BRANCH  41  42
HETATM   42  C   UNK N   1      27.362  18.084   3.804  0.00  0.00    -0.056 A 
HETATM   43  C   UNK N   1      28.176  18.681   4.771  0.00  0.00     0.007 A 
HETATM   44  C   UNK N   1      27.725  19.797   5.480  0.00  0.00     0.001 A 
HETATM   45  C   UNK N   1      26.457  20.323   5.222  0.00  0.00     0.000 A 
HETATM   46  C   UNK N   1      25.637  19.728   4.261  0.00  0.00     0.001 A 
HETATM   47  C   UNK N   1      26.086  18.609   3.555  0.00  0.00     0.007 A 
ENDBRANCH  41  42
ENDBRANCH  40  41
BRANCH  40  48
HETATM   48  C   UNK N   1      29.722  15.838   4.486  0.00  0.00     0.241 C 
HETATM   49  O   UNK N   1      30.661  16.213   3.799  0.00  0.00    -0.271 OA
HETATM   50  N   UNK N   1      29.918  15.505   5.792  0.00  0.00    -0.346 N 
HETATM   51  H   UNK N   1      29.136  15.226   6.321  0.00  0.00     0.163 HD
BRANCH  50  52
HETATM   52  C   UNK N   1      31.216  15.537   6.450  0.00  0.00     0.176 C 
BRANCH  52  53
HETATM   53  C   UNK N   1      31.150  16.346   7.743  0.00  0.00     0.035 C 
BRANCH  53  54
HETATM   54  C   UNK N   1      29.987  17.318   7.678  0.00  0.00     0.004 C 
BRANCH  54  55
HETATM   55  C   UNK N   1      30.170  18.403   8.723  0.00  0.00     0.019 C 
BRANCH  55  56
HETATM   56  C   UNK N   1      29.051  18.357   9.747  0.00  0.00     0.111 C 
BRANCH  56  57
HETATM   57  N   UNK N   1      27.773  18.348   9.061  0.00  0.00    -0.430 N 
HETATM   58  H   UNK N   1      26.924  17.885   9.383  0.00  0.00     0.149 HD
HETATM   59  H   UNK N   1      27.720  18.850   8.174  0.00  0.00     0.149 HD
ENDBRANCH  56  57
ENDBRANCH  55  56
ENDBRANCH  54  55
ENDBRANCH  53  54
ENDBRANCH  52  53
BRANCH  52  60
HETATM   60  C   UNK N   1      31.803  14.166   6.638  0.00  0.00     0.238 C 
HETATM   61  O   UNK N   1      31.693  13.311   5.770  0.00  0.00    -0.271 OA
HETATM   62  N   UNK N   1      32.406  13.856   7.803  0.00  0.00    -0.368 N 
HETATM   63  H   UNK N   1      33.058  14.155   8.477  0.00  0.00     0.159 HD
HETATM   64  H   UNK N   1      32.053  12.985   8.098  0.00  0.00     0.159 HD
ENDBRANCH  52  60
ENDBRANCH  50  52
ENDBRANCH  40  48
ENDBRANCH  38  40
ENDBRANCH   1  36
TORSDOF 21
ENDMDL
MODEL 6
REMARK VINA RESULT:      -7.3      3.747      9.581
REMARK  21 active torsions:
REMARK  status: ('A' for Active; 'I' for Inactive)
REMARK    1  A    between atoms: C_2  and  C_4 
REMARK    2  A    between atoms: C_2  and  N_53 
REMARK       I    between atoms: C_4  and  N_6 
REMARK    3  A    between atoms: C_7  and  N_6 
REMARK    4  A    between atoms: C_7  and  C_8 
REMARK    5  A    between atoms: C_7  and  C_15 
REMARK    6  A    between atoms: C_8  and  C_9 
REMARK       I    between atoms: C_15  and  N_17 
REMARK    7  A    between atoms: C_18  and  N_17 
REMARK    8  A    between atoms: C_18  and  C_19 
REMARK    9  A    between atoms: C_18  and  C_30 
REMARK   10  A    between atoms: C_19  and  C_20 
REMARK       I    between atoms: C_30  and  N_32 
REMARK   11  A    between atoms: C_33  and  N_32 
REMARK   12  A    between atoms: C_33  and  C_34 
REMARK   13  A    between atoms: C_33  and  C_41 
REMARK   14  A    between atoms: C_34  and  C_35 
REMARK       I    between atoms: C_41  and  N_43 
REMARK   15  A    between atoms: C_44  and  N_43 
REMARK   16  A    between atoms: C_44  and  C_45 
REMARK   17  A    between atoms: C_44  and  C_50 
REMARK   18  A    between atoms: C_45  and  C_46 
REMARK   19  A    between atoms: C_46  and  C_47 
REMARK   20  A    between atoms: C_47  and  C_48 
REMARK   21  A    between atoms: C_48  and  N_49 
REMARK       I    between atoms: C_50  and  N_52 
ROOT
HETATM    1  C   UNK N   1      26.355  14.710   3.686  0.00  0.00     0.180 C 
ENDROOT
BRANCH   1   2
HETATM    2  N   UNK N   1      25.554  14.794   4.879  0.00  0.00    -0.346 N 
HETATM    3  C   UNK N   1      25.264  13.681   5.599  0.00  0.00     0.241 C 
HETATM    4  O   UNK N   1      25.631  12.579   5.212  0.00  0.00    -0.271 OA
HETATM    5  H   UNK N   1      25.212  15.668   5.176  0.00  0.00     0.163 HD
BRANCH   3   6
HETATM    6  C   UNK N   1      24.451  13.776   6.851  0.00  0.00     0.182 C 
BRANCH   6   7
HETATM    7  N   UNK N   1      23.478  14.826   6.702  0.00  0.00    -0.345 N 
HETATM    8  C   UNK N   1      22.198  14.539   6.338  0.00  0.00     0.245 C 
HETATM    9  O   UNK N   1      21.799  13.393   6.346  0.00  0.00    -0.271 OA
HETATM   10  H   UNK N   1      23.741  15.761   6.867  0.00  0.00     0.163 HD
BRANCH   8  11
HETATM   11  C   UNK N   1      21.292  15.647   5.851  0.00  0.00     0.098 C 
HETATM   12  C   UNK N   1      21.413  16.816   6.813  0.00  0.00     0.048 C 
HETATM   13  C   UNK N   1      19.834  15.226   5.806  0.00  0.00     0.048 C 
BRANCH  11  14
HETATM   14  N   UNK N   1      21.704  16.077   4.526  0.00  0.00    -0.415 N 
HETATM   15  H   UNK N   1      22.220  15.528   3.839  0.00  0.00     0.151 HD
HETATM   16  H   UNK N   1      21.451  17.027   4.255  0.00  0.00     0.151 HD
ENDBRANCH  11  14
ENDBRANCH   8  11
ENDBRANCH   6   7
BRANCH   6  17
HETATM   17  C   UNK N   1      25.188  13.811   8.199  0.00  0.00     0.093 C 
BRANCH  17  18
HETATM   18  C   UNK N   1      24.642  12.977   9.312  0.00  0.00     0.028 A 
HETATM   19  C   UNK N   1      23.518  12.191   9.232  0.00  0.00     0.114 A 
HETATM   20  N   UNK N   1      23.309  11.652  10.446  0.00  0.00    -0.360 N 
HETATM   21  C   UNK N   1      24.301  12.118  11.234  0.00  0.00     0.180 A 
HETATM   22  H   UNK N   1      22.581  11.042  10.707  0.00  0.00     0.166 HD
HETATM   23  N   UNK N   1      25.130  12.942  10.561  0.00  0.00    -0.354 N 
ATOM     24  HN  UNK N   1      25.949  13.432  10.922  1.00  0.00     0.166 HD
ENDBRANCH  17  18
ENDBRANCH   6  17
ENDBRANCH   3   6
ENDBRANCH   1   2
BRANCH   1  25
HETATM   25  C   UNK N   1      25.582  15.154   2.430  0.00  0.00     0.073 C 
BRANCH  25  26
HETATM   26  C   UNK N   1      25.033  13.989   1.651  0.00  0.00    -0.055 A 
HETATM   27  C   UNK N   1      23.920  14.166   0.821  0.00  0.00     0.008 A 
HETATM   28  C   UNK N   1      23.420  13.116   0.063  0.00  0.00     0.013 A 
HETATM   29  C   UNK N   1      24.002  11.860   0.142  0.00  0.00    -0.026 A 
HETATM   30  C   UNK N   1      23.490  10.808  -0.619  0.00  0.00     0.012 A 
HETATM   31  C   UNK N   1      25.108  11.652   0.996  0.00  0.00    -0.025 A 
HETATM   32  C   UNK N   1      24.071   9.541  -0.532  0.00  0.00     0.001 A 
HETATM   33  C   UNK N   1      25.162   9.327   0.319  0.00  0.00     0.001 A 
HETATM   34  C   UNK N   1      25.682  10.381   1.080  0.00  0.00     0.012 A 
HETATM   35  C   UNK N   1      25.625  12.722   1.745  0.00  0.00     0.019 A 
ENDBRANCH  25  26
ENDBRANCH   1  25
BRANCH   1  36
HETATM   36  C   UNK N   1      27.619  15.474   3.899  0.00  0.00     0.241 C 
HETATM   37  O   UNK N   1      28.133  16.029   2.941  0.00  0.00    -0.271 OA
HETATM   38  N   UNK N   1      28.165  15.573   5.145  0.00  0.00    -0.346 N 
HETATM   39  H   UNK N   1      27.724  15.094   5.883  0.00  0.00     0.163 HD
BRANCH  38  40
HETATM   40  C   UNK N   1      29.358  16.345   5.445  0.00  0.00     0.180 C 
BRANCH  40  41
HETATM   41  C   UNK N   1      29.034  17.365   6.542  0.00  0.00     0.073 C 
BRANCH  41  42
HETATM   42  C   UNK N   1      28.324  18.622   6.134  0.00  0.00    -0.056 A 
HETATM   43  C   UNK N   1      27.799  19.438   7.141  0.00  0.00     0.007 A 
HETATM   44  C   UNK N   1      27.148  20.630   6.814  0.00  0.00     0.001 A 
HETATM   45  C   UNK N   1      27.023  21.014   5.477  0.00  0.00     0.000 A 
HETATM   46  C   UNK N   1      27.541  20.201   4.466  0.00  0.00     0.001 A 
HETATM   47  C   UNK N   1      28.187  19.006   4.792  0.00  0.00     0.007 A 
ENDBRANCH  41  42
ENDBRANCH  40  41
BRANCH  40  48
HETATM   48  C   UNK N   1      30.534  15.453   5.786  0.00  0.00     0.241 C 
HETATM   49  O   UNK N   1      30.433  14.238   5.688  0.00  0.00    -0.271 OA
HETATM   50  N   UNK N   1      31.684  16.010   6.256  0.00  0.00    -0.346 N 
HETATM   51  H   UNK N   1      31.737  16.992   6.304  0.00  0.00     0.163 HD
BRANCH  50  52
HETATM   52  C   UNK N   1      32.839  15.238   6.690  0.00  0.00     0.176 C 
BRANCH  52  53
HETATM   53  C   UNK N   1      34.101  16.098   6.683  0.00  0.00     0.035 C 
BRANCH  53  54
HETATM   54  C   UNK N   1      33.720  17.562   6.574  0.00  0.00     0.004 C 
BRANCH  54  55
HETATM   55  C   UNK N   1      33.830  18.220   7.937  0.00  0.00     0.019 C 
BRANCH  55  56
HETATM   56  C   UNK N   1      34.938  17.583   8.755  0.00  0.00     0.111 C 
BRANCH  56  57
HETATM   57  N   UNK N   1      34.412  17.187  10.048  0.00  0.00    -0.430 N 
HETATM   58  H   UNK N   1      33.728  16.450  10.215  0.00  0.00     0.149 HD
HETATM   59  H   UNK N   1      34.758  17.693  10.863  0.00  0.00     0.149 HD
ENDBRANCH  56  57
ENDBRANCH  55  56
ENDBRANCH  54  55
ENDBRANCH  53  54
ENDBRANCH  52  53
BRANCH  52  60
HETATM   60  C   UNK N   1      32.607  14.537   8.000  0.00  0.00     0.238 C 
HETATM   61  O   UNK N   1      32.402  15.172   9.025  0.00  0.00    -0.271 OA
HETATM   62  N   UNK N   1      32.687  13.193   8.056  0.00  0.00    -0.368 N 
HETATM   63  H   UNK N   1      32.405  12.351   7.631  0.00  0.00     0.159 HD
HETATM   64  H   UNK N   1      33.253  12.961   8.828  0.00  0.00     0.159 HD
ENDBRANCH  52  60
ENDBRANCH  50  52
ENDBRANCH  40  48
ENDBRANCH  38  40
ENDBRANCH   1  36
TORSDOF 21
ENDMDL
MODEL 7
REMARK VINA RESULT:      -7.3      1.905      2.922
REMARK  21 active torsions:
REMARK  status: ('A' for Active; 'I' for Inactive)
REMARK    1  A    between atoms: C_2  and  C_4 
REMARK    2  A    between atoms: C_2  and  N_53 
REMARK       I    between atoms: C_4  and  N_6 
REMARK    3  A    between atoms: C_7  and  N_6 
REMARK    4  A    between atoms: C_7  and  C_8 
REMARK    5  A    between atoms: C_7  and  C_15 
REMARK    6  A    between atoms: C_8  and  C_9 
REMARK       I    between atoms: C_15  and  N_17 
REMARK    7  A    between atoms: C_18  and  N_17 
REMARK    8  A    between atoms: C_18  and  C_19 
REMARK    9  A    between atoms: C_18  and  C_30 
REMARK   10  A    between atoms: C_19  and  C_20 
REMARK       I    between atoms: C_30  and  N_32 
REMARK   11  A    between atoms: C_33  and  N_32 
REMARK   12  A    between atoms: C_33  and  C_34 
REMARK   13  A    between atoms: C_33  and  C_41 
REMARK   14  A    between atoms: C_34  and  C_35 
REMARK       I    between atoms: C_41  and  N_43 
REMARK   15  A    between atoms: C_44  and  N_43 
REMARK   16  A    between atoms: C_44  and  C_45 
REMARK   17  A    between atoms: C_44  and  C_50 
REMARK   18  A    between atoms: C_45  and  C_46 
REMARK   19  A    between atoms: C_46  and  C_47 
REMARK   20  A    between atoms: C_47  and  C_48 
REMARK   21  A    between atoms: C_48  and  N_49 
REMARK       I    between atoms: C_50  and  N_52 
ROOT
HETATM    1  C   UNK N   1      25.940  14.885   4.643  0.00  0.00     0.180 C 
ENDROOT
BRANCH   1   2
HETATM    2  N   UNK N   1      25.266  16.108   4.992  0.00  0.00    -0.346 N 
HETATM    3  C   UNK N   1      25.146  17.115   4.091  0.00  0.00     0.241 C 
HETATM    4  O   UNK N   1      25.659  17.021   2.983  0.00  0.00    -0.271 OA
HETATM    5  H   UNK N   1      24.889  16.217   5.895  0.00  0.00     0.163 HD
BRANCH   3   6
HETATM    6  C   UNK N   1      24.425  18.376   4.450  0.00  0.00     0.182 C 
BRANCH   6   7
HETATM    7  N   UNK N   1      25.081  18.989   5.575  0.00  0.00    -0.345 N 
HETATM    8  C   UNK N   1      25.957  20.014   5.391  0.00  0.00     0.245 C 
HETATM    9  O   UNK N   1      26.035  20.571   4.315  0.00  0.00    -0.271 OA
HETATM   10  H   UNK N   1      24.893  18.664   6.486  0.00  0.00     0.163 HD
BRANCH   8  11
HETATM   11  C   UNK N   1      26.889  20.413   6.513  0.00  0.00     0.098 C 
HETATM   12  C   UNK N   1      27.662  21.644   6.072  0.00  0.00     0.048 C 
HETATM   13  C   UNK N   1      27.893  19.324   6.849  0.00  0.00     0.048 C 
BRANCH  11  14
HETATM   14  N   UNK N   1      26.121  20.735   7.703  0.00  0.00    -0.415 N 
HETATM   15  H   UNK N   1      25.529  21.553   7.845  0.00  0.00     0.151 HD
HETATM   16  H   UNK N   1      26.182  20.075   8.478  0.00  0.00     0.151 HD
ENDBRANCH  11  14
ENDBRANCH   8  11
ENDBRANCH   6   7
BRANCH   6  17
HETATM   17  C   UNK N   1      22.895  18.328   4.586  0.00  0.00     0.093 C 
BRANCH  17  18
HETATM   18  C   UNK N   1      22.092  19.271   3.750  0.00  0.00     0.028 A 
HETATM   19  C   UNK N   1      22.617  20.231   2.919  0.00  0.00     0.114 A 
HETATM   20  N   UNK N   1      21.589  20.921   2.392  0.00  0.00    -0.360 N 
HETATM   21  C   UNK N   1      20.470  20.371   2.909  0.00  0.00     0.180 A 
HETATM   22  H   UNK N   1      21.642  21.673   1.758  0.00  0.00     0.166 HD
HETATM   23  N   UNK N   1      20.754  19.358   3.755  0.00  0.00    -0.354 N 
ATOM     24  HN  UNK N   1      20.095  18.785   4.282  1.00  0.00     0.166 HD
ENDBRANCH  17  18
ENDBRANCH   6  17
ENDBRANCH   3   6
ENDBRANCH   1   2
BRANCH   1  25
HETATM   25  C   UNK N   1      27.190  14.637   5.508  0.00  0.00     0.073 C 
BRANCH  25  26
HETATM   26  C   UNK N   1      28.434  15.229   4.905  0.00  0.00    -0.055 A 
HETATM   27  C   UNK N   1      28.597  15.246   3.514  0.00  0.00     0.008 A 
HETATM   28  C   UNK N   1      29.718  15.822   2.933  0.00  0.00     0.013 A 
HETATM   29  C   UNK N   1      30.715  16.365   3.729  0.00  0.00    -0.026 A 
HETATM   30  C   UNK N   1      31.842  16.936   3.138  0.00  0.00     0.012 A 
HETATM   31  C   UNK N   1      30.585  16.331   5.136  0.00  0.00    -0.025 A 
HETATM   32  C   UNK N   1      32.851  17.474   3.940  0.00  0.00     0.001 A 
HETATM   33  C   UNK N   1      32.732  17.437   5.335  0.00  0.00     0.001 A 
HETATM   34  C   UNK N   1      31.600  16.868   5.932  0.00  0.00     0.012 A 
HETATM   35  C   UNK N   1      29.440  15.767   5.720  0.00  0.00     0.019 A 
ENDBRANCH  25  26
ENDBRANCH   1  25
BRANCH   1  36
HETATM   36  C   UNK N   1      24.958  13.763   4.692  0.00  0.00     0.241 C 
HETATM   37  O   UNK N   1      24.895  13.001   3.740  0.00  0.00    -0.271 OA
HETATM   38  N   UNK N   1      24.174  13.577   5.792  0.00  0.00    -0.346 N 
HETATM   39  H   UNK N   1      24.248  14.227   6.528  0.00  0.00     0.163 HD
BRANCH  38  40
HETATM   40  C   UNK N   1      23.239  12.477   5.941  0.00  0.00     0.180 C 
BRANCH  40  41
HETATM   41  C   UNK N   1      23.932  11.325   6.679  0.00  0.00     0.073 C 
BRANCH  41  42
HETATM   42  C   UNK N   1      23.488   9.929   6.358  0.00  0.00    -0.056 A 
HETATM   43  C   UNK N   1      23.821   8.910   7.256  0.00  0.00     0.007 A 
HETATM   44  C   UNK N   1      23.414   7.596   7.014  0.00  0.00     0.001 A 
HETATM   45  C   UNK N   1      22.666   7.295   5.874  0.00  0.00     0.000 A 
HETATM   46  C   UNK N   1      22.334   8.307   4.970  0.00  0.00     0.001 A 
HETATM   47  C   UNK N   1      22.746   9.620   5.208  0.00  0.00     0.007 A 
ENDBRANCH  41  42
ENDBRANCH  40  41
BRANCH  40  48
HETATM   48  C   UNK N   1      21.949  12.920   6.602  0.00  0.00     0.241 C 
HETATM   49  O   UNK N   1      20.890  12.389   6.300  0.00  0.00    -0.271 OA
HETATM   50  N   UNK N   1      21.972  13.950   7.492  0.00  0.00    -0.346 N 
HETATM   51  H   UNK N   1      22.845  14.341   7.726  0.00  0.00     0.163 HD
BRANCH  50  52
HETATM   52  C   UNK N   1      20.781  14.506   8.117  0.00  0.00     0.176 C 
BRANCH  52  53
HETATM   53  C   UNK N   1      20.599  13.953   9.529  0.00  0.00     0.035 C 
BRANCH  53  54
HETATM   54  C   UNK N   1      21.936  13.483  10.068  0.00  0.00     0.004 C 
BRANCH  54  55
HETATM   55  C   UNK N   1      21.718  12.353  11.058  0.00  0.00     0.019 C 
BRANCH  55  56
HETATM   56  C   UNK N   1      23.028  11.944  11.706  0.00  0.00     0.111 C 
BRANCH  56  57
HETATM   57  N   UNK N   1      22.777  11.517  13.069  0.00  0.00    -0.430 N 
HETATM   58  H   UNK N   1      22.499  12.119  13.843  0.00  0.00     0.149 HD
HETATM   59  H   UNK N   1      22.888  10.523  13.270  0.00  0.00     0.149 HD
ENDBRANCH  56  57
ENDBRANCH  55  56
ENDBRANCH  54  55
ENDBRANCH  53  54
ENDBRANCH  52  53
BRANCH  52  60
HETATM   60  C   UNK N   1      20.744  16.008   8.060  0.00  0.00     0.238 C 
HETATM   61  O   UNK N   1      21.546  16.630   7.377  0.00  0.00    -0.271 OA
HETATM   62  N   UNK N   1      19.857  16.680   8.820  0.00  0.00    -0.368 N 
HETATM   63  H   UNK N   1      18.915  16.734   9.100  0.00  0.00     0.159 HD
HETATM   64  H   UNK N   1      20.344  17.403   9.277  0.00  0.00     0.159 HD
ENDBRANCH  52  60
ENDBRANCH  50  52
ENDBRANCH  40  48
ENDBRANCH  38  40
ENDBRANCH   1  36
TORSDOF 21
ENDMDL
MODEL 8
REMARK VINA RESULT:      -7.3      3.156      9.491
REMARK  21 active torsions:
REMARK  status: ('A' for Active; 'I' for Inactive)
REMARK    1  A    between atoms: C_2  and  C_4 
REMARK    2  A    between atoms: C_2  and  N_53 
REMARK       I    between atoms: C_4  and  N_6 
REMARK    3  A    between atoms: C_7  and  N_6 
REMARK    4  A    between atoms: C_7  and  C_8 
REMARK    5  A    between atoms: C_7  and  C_15 
REMARK    6  A    between atoms: C_8  and  C_9 
REMARK       I    between atoms: C_15  and  N_17 
REMARK    7  A    between atoms: C_18  and  N_17 
REMARK    8  A    between atoms: C_18  and  C_19 
REMARK    9  A    between atoms: C_18  and  C_30 
REMARK   10  A    between atoms: C_19  and  C_20 
REMARK       I    between atoms: C_30  and  N_32 
REMARK   11  A    between atoms: C_33  and  N_32 
REMARK   12  A    between atoms: C_33  and  C_34 
REMARK   13  A    between atoms: C_33  and  C_41 
REMARK   14  A    between atoms: C_34  and  C_35 
REMARK       I    between atoms: C_41  and  N_43 
REMARK   15  A    between atoms: C_44  and  N_43 
REMARK   16  A    between atoms: C_44  and  C_45 
REMARK   17  A    between atoms: C_44  and  C_50 
REMARK   18  A    between atoms: C_45  and  C_46 
REMARK   19  A    between atoms: C_46  and  C_47 
REMARK   20  A    between atoms: C_47  and  C_48 
REMARK   21  A    between atoms: C_48  and  N_49 
REMARK       I    between atoms: C_50  and  N_52 
ROOT
HETATM    1  C   UNK N   1      25.830  13.854   4.253  0.00  0.00     0.180 C 
ENDROOT
BRANCH   1   2
HETATM    2  N   UNK N   1      25.180  14.022   5.526  0.00  0.00    -0.346 N 
HETATM    3  C   UNK N   1      24.546  12.982   6.123  0.00  0.00     0.241 C 
HETATM    4  O   UNK N   1      24.466  11.898   5.559  0.00  0.00    -0.271 OA
HETATM    5  H   UNK N   1      25.196  14.901   5.969  0.00  0.00     0.163 HD
BRANCH   3   6
HETATM    6  C   UNK N   1      23.892  13.154   7.457  0.00  0.00     0.182 C 
BRANCH   6   7
HETATM    7  N   UNK N   1      23.079  14.343   7.433  0.00  0.00    -0.345 N 
HETATM    8  C   UNK N   1      21.727  14.260   7.557  0.00  0.00     0.245 C 
HETATM    9  O   UNK N   1      21.204  13.222   7.907  0.00  0.00    -0.271 OA
HETATM   10  H   UNK N   1      23.507  15.224   7.327  0.00  0.00     0.163 HD
BRANCH   8  11
HETATM   11  C   UNK N   1      20.866  15.447   7.187  0.00  0.00     0.098 C 
HETATM   12  C   UNK N   1      21.782  16.582   6.763  0.00  0.00     0.048 C 
HETATM   13  C   UNK N   1      20.020  15.935   8.348  0.00  0.00     0.048 C 
BRANCH  11  14
HETATM   14  N   UNK N   1      19.996  15.100   6.077  0.00  0.00    -0.415 N 
HETATM   15  H   UNK N   1      19.049  15.441   5.914  0.00  0.00     0.151 HD
HETATM   16  H   UNK N   1      20.370  14.445   5.390  0.00  0.00     0.151 HD
ENDBRANCH  11  14
ENDBRANCH   8  11
ENDBRANCH   6   7
BRANCH   6  17
HETATM   17  C   UNK N   1      24.762  13.034   8.718  0.00  0.00     0.093 C 
BRANCH  17  18
HETATM   18  C   UNK N   1      24.152  12.402   9.927  0.00  0.00     0.028 A 
HETATM   19  C   UNK N   1      23.073  11.553   9.914  0.00  0.00     0.114 A 
HETATM   20  N   UNK N   1      22.777  11.249  11.190  0.00  0.00    -0.360 N 
HETATM   21  C   UNK N   1      23.675  11.915  11.948  0.00  0.00     0.180 A 
HETATM   22  H   UNK N   1      22.054  10.661  11.507  0.00  0.00     0.166 HD
HETATM   23  N   UNK N   1      24.527  12.639  11.193  0.00  0.00    -0.354 N 
ATOM     24  HN  UNK N   1      25.289  13.235  11.515  1.00  0.00     0.166 HD
ENDBRANCH  17  18
ENDBRANCH   6  17
ENDBRANCH   3   6
ENDBRANCH   1   2
BRANCH   1  25
HETATM   25  C   UNK N   1      24.911  14.225   3.073  0.00  0.00     0.073 C 
BRANCH  25  26
HETATM   26  C   UNK N   1      24.170  15.514   3.304  0.00  0.00    -0.055 A 
HETATM   27  C   UNK N   1      24.866  16.654   3.725  0.00  0.00     0.008 A 
HETATM   28  C   UNK N   1      24.211  17.864   3.907  0.00  0.00     0.013 A 
HETATM   29  C   UNK N   1      22.842  17.953   3.702  0.00  0.00    -0.026 A 
HETATM   30  C   UNK N   1      22.189  19.172   3.893  0.00  0.00     0.012 A 
HETATM   31  C   UNK N   1      22.116  16.808   3.305  0.00  0.00    -0.025 A 
HETATM   32  C   UNK N   1      20.810  19.259   3.695  0.00  0.00     0.001 A 
HETATM   33  C   UNK N   1      20.083  18.126   3.310  0.00  0.00     0.001 A 
HETATM   34  C   UNK N   1      20.735  16.902   3.113  0.00  0.00     0.012 A 
HETATM   35  C   UNK N   1      22.785  15.590   3.102  0.00  0.00     0.019 A 
ENDBRANCH  25  26
ENDBRANCH   1  25
BRANCH   1  36
HETATM   36  C   UNK N   1      27.113  14.616   4.261  0.00  0.00     0.241 C 
HETATM   37  O   UNK N   1      27.636  14.890   3.192  0.00  0.00    -0.271 OA
HETATM   38  N   UNK N   1      27.667  15.024   5.439  0.00  0.00    -0.346 N 
HETATM   39  H   UNK N   1      27.218  14.764   6.276  0.00  0.00     0.163 HD
BRANCH  38  40
HETATM   40  C   UNK N   1      28.879  15.818   5.529  0.00  0.00     0.180 C 
BRANCH  40  41
HETATM   41  C   UNK N   1      28.661  16.955   6.534  0.00  0.00     0.073 C 
BRANCH  41  42
HETATM   42  C   UNK N   1      28.136  18.257   6.005  0.00  0.00    -0.056 A 
HETATM   43  C   UNK N   1      27.852  19.273   6.923  0.00  0.00     0.007 A 
HETATM   44  C   UNK N   1      27.382  20.511   6.481  0.00  0.00     0.001 A 
HETATM   45  C   UNK N   1      27.198  20.742   5.115  0.00  0.00     0.000 A 
HETATM   46  C   UNK N   1      27.475  19.730   4.193  0.00  0.00     0.001 A 
HETATM   47  C   UNK N   1      27.940  18.489   4.636  0.00  0.00     0.007 A 
ENDBRANCH  41  42
ENDBRANCH  40  41
BRANCH  40  48
HETATM   48  C   UNK N   1      30.089  14.963   5.847  0.00  0.00     0.241 C 
HETATM   49  O   UNK N   1      30.157  13.815   5.432  0.00  0.00    -0.271 OA
HETATM   50  N   UNK N   1      31.073  15.465   6.643  0.00  0.00    -0.346 N 
HETATM   51  H   UNK N   1      30.995  16.399   6.944  0.00  0.00     0.163 HD
BRANCH  50  52
HETATM   52  C   UNK N   1      32.233  14.699   7.075  0.00  0.00     0.176 C 
BRANCH  52  53
HETATM   53  C   UNK N   1      33.526  15.344   6.580  0.00  0.00     0.035 C 
BRANCH  53  54
HETATM   54  C   UNK N   1      33.274  16.803   6.250  0.00  0.00     0.004 C 
BRANCH  54  55
HETATM   55  C   UNK N   1      34.317  17.667   6.934  0.00  0.00     0.019 C 
BRANCH  55  56
HETATM   56  C   UNK N   1      33.872  18.041   8.336  0.00  0.00     0.111 C 
BRANCH  56  57
HETATM   57  N   UNK N   1      32.432  18.215   8.351  0.00  0.00    -0.430 N 
HETATM   58  H   UNK N   1      31.913  18.860   8.947  0.00  0.00     0.149 HD
HETATM   59  H   UNK N   1      31.889  17.640   7.706  0.00  0.00     0.149 HD
ENDBRANCH  56  57
ENDBRANCH  55  56
ENDBRANCH  54  55
ENDBRANCH  53  54
ENDBRANCH  52  53
BRANCH  52  60
HETATM   60  C   UNK N   1      32.233  14.434   8.556  0.00  0.00     0.238 C 
HETATM   61  O   UNK N   1      32.059  15.342   9.356  0.00  0.00    -0.271 OA
HETATM   62  N   UNK N   1      32.489  13.189   9.006  0.00  0.00    -0.368 N 
HETATM   63  H   UNK N   1      32.272  12.235   8.902  0.00  0.00     0.159 HD
HETATM   64  H   UNK N   1      33.158  13.265   9.724  0.00  0.00     0.159 HD
ENDBRANCH  52  60
ENDBRANCH  50  52
ENDBRANCH  40  48
ENDBRANCH  38  40
ENDBRANCH   1  36
TORSDOF 21
ENDMDL
MODEL 9
REMARK VINA RESULT:      -7.3      2.099      4.943
REMARK  21 active torsions:
REMARK  status: ('A' for Active; 'I' for Inactive)
REMARK    1  A    between atoms: C_2  and  C_4 
REMARK    2  A    between atoms: C_2  and  N_53 
REMARK       I    between atoms: C_4  and  N_6 
REMARK    3  A    between atoms: C_7  and  N_6 
REMARK    4  A    between atoms: C_7  and  C_8 
REMARK    5  A    between atoms: C_7  and  C_15 
REMARK    6  A    between atoms: C_8  and  C_9 
REMARK       I    between atoms: C_15  and  N_17 
REMARK    7  A    between atoms: C_18  and  N_17 
REMARK    8  A    between atoms: C_18  and  C_19 
REMARK    9  A    between atoms: C_18  and  C_30 
REMARK   10  A    between atoms: C_19  and  C_20 
REMARK       I    between atoms: C_30  and  N_32 
REMARK   11  A    between atoms: C_33  and  N_32 
REMARK   12  A    between atoms: C_33  and  C_34 
REMARK   13  A    between atoms: C_33  and  C_41 
REMARK   14  A    between atoms: C_34  and  C_35 
REMARK       I    between atoms: C_41  and  N_43 
REMARK   15  A    between atoms: C_44  and  N_43 
REMARK   16  A    between atoms: C_44  and  C_45 
REMARK   17  A    between atoms: C_44  and  C_50 
REMARK   18  A    between atoms: C_45  and  C_46 
REMARK   19  A    between atoms: C_46  and  C_47 
REMARK   20  A    between atoms: C_47  and  C_48 
REMARK   21  A    between atoms: C_48  and  N_49 
REMARK       I    between atoms: C_50  and  N_52 
ROOT
HETATM    1  C   UNK N   1      25.849  16.461   4.910  0.00  0.00     0.180 C 
ENDROOT
BRANCH   1   2
HETATM    2  N   UNK N   1      24.546  16.976   5.242  0.00  0.00    -0.346 N 
HETATM    3  C   UNK N   1      24.007  18.003   4.538  0.00  0.00     0.241 C 
HETATM    4  O   UNK N   1      24.646  18.546   3.645  0.00  0.00    -0.271 OA
HETATM    5  H   UNK N   1      24.041  16.580   5.988  0.00  0.00     0.163 HD
BRANCH   3   6
HETATM    6  C   UNK N   1      22.644  18.521   4.871  0.00  0.00     0.182 C 
BRANCH   6   7
HETATM    7  N   UNK N   1      21.864  17.457   5.447  0.00  0.00    -0.345 N 
HETATM    8  C   UNK N   1      21.169  17.653   6.600  0.00  0.00     0.245 C 
HETATM    9  O   UNK N   1      21.015  18.773   7.042  0.00  0.00    -0.271 OA
HETATM   10  H   UNK N   1      21.832  16.579   5.001  0.00  0.00     0.163 HD
BRANCH   8  11
HETATM   11  C   UNK N   1      20.649  16.462   7.373  0.00  0.00     0.098 C 
HETATM   12  C   UNK N   1      21.802  15.498   7.591  0.00  0.00     0.048 C 
HETATM   13  C   UNK N   1      19.551  15.722   6.630  0.00  0.00     0.048 C 
BRANCH  11  14
HETATM   14  N   UNK N   1      20.140  16.894   8.663  0.00  0.00    -0.415 N 
HETATM   15  H   UNK N   1      20.679  17.305   9.426  0.00  0.00     0.151 HD
HETATM   16  H   UNK N   1      19.140  16.774   8.824  0.00  0.00     0.151 HD
ENDBRANCH  11  14
ENDBRANCH   8  11
ENDBRANCH   6   7
BRANCH   6  17
HETATM   17  C   UNK N   1      21.887  19.325   3.802  0.00  0.00     0.093 C 
BRANCH  17  18
HETATM   18  C   UNK N   1      20.889  18.597   2.961  0.00  0.00     0.028 A 
HETATM   19  C   UNK N   1      19.586  18.987   2.767  0.00  0.00     0.114 A 
HETATM   20  N   UNK N   1      18.987  18.049   2.012  0.00  0.00    -0.360 N 
HETATM   21  C   UNK N   1      19.930  17.115   1.764  0.00  0.00     0.180 A 
HETATM   22  H   UNK N   1      18.053  18.045   1.702  0.00  0.00     0.166 HD
HETATM   23  N   UNK N   1      21.108  17.426   2.345  0.00  0.00    -0.354 N 
ATOM     24  HN  UNK N   1      21.974  16.888   2.321  1.00  0.00     0.166 HD
ENDBRANCH  17  18
ENDBRANCH   6  17
ENDBRANCH   3   6
ENDBRANCH   1   2
BRANCH   1  25
HETATM   25  C   UNK N   1      26.823  16.521   6.101  0.00  0.00     0.073 C 
BRANCH  25  26
HETATM   26  C   UNK N   1      28.242  16.777   5.672  0.00  0.00    -0.055 A 
HETATM   27  C   UNK N   1      28.518  17.124   4.344  0.00  0.00     0.008 A 
HETATM   28  C   UNK N   1      29.814  17.404   3.933  0.00  0.00     0.013 A 
HETATM   29  C   UNK N   1      30.865  17.312   4.833  0.00  0.00    -0.026 A 
HETATM   30  C   UNK N   1      32.167  17.589   4.411  0.00  0.00     0.012 A 
HETATM   31  C   UNK N   1      30.613  16.934   6.171  0.00  0.00    -0.025 A 
HETATM   32  C   UNK N   1      33.226  17.487   5.315  0.00  0.00     0.001 A 
HETATM   33  C   UNK N   1      32.983  17.105   6.640  0.00  0.00     0.001 A 
HETATM   34  C   UNK N   1      31.679  16.831   7.069  0.00  0.00     0.012 A 
HETATM   35  C   UNK N   1      29.298  16.673   6.588  0.00  0.00     0.019 A 
ENDBRANCH  25  26
ENDBRANCH   1  25
BRANCH   1  36
HETATM   36  C   UNK N   1      25.694  15.089   4.344  0.00  0.00     0.241 C 
HETATM   37  O   UNK N   1      25.310  14.974   3.190  0.00  0.00    -0.271 OA
HETATM   38  N   UNK N   1      26.010  13.993   5.091  0.00  0.00    -0.346 N 
HETATM   39  H   UNK N   1      26.300  14.135   6.021  0.00  0.00     0.163 HD
BRANCH  38  40
HETATM   40  C   UNK N   1      25.944  12.630   4.595  0.00  0.00     0.180 C 
BRANCH  40  41
HETATM   41  C   UNK N   1      27.330  11.984   4.715  0.00  0.00     0.073 C 
BRANCH  41  42
HETATM   42  C   UNK N   1      28.484  12.690   4.068  0.00  0.00    -0.056 A 
HETATM   43  C   UNK N   1      28.418  12.935   2.693  0.00  0.00     0.007 A 
HETATM   44  C   UNK N   1      29.457  13.608   2.046  0.00  0.00     0.001 A 
HETATM   45  C   UNK N   1      30.566  14.045   2.774  0.00  0.00     0.000 A 
HETATM   46  C   UNK N   1      30.641  13.799   4.147  0.00  0.00     0.001 A 
HETATM   47  C   UNK N   1      29.604  13.121   4.794  0.00  0.00     0.007 A 
ENDBRANCH  41  42
ENDBRANCH  40  41
BRANCH  40  48
HETATM   48  C   UNK N   1      24.852  11.834   5.279  0.00  0.00     0.241 C 
HETATM   49  O   UNK N   1      24.727  10.640   5.051  0.00  0.00    -0.271 OA
HETATM   50  N   UNK N   1      23.978  12.470   6.106  0.00  0.00    -0.346 N 
HETATM   51  H   UNK N   1      24.119  13.429   6.282  0.00  0.00     0.163 HD
BRANCH  50  52
HETATM   52  C   UNK N   1      22.845  11.815   6.745  0.00  0.00     0.176 C 
BRANCH  52  53
HETATM   53  C   UNK N   1      22.844  12.076   8.250  0.00  0.00     0.035 C 
BRANCH  53  54
HETATM   54  C   UNK N   1      24.246  12.432   8.706  0.00  0.00     0.004 C 
BRANCH  54  55
HETATM   55  C   UNK N   1      24.329  12.338  10.219  0.00  0.00     0.019 C 
BRANCH  55  56
HETATM   56  C   UNK N   1      22.959  12.521  10.846  0.00  0.00     0.111 C 
BRANCH  56  57
HETATM   57  N   UNK N   1      22.784  11.548  11.907  0.00  0.00    -0.430 N 
HETATM   58  H   UNK N   1      21.898  11.144  12.209  0.00  0.00     0.149 HD
HETATM   59  H   UNK N   1      23.624  11.241  12.397  0.00  0.00     0.149 HD
ENDBRANCH  56  57
ENDBRANCH  55  56
ENDBRANCH  54  55
ENDBRANCH  53  54
ENDBRANCH  52  53
BRANCH  52  60
HETATM   60  C   UNK N   1      21.536  12.148   6.085  0.00  0.00     0.238 C 
HETATM   61  O   UNK N   1      20.494  11.627   6.458  0.00  0.00    -0.271 OA
HETATM   62  N   UNK N   1      21.520  12.985   5.028  0.00  0.00    -0.368 N 
HETATM   63  H   UNK N   1      21.839  13.848   4.680  0.00  0.00     0.159 HD
HETATM   64  H   UNK N   1      20.972  12.566   4.326  0.00  0.00     0.159 HD
ENDBRANCH  52  60
ENDBRANCH  50  52
ENDBRANCH  40  48
ENDBRANCH  38  40
ENDBRANCH   1  36
TORSDOF 21
ENDMDL
