MODEL 1
REMARK VINA RESULT:      -6.8      0.000      0.000
REMARK  5 active torsions:
REMARK  status: ('A' for Active; 'I' for Inactive)
REMARK    1  A    between atoms: C_15  and  C_2 
REMARK    2  A    between atoms: C_15  and  C_12 
REMARK    3  A    between atoms: N_19  and  C_14 
REMARK    4  A    between atoms: C_18  and  C_15 
REMARK    5  A    between atoms: O_22  and  C_18 
ROOT
HETATM    1  C   UNK N   1      30.500  17.243   8.092  0.00  0.00     0.010 A 
HETATM    2  C   UNK N   1      31.359  16.444   5.979  0.00  0.00     0.010 A 
HETATM    3  C   UNK N   1      29.382  17.760   7.442  0.00  0.00     0.030 A 
HETATM    4  C   UNK N   1      30.222  16.939   5.330  0.00  0.00     0.030 A 
HETATM    5  C   UNK N   1      31.512  16.598   7.369  0.00  0.00    -0.044 A 
HETATM    6  C   UNK N   1      29.227  17.616   6.057  0.00  0.00     0.037 A 
ENDROOT
BRANCH   6   7
HETATM    7  N   UNK N   1      28.092  18.200   5.414  0.00  0.00    -0.310 N 
HETATM    8  C   UNK N   1      28.186  19.422   4.618  0.00  0.00     0.172 A 
HETATM    9  C   UNK N   1      26.770  19.566   4.130  0.00  0.00    -0.024 A 
HETATM   10  C   UNK N   1      26.247  20.550   3.293  0.00  0.00     0.010 A 
HETATM   11  C   UNK N   1      25.980  18.557   4.620  0.00  0.00     0.040 A 
HETATM   12  C   UNK N   1      24.881  20.488   2.966  0.00  0.00     0.001 A 
HETATM   13  C   UNK N   1      24.071  19.454   3.481  0.00  0.00     0.001 A 
HETATM   14  C   UNK N   1      24.623  18.469   4.319  0.00  0.00     0.017 A 
HETATM   15  C   UNK N   1      26.826  17.716   5.415  0.00  0.00     0.259 A 
HETATM   16  O   UNK N   1      26.467  16.712   6.011  0.00  0.00    -0.267 OA
ENDBRANCH   6   7
BRANCH   5  17
HETATM   17  C   UNK N   1      32.745  16.099   8.108  0.00  0.00     0.116 C 
BRANCH  17  18
HETATM   18  C   UNK N   1      33.485  17.198   8.880  0.00  0.00     0.015 C 
HETATM   19  C   UNK N   1      34.165  18.171   7.936  0.00  0.00     0.006 C 
ENDBRANCH  17  18
BRANCH  17  20
HETATM   20  C   UNK N   1      32.397  14.950   9.030  0.00  0.00     0.148 C 
HETATM   21  O   UNK N   1      32.278  13.822   8.576  0.00  0.00    -0.649 OA
BRANCH  20  22
HETATM   22  O   UNK N   1      32.244  15.147  10.355  0.00  0.00    -0.776 OA
HETATM   23  H   UNK N   1      32.087  15.792  11.015  0.00  0.00     0.167 HD
ENDBRANCH  20  22
ENDBRANCH  17  20
ENDBRANCH   5  17
TORSDOF 5
ENDMDL
MODEL 2
REMARK VINA RESULT:      -6.5      1.464      1.994
REMARK  5 active torsions:
REMARK  status: ('A' for Active; 'I' for Inactive)
REMARK    1  A    between atoms: C_15  and  C_2 
REMARK    2  A    between atoms: C_15  and  C_12 
REMARK    3  A    between atoms: N_19  and  C_14 
REMARK    4  A    between atoms: C_18  and  C_15 
REMARK    5  A    between atoms: O_22  and  C_18 
ROOT
HETATM    1  C   UNK N   1      30.760  17.640   8.281  0.00  0.00     0.010 A 
HETATM    2  C   UNK N   1      31.593  16.717   6.209  0.00  0.00     0.010 A 
HETATM    3  C   UNK N   1      29.601  18.055   7.630  0.00  0.00     0.030 A 
HETATM    4  C   UNK N   1      30.415  17.109   5.561  0.00  0.00     0.030 A 
HETATM    5  C   UNK N   1      31.779  16.985   7.577  0.00  0.00    -0.044 A 
HETATM    6  C   UNK N   1      29.412  17.797   6.267  0.00  0.00     0.037 A 
ENDROOT
BRANCH   6   7
HETATM    7  N   UNK N   1      28.233  18.280   5.618  0.00  0.00    -0.310 N 
HETATM    8  C   UNK N   1      28.226  19.497   4.810  0.00  0.00     0.172 A 
HETATM    9  C   UNK N   1      26.803  19.519   4.321  0.00  0.00    -0.024 A 
HETATM   10  C   UNK N   1      26.201  20.448   3.475  0.00  0.00     0.010 A 
HETATM   11  C   UNK N   1      26.099  18.453   4.821  0.00  0.00     0.040 A 
HETATM   12  C   UNK N   1      24.845  20.270   3.149  0.00  0.00     0.001 A 
HETATM   13  C   UNK N   1      24.123  19.178   3.674  0.00  0.00     0.001 A 
HETATM   14  C   UNK N   1      24.754  18.250   4.522  0.00  0.00     0.017 A 
HETATM   15  C   UNK N   1      27.011  17.692   5.624  0.00  0.00     0.259 A 
HETATM   16  O   UNK N   1      26.736  16.668   6.230  0.00  0.00    -0.267 OA
ENDBRANCH   6   7
BRANCH   5  17
HETATM   17  C   UNK N   1      33.055  16.600   8.311  0.00  0.00     0.116 C 
BRANCH  17  18
HETATM   18  C   UNK N   1      33.551  15.187   7.980  0.00  0.00     0.015 C 
HETATM   19  C   UNK N   1      32.679  14.131   8.631  0.00  0.00     0.006 C 
ENDBRANCH  17  18
BRANCH  17  20
HETATM   20  C   UNK N   1      34.150  17.616   8.063  0.00  0.00     0.148 C 
HETATM   21  O   UNK N   1      34.759  18.094   9.008  0.00  0.00    -0.649 OA
BRANCH  20  22
HETATM   22  O   UNK N   1      34.486  17.981   6.809  0.00  0.00    -0.776 OA
HETATM   23  H   UNK N   1      34.166  18.083   5.935  0.00  0.00     0.167 HD
ENDBRANCH  20  22
ENDBRANCH  17  20
ENDBRANCH   5  17
TORSDOF 5
ENDMDL
MODEL 3
REMARK VINA RESULT:      -6.5      1.989      2.921
REMARK  5 active torsions:
REMARK  status: ('A' for Active; 'I' for Inactive)
REMARK    1  A    between atoms: C_15  and  C_2 
REMARK    2  A    between atoms: C_15  and  C_12 
REMARK    3  A    between atoms: N_19  and  C_14 
REMARK    4  A    between atoms: C_18  and  C_15 
REMARK    5  A    between atoms: O_22  and  C_18 
ROOT
HETATM    1  C   UNK N   1      31.675  17.044   6.595  0.00  0.00     0.010 A 
HETATM    2  C   UNK N   1      30.793  18.004   8.629  0.00  0.00     0.010 A 
HETATM    3  C   UNK N   1      30.415  17.129   6.008  0.00  0.00     0.030 A 
HETATM    4  C   UNK N   1      29.533  18.115   8.030  0.00  0.00     0.030 A 
HETATM    5  C   UNK N   1      31.877  17.460   7.917  0.00  0.00    -0.044 A 
HETATM    6  C   UNK N   1      29.330  17.663   6.714  0.00  0.00     0.037 A 
ENDROOT
BRANCH   6   7
HETATM    7  N   UNK N   1      28.038  17.690   6.101  0.00  0.00    -0.310 N 
HETATM    8  C   UNK N   1      27.135  16.542   6.125  0.00  0.00     0.172 A 
HETATM    9  C   UNK N   1      25.929  17.100   5.419  0.00  0.00    -0.024 A 
HETATM   10  C   UNK N   1      24.717  16.464   5.159  0.00  0.00     0.010 A 
HETATM   11  C   UNK N   1      26.150  18.396   5.027  0.00  0.00     0.040 A 
HETATM   12  C   UNK N   1      23.721  17.184   4.476  0.00  0.00     0.001 A 
HETATM   13  C   UNK N   1      23.956  18.513   4.067  0.00  0.00     0.001 A 
HETATM   14  C   UNK N   1      25.186  19.136   4.345  0.00  0.00     0.017 A 
HETATM   15  C   UNK N   1      27.469  18.744   5.465  0.00  0.00     0.259 A 
HETATM   16  O   UNK N   1      28.010  19.826   5.294  0.00  0.00    -0.267 OA
ENDBRANCH   6   7
BRANCH   5  17
HETATM   17  C   UNK N   1      33.255  17.297   8.540  0.00  0.00     0.116 C 
BRANCH  17  18
HETATM   18  C   UNK N   1      33.724  15.840   8.621  0.00  0.00     0.015 C 
HETATM   19  C   UNK N   1      32.864  15.036   9.577  0.00  0.00     0.006 C 
ENDBRANCH  17  18
BRANCH  17  20
HETATM   20  C   UNK N   1      34.282  18.143   7.817  0.00  0.00     0.148 C 
HETATM   21  O   UNK N   1      34.547  17.908   6.648  0.00  0.00    -0.649 OA
BRANCH  20  22
HETATM   22  O   UNK N   1      34.890  19.175   8.436  0.00  0.00    -0.776 OA
HETATM   23  H   UNK N   1      34.757  19.907   9.004  0.00  0.00     0.167 HD
ENDBRANCH  20  22
ENDBRANCH  17  20
ENDBRANCH   5  17
TORSDOF 5
ENDMDL
MODEL 4
REMARK VINA RESULT:      -6.3      7.924     10.794
REMARK  5 active torsions:
REMARK  status: ('A' for Active; 'I' for Inactive)
REMARK    1  A    between atoms: C_15  and  C_2 
REMARK    2  A    between atoms: C_15  and  C_12 
REMARK    3  A    between atoms: N_19  and  C_14 
REMARK    4  A    between atoms: C_18  and  C_15 
REMARK    5  A    between atoms: O_22  and  C_18 
ROOT
HETATM    1  C   UNK N   1      21.424  15.315   4.257  0.00  0.00     0.010 A 
HETATM    2  C   UNK N   1      21.586  17.330   5.581  0.00  0.00     0.010 A 
HETATM    3  C   UNK N   1      21.618  14.546   5.402  0.00  0.00     0.030 A 
HETATM    4  C   UNK N   1      21.753  16.557   6.736  0.00  0.00     0.030 A 
HETATM    5  C   UNK N   1      21.426  16.714   4.327  0.00  0.00    -0.044 A 
HETATM    6  C   UNK N   1      21.785  15.153   6.653  0.00  0.00     0.037 A 
ENDROOT
BRANCH   6   7
HETATM    7  N   UNK N   1      22.031  14.338   7.802  0.00  0.00    -0.310 N 
HETATM    8  C   UNK N   1      23.362  13.835   8.134  0.00  0.00     0.172 A 
HETATM    9  C   UNK N   1      23.091  13.111   9.425  0.00  0.00    -0.024 A 
HETATM   10  C   UNK N   1      23.999  12.439  10.240  0.00  0.00     0.010 A 
HETATM   11  C   UNK N   1      21.761  13.183   9.753  0.00  0.00     0.040 A 
HETATM   12  C   UNK N   1      23.518  11.827  11.410  0.00  0.00     0.001 A 
HETATM   13  C   UNK N   1      22.148  11.895  11.738  0.00  0.00     0.001 A 
HETATM   14  C   UNK N   1      21.250  12.584  10.903  0.00  0.00     0.017 A 
HETATM   15  C   UNK N   1      21.120  13.954   8.730  0.00  0.00     0.259 A 
HETATM   16  O   UNK N   1      19.930  14.229   8.689  0.00  0.00    -0.267 OA
ENDBRANCH   6   7
BRANCH   5  17
HETATM   17  C   UNK N   1      21.269  17.518   3.045  0.00  0.00     0.116 C 
BRANCH  17  18
HETATM   18  C   UNK N   1      19.931  17.285   2.333  0.00  0.00     0.015 C 
HETATM   19  C   UNK N   1      20.099  17.299   0.826  0.00  0.00     0.006 C 
ENDBRANCH  17  18
BRANCH  17  20
HETATM   20  C   UNK N   1      21.479  18.995   3.302  0.00  0.00     0.148 C 
HETATM   21  O   UNK N   1      22.608  19.462   3.275  0.00  0.00    -0.649 OA
BRANCH  20  22
HETATM   22  O   UNK N   1      20.433  19.814   3.533  0.00  0.00    -0.776 OA
HETATM   23  H   UNK N   1      19.561  20.028   3.266  0.00  0.00     0.167 HD
ENDBRANCH  20  22
ENDBRANCH  17  20
ENDBRANCH   5  17
TORSDOF 5
ENDMDL
MODEL 5
REMARK VINA RESULT:      -6.3      8.320     13.706
REMARK  5 active torsions:
REMARK  status: ('A' for Active; 'I' for Inactive)
REMARK    1  A    between atoms: C_15  and  C_2 
REMARK    2  A    between atoms: C_15  and  C_12 
REMARK    3  A    between atoms: N_19  and  C_14 
REMARK    4  A    between atoms: C_18  and  C_15 
REMARK    5  A    between atoms: O_22  and  C_18 
ROOT
HETATM    1  C   UNK N   1      34.912  13.086  12.458  0.00  0.00     0.010 A 
HETATM    2  C   UNK N   1      36.382  14.818  13.282  0.00  0.00     0.010 A 
HETATM    3  C   UNK N   1      34.967  12.450  13.696  0.00  0.00     0.030 A 
HETATM    4  C   UNK N   1      36.415  14.194  14.534  0.00  0.00     0.030 A 
HETATM    5  C   UNK N   1      35.633  14.265  12.227  0.00  0.00    -0.044 A 
HETATM    6  C   UNK N   1      35.717  12.992  14.747  0.00  0.00     0.037 A 
ENDROOT
BRANCH   6   7
HETATM    7  N   UNK N   1      35.793  12.289  15.990  0.00  0.00    -0.310 N 
HETATM    8  C   UNK N   1      35.192  12.803  17.219  0.00  0.00     0.172 A 
HETATM    9  C   UNK N   1      35.495  11.689  18.184  0.00  0.00    -0.024 A 
HETATM   10  C   UNK N   1      35.142  11.600  19.529  0.00  0.00     0.010 A 
HETATM   11  C   UNK N   1      36.202  10.689  17.568  0.00  0.00     0.040 A 
HETATM   12  C   UNK N   1      35.535  10.457  20.246  0.00  0.00     0.001 A 
HETATM   13  C   UNK N   1      36.271   9.435  19.610  0.00  0.00     0.001 A 
HETATM   14  C   UNK N   1      36.611   9.545  18.250  0.00  0.00     0.017 A 
HETATM   15  C   UNK N   1      36.374  11.082  16.200  0.00  0.00     0.259 A 
HETATM   16  O   UNK N   1      36.958  10.434  15.345  0.00  0.00    -0.267 OA
ENDBRANCH   6   7
BRANCH   5  17
HETATM   17  C   UNK N   1      35.593  14.897  10.844  0.00  0.00     0.116 C 
BRANCH  17  18
HETATM   18  C   UNK N   1      35.450  16.423  10.870  0.00  0.00     0.015 C 
HETATM   19  C   UNK N   1      34.803  16.937   9.598  0.00  0.00     0.006 C 
ENDBRANCH  17  18
BRANCH  17  20
HETATM   20  C   UNK N   1      36.804  14.494  10.029  0.00  0.00     0.148 C 
HETATM   21  O   UNK N   1      36.697  13.636   9.166  0.00  0.00    -0.649 OA
BRANCH  20  22
HETATM   22  O   UNK N   1      37.998  15.092  10.220  0.00  0.00    -0.776 OA
HETATM   23  H   UNK N   1      38.815  15.305   9.816  0.00  0.00     0.167 HD
ENDBRANCH  20  22
ENDBRANCH  17  20
ENDBRANCH   5  17
TORSDOF 5
ENDMDL
MODEL 6
REMARK VINA RESULT:      -6.2     11.179     14.677
REMARK  5 active torsions:
REMARK  status: ('A' for Active; 'I' for Inactive)
REMARK    1  A    between atoms: C_15  and  C_2 
REMARK    2  A    between atoms: C_15  and  C_12 
REMARK    3  A    between atoms: N_19  and  C_14 
REMARK    4  A    between atoms: C_18  and  C_15 
REMARK    5  A    between atoms: O_22  and  C_18 
ROOT
HETATM    1  C   UNK N   1      28.889  26.502  -5.408  0.00  0.00     0.010 A 
HETATM    2  C   UNK N   1      27.320  25.215  -4.097  0.00  0.00     0.010 A 
HETATM    3  C   UNK N   1      29.823  25.474  -5.300  0.00  0.00     0.030 A 
HETATM    4  C   UNK N   1      28.248  24.170  -4.012  0.00  0.00     0.030 A 
HETATM    5  C   UNK N   1      27.636  26.396  -4.792  0.00  0.00    -0.044 A 
HETATM    6  C   UNK N   1      29.517  24.298  -4.603  0.00  0.00     0.037 A 
ENDROOT
BRANCH   6   7
HETATM    7  N   UNK N   1      30.515  23.283  -4.468  0.00  0.00    -0.310 N 
HETATM    8  C   UNK N   1      30.997  22.502  -5.606  0.00  0.00     0.172 A 
HETATM    9  C   UNK N   1      32.049  21.647  -4.954  0.00  0.00    -0.024 A 
HETATM   10  C   UNK N   1      32.880  20.704  -5.553  0.00  0.00     0.010 A 
HETATM   11  C   UNK N   1      32.122  21.906  -3.609  0.00  0.00     0.040 A 
HETATM   12  C   UNK N   1      33.798  20.014  -4.741  0.00  0.00     0.001 A 
HETATM   13  C   UNK N   1      33.862  20.276  -3.357  0.00  0.00     0.001 A 
HETATM   14  C   UNK N   1      33.016  21.237  -2.775  0.00  0.00     0.017 A 
HETATM   15  C   UNK N   1      31.160  22.930  -3.329  0.00  0.00     0.259 A 
HETATM   16  O   UNK N   1      30.943  23.418  -2.230  0.00  0.00    -0.267 OA
ENDBRANCH   6   7
BRANCH   5  17
HETATM   17  C   UNK N   1      26.666  27.565  -4.885  0.00  0.00     0.116 C 
BRANCH  17  18
HETATM   18  C   UNK N   1      25.323  27.199  -5.528  0.00  0.00     0.015 C 
HETATM   19  C   UNK N   1      25.521  26.546  -6.882  0.00  0.00     0.006 C 
ENDBRANCH  17  18
BRANCH  17  20
HETATM   20  C   UNK N   1      26.446  28.195  -3.525  0.00  0.00     0.148 C 
HETATM   21  O   UNK N   1      27.341  28.844  -3.005  0.00  0.00    -0.649 OA
BRANCH  20  22
HETATM   22  O   UNK N   1      25.262  28.076  -2.890  0.00  0.00    -0.776 OA
HETATM   23  H   UNK N   1      24.665  27.468  -2.503  0.00  0.00     0.167 HD
ENDBRANCH  20  22
ENDBRANCH  17  20
ENDBRANCH   5  17
TORSDOF 5
ENDMDL
MODEL 7
REMARK VINA RESULT:      -6.2      3.775      9.328
REMARK  5 active torsions:
REMARK  status: ('A' for Active; 'I' for Inactive)
REMARK    1  A    between atoms: C_15  and  C_2 
REMARK    2  A    between atoms: C_15  and  C_12 
REMARK    3  A    between atoms: N_19  and  C_14 
REMARK    4  A    between atoms: C_18  and  C_15 
REMARK    5  A    between atoms: O_22  and  C_18 
ROOT
HETATM    1  C   UNK N   1      32.203  17.970   8.443  0.00  0.00     0.010 A 
HETATM    2  C   UNK N   1      30.922  15.922   8.387  0.00  0.00     0.010 A 
HETATM    3  C   UNK N   1      33.356  17.242   8.729  0.00  0.00     0.030 A 
HETATM    4  C   UNK N   1      32.085  15.188   8.646  0.00  0.00     0.030 A 
HETATM    5  C   UNK N   1      30.970  17.325   8.289  0.00  0.00    -0.044 A 
HETATM    6  C   UNK N   1      33.313  15.846   8.835  0.00  0.00     0.037 A 
ENDROOT
BRANCH   6   7
HETATM    7  N   UNK N   1      34.504  15.132   9.178  0.00  0.00    -0.310 N 
HETATM    8  C   UNK N   1      35.534  14.808   8.193  0.00  0.00     0.172 A 
HETATM    9  C   UNK N   1      36.565  14.132   9.056  0.00  0.00    -0.024 A 
HETATM   10  C   UNK N   1      37.802  13.619   8.672  0.00  0.00     0.010 A 
HETATM   11  C   UNK N   1      36.143  14.068  10.360  0.00  0.00     0.040 A 
HETATM   12  C   UNK N   1      38.611  13.024   9.656  0.00  0.00     0.001 A 
HETATM   13  C   UNK N   1      38.168  12.951  10.994  0.00  0.00     0.001 A 
HETATM   14  C   UNK N   1      36.917  13.481  11.359  0.00  0.00     0.017 A 
HETATM   15  C   UNK N   1      34.858  14.700  10.413  0.00  0.00     0.259 A 
HETATM   16  O   UNK N   1      34.174  14.831  11.417  0.00  0.00    -0.267 OA
ENDBRANCH   6   7
BRANCH   5  17
HETATM   17  C   UNK N   1      29.725  18.161   8.035  0.00  0.00     0.116 C 
BRANCH  17  18
HETATM   18  C   UNK N   1      28.788  17.564   6.978  0.00  0.00     0.015 C 
HETATM   19  C   UNK N   1      28.362  18.610   5.966  0.00  0.00     0.006 C 
ENDBRANCH  17  18
BRANCH  17  20
HETATM   20  C   UNK N   1      28.971  18.416   9.324  0.00  0.00     0.148 C 
HETATM   21  O   UNK N   1      29.569  18.831  10.305  0.00  0.00    -0.649 OA
BRANCH  20  22
HETATM   22  O   UNK N   1      27.639  18.218   9.398  0.00  0.00    -0.776 OA
HETATM   23  H   UNK N   1      26.940  17.950   9.960  0.00  0.00     0.167 HD
ENDBRANCH  20  22
ENDBRANCH  17  20
ENDBRANCH   5  17
TORSDOF 5
ENDMDL
MODEL 8
REMARK VINA RESULT:      -6.2      6.395      9.343
REMARK  5 active torsions:
REMARK  status: ('A' for Active; 'I' for Inactive)
REMARK    1  A    between atoms: C_15  and  C_2 
REMARK    2  A    between atoms: C_15  and  C_12 
REMARK    3  A    between atoms: N_19  and  C_14 
REMARK    4  A    between atoms: C_18  and  C_15 
REMARK    5  A    between atoms: O_22  and  C_18 
ROOT
HETATM    1  C   UNK N   1      35.105  12.662  13.149  0.00  0.00     0.010 A 
HETATM    2  C   UNK N   1      36.434  14.585  13.761  0.00  0.00     0.010 A 
HETATM    3  C   UNK N   1      34.826  13.246  11.916  0.00  0.00     0.030 A 
HETATM    4  C   UNK N   1      36.176  15.160  12.511  0.00  0.00     0.030 A 
HETATM    5  C   UNK N   1      35.894  13.329  14.095  0.00  0.00    -0.044 A 
HETATM    6  C   UNK N   1      35.355  14.499  11.581  0.00  0.00     0.037 A 
ENDROOT
BRANCH   6   7
HETATM    7  N   UNK N   1      35.009  15.094  10.327  0.00  0.00    -0.310 N 
HETATM    8  C   UNK N   1      34.630  14.299   9.162  0.00  0.00     0.172 A 
HETATM    9  C   UNK N   1      34.314  15.376   8.160  0.00  0.00    -0.024 A 
HETATM   10  C   UNK N   1      33.866  15.224   6.849  0.00  0.00     0.010 A 
HETATM   11  C   UNK N   1      34.519  16.620   8.700  0.00  0.00     0.040 A 
HETATM   12  C   UNK N   1      33.634  16.382   6.086  0.00  0.00     0.001 A 
HETATM   13  C   UNK N   1      33.856  17.659   6.644  0.00  0.00     0.001 A 
HETATM   14  C   UNK N   1      34.303  17.787   7.971  0.00  0.00     0.017 A 
HETATM   15  C   UNK N   1      34.949  16.420  10.053  0.00  0.00     0.259 A 
HETATM   16  O   UNK N   1      35.226  17.307  10.847  0.00  0.00    -0.267 OA
ENDBRANCH   6   7
BRANCH   5  17
HETATM   17  C   UNK N   1      36.127  12.683  15.452  0.00  0.00     0.116 C 
BRANCH  17  18
HETATM   18  C   UNK N   1      34.878  12.651  16.340  0.00  0.00     0.015 C 
HETATM   19  C   UNK N   1      35.086  13.448  17.613  0.00  0.00     0.006 C 
ENDBRANCH  17  18
BRANCH  17  20
HETATM   20  C   UNK N   1      36.701  11.290  15.298  0.00  0.00     0.148 C 
HETATM   21  O   UNK N   1      37.753  11.130  14.697  0.00  0.00    -0.649 OA
BRANCH  20  22
HETATM   22  O   UNK N   1      36.082  10.222  15.840  0.00  0.00    -0.776 OA
HETATM   23  H   UNK N   1      36.035   9.287  15.836  0.00  0.00     0.167 HD
ENDBRANCH  20  22
ENDBRANCH  17  20
ENDBRANCH   5  17
TORSDOF 5
ENDMDL
MODEL 9
REMARK VINA RESULT:      -6.2      7.920     12.717
REMARK  5 active torsions:
REMARK  status: ('A' for Active; 'I' for Inactive)
REMARK    1  A    between atoms: C_15  and  C_2 
REMARK    2  A    between atoms: C_15  and  C_12 
REMARK    3  A    between atoms: N_19  and  C_14 
REMARK    4  A    between atoms: C_18  and  C_15 
REMARK    5  A    between atoms: O_22  and  C_18 
ROOT
HETATM    1  C   UNK N   1      35.026  13.248  10.779  0.00  0.00     0.010 A 
HETATM    2  C   UNK N   1      35.995  15.123  11.956  0.00  0.00     0.010 A 
HETATM    3  C   UNK N   1      35.119  12.474  11.934  0.00  0.00     0.030 A 
HETATM    4  C   UNK N   1      36.063  14.354  13.124  0.00  0.00     0.030 A 
HETATM    5  C   UNK N   1      35.480  14.573  10.768  0.00  0.00    -0.044 A 
HETATM    6  C   UNK N   1      35.638  13.014  13.118  0.00  0.00     0.037 A 
ENDROOT
BRANCH   6   7
HETATM    7  N   UNK N   1      35.766  12.179  14.272  0.00  0.00    -0.310 N 
HETATM    8  C   UNK N   1      36.714  11.069  14.334  0.00  0.00     0.172 A 
HETATM    9  C   UNK N   1      36.499  10.575  15.739  0.00  0.00    -0.024 A 
HETATM   10  C   UNK N   1      37.151   9.531  16.390  0.00  0.00     0.010 A 
HETATM   11  C   UNK N   1      35.527  11.310  16.370  0.00  0.00     0.040 A 
HETATM   12  C   UNK N   1      36.784   9.240  17.716  0.00  0.00     0.001 A 
HETATM   13  C   UNK N   1      35.777   9.992  18.357  0.00  0.00     0.001 A 
HETATM   14  C   UNK N   1      35.137  11.046  17.681  0.00  0.00     0.017 A 
HETATM   15  C   UNK N   1      35.087  12.306  15.439  0.00  0.00     0.259 A 
HETATM   16  O   UNK N   1      34.226  13.146  15.653  0.00  0.00    -0.267 OA
ENDBRANCH   6   7
BRANCH   5  17
HETATM   17  C   UNK N   1      35.414  15.365   9.471  0.00  0.00     0.116 C 
BRANCH  17  18
HETATM   18  C   UNK N   1      34.775  14.593   8.310  0.00  0.00     0.015 C 
HETATM   19  C   UNK N   1      35.628  14.674   7.059  0.00  0.00     0.006 C 
ENDBRANCH  17  18
BRANCH  17  20
HETATM   20  C   UNK N   1      34.705  16.687   9.679  0.00  0.00     0.148 C 
HETATM   21  O   UNK N   1      35.352  17.689   9.941  0.00  0.00    -0.649 OA
BRANCH  20  22
HETATM   22  O   UNK N   1      33.366  16.783   9.549  0.00  0.00    -0.776 OA
HETATM   23  H   UNK N   1      32.583  17.100   9.953  0.00  0.00     0.167 HD
ENDBRANCH  20  22
ENDBRANCH  17  20
ENDBRANCH   5  17
TORSDOF 5
ENDMDL
