MODEL 1
REMARK VINA RESULT:     -11.6      0.000      0.000
REMARK  3 active torsions:
REMARK  status: ('A' for Active; 'I' for Inactive)
REMARK    1  A    between atoms: C_16  and  N_18 
REMARK       I    between atoms: C_19  and  N_42 
REMARK       I    between atoms: C_22  and  N_25 
REMARK    2  A    between atoms: N_25  and  C_26 
REMARK    3  A    between atoms: C_34  and  N_37 
ROOT
HETATM    1  N   UNK N   1      23.248  18.742   4.347  0.00  0.00    -0.054 N 
HETATM    2  C   UNK N   1      22.833  19.603   3.394  0.00  0.00     0.714 A 
HETATM    3  N   UNK N   1      23.865  20.371   2.940  0.00  0.00    -0.019 N 
ATOM      4  HN  UNK N   1      23.856  21.108   2.235  1.00  0.00     0.203 HD
HETATM    5  C   UNK N   1      24.905  19.900   3.669  0.00  0.00     0.712 A 
HETATM    6  N   UNK N   1      24.530  18.918   4.478  0.00  0.00    -0.108 N 
ATOM      7  HN  UNK N   1      25.144  18.391   5.099  1.00  0.00     0.207 HD
HETATM    8  N   UNK N   1      26.232  20.421   3.731  0.00  0.00    -0.190 N 
HETATM    9  N   UNK N   1      21.491  19.766   2.993  0.00  0.00    -0.232 N 
HETATM   10  H   UNK N   1      26.563  21.057   3.056  0.00  0.00     0.184 HD
HETATM   11  H   UNK N   1      21.259  20.380   2.259  0.00  0.00     0.174 HD
HETATM   12  H   UNK N   1      20.781  19.261   3.451  0.00  0.00     0.174 HD
ENDROOT
BRANCH   8  13
HETATM   13  C   UNK N   1      27.065  19.981   4.817  0.00  0.00     0.049 A 
HETATM   14  C   UNK N   1      27.032  20.662   6.053  0.00  0.00     0.030 A 
HETATM   15  C   UNK N   1      27.602  20.138   7.195  0.00  0.00     0.010 A 
HETATM   16  C   UNK N   1      28.261  18.925   7.135  0.00  0.00    -0.052 A 
HETATM   17  C   UNK N   1      28.397  18.263   5.889  0.00  0.00    -0.050 A 
HETATM   18  C   UNK N   1      28.787  18.366   8.416  0.00  0.00     0.041 C 
HETATM   19  C   UNK N   1      27.784  18.787   4.736  0.00  0.00     0.037 A 
HETATM   20  C   UNK N   1      29.163  16.995   5.777  0.00  0.00     0.041 C 
HETATM   21  C   UNK N   1      30.609  17.245   6.167  0.00  0.00     0.040 C 
HETATM   22  C   UNK N   1      30.789  17.065   7.678  0.00  0.00     0.223 C 
HETATM   23  C   UNK N   1      30.298  18.302   8.424  0.00  0.00     0.040 C 
BRANCH  22  24
HETATM   24  N   UNK N   1      32.182  16.792   8.031  0.00  0.00     0.093 N 
HETATM   25  C   UNK N   1      32.840  18.041   8.399  0.00  0.00     0.273 C 
HETATM   26  C   UNK N   1      34.266  17.965   7.926  0.00  0.00     0.032 C 
HETATM   27  C   UNK N   1      34.253  16.956   6.808  0.00  0.00     0.032 C 
HETATM   28  C   UNK N   1      32.863  16.356   6.815  0.00  0.00     0.273 C 
ENDBRANCH  22  24
ENDBRANCH   8  13
BRANCH   1  29
HETATM   29  C   UNK N   1      22.625  17.833   5.254  0.00  0.00     0.161 A 
HETATM   30  N   UNK N   1      23.257  16.654   5.468  0.00  0.00    -0.283 N 
HETATM   31  N   UNK N   1      22.850  15.779   6.371  0.00  0.00    -0.298 N 
ATOM     32  HN  UNK N   1      24.082  16.433   4.910  1.00  0.00     0.188 HD
HETATM   33  C   UNK N   1      21.755  15.983   7.147  0.00  0.00     0.065 A 
ATOM     34  HN  UNK N   1      23.379  14.915   6.489  1.00  0.00     0.187 HD
HETATM   35  C   UNK N   1      21.025  17.203   6.942  0.00  0.00    -0.025 A 
HETATM   36  C   UNK N   1      21.487  14.894   8.158  0.00  0.00    -0.001 A 
HETATM   37  C   UNK N   1      19.787  17.606   7.668  0.00  0.00     0.041 C 
HETATM   38  C   UNK N   1      21.491  18.130   5.994  0.00  0.00     0.062 A 
HETATM   39  C   UNK N   1      19.775  17.193   9.108  0.00  0.00     0.009 C 
HETATM   40  C   UNK N   1      19.264  15.786   9.074  0.00  0.00     0.040 C 
HETATM   41  C   UNK N   1      20.382  14.814   9.052  0.00  0.00    -0.046 A 
HETATM   42  C   UNK N   1      20.300  13.754   9.964  0.00  0.00     0.008 A 
HETATM   43  C   UNK N   1      21.284  12.768  10.016  0.00  0.00     0.001 A 
HETATM   44  C   UNK N   1      22.366  12.828   9.149  0.00  0.00     0.001 A 
HETATM   45  C   UNK N   1      22.463  13.875   8.238  0.00  0.00     0.014 A 
ENDBRANCH   1  29
TORSDOF 3
ENDMDL
MODEL 2
REMARK VINA RESULT:     -11.0      1.760      8.294
REMARK  3 active torsions:
REMARK  status: ('A' for Active; 'I' for Inactive)
REMARK    1  A    between atoms: C_16  and  N_18 
REMARK       I    between atoms: C_19  and  N_42 
REMARK       I    between atoms: C_22  and  N_25 
REMARK    2  A    between atoms: N_25  and  C_26 
REMARK    3  A    between atoms: C_34  and  N_37 
ROOT
HETATM    1  N   UNK N   1      24.492  19.024   4.505  0.00  0.00    -0.054 N 
HETATM    2  C   UNK N   1      23.994  19.644   3.414  0.00  0.00     0.714 A 
HETATM    3  N   UNK N   1      22.631  19.610   3.407  0.00  0.00    -0.019 N 
ATOM      4  HN  UNK N   1      21.981  19.985   2.714  1.00  0.00     0.203 HD
HETATM    5  C   UNK N   1      22.362  18.952   4.560  0.00  0.00     0.712 A 
HETATM    6  N   UNK N   1      23.472  18.634   5.212  0.00  0.00    -0.108 N 
ATOM      7  HN  UNK N   1      23.518  18.163   6.115  1.00  0.00     0.207 HD
HETATM    8  N   UNK N   1      21.094  18.491   5.024  0.00  0.00    -0.190 N 
HETATM    9  N   UNK N   1      24.777  20.164   2.363  0.00  0.00    -0.232 N 
HETATM   10  H   UNK N   1      20.255  18.820   4.629  0.00  0.00     0.184 HD
HETATM   11  H   UNK N   1      24.354  20.646   1.615  0.00  0.00     0.174 HD
HETATM   12  H   UNK N   1      25.754  20.045   2.378  0.00  0.00     0.174 HD
ENDROOT
BRANCH   8  13
HETATM   13  C   UNK N   1      21.092  17.527   6.091  0.00  0.00     0.049 A 
HETATM   14  C   UNK N   1      20.606  17.886   7.367  0.00  0.00     0.030 A 
HETATM   15  C   UNK N   1      20.338  16.947   8.342  0.00  0.00     0.010 A 
HETATM   16  C   UNK N   1      20.584  15.611   8.089  0.00  0.00    -0.052 A 
HETATM   17  C   UNK N   1      21.164  15.227   6.854  0.00  0.00    -0.050 A 
HETATM   18  C   UNK N   1      20.200  14.631   9.148  0.00  0.00     0.041 C 
HETATM   19  C   UNK N   1      21.402  16.187   5.852  0.00  0.00     0.037 A 
HETATM   20  C   UNK N   1      21.509  13.809   6.580  0.00  0.00     0.041 C 
HETATM   21  C   UNK N   1      22.550  13.341   7.582  0.00  0.00     0.040 C 
HETATM   22  C   UNK N   1      21.865  12.793   8.839  0.00  0.00     0.223 C 
HETATM   23  C   UNK N   1      21.407  13.938   9.738  0.00  0.00     0.040 C 
BRANCH  22  24
HETATM   24  N   UNK N   1      22.742  11.893   9.588  0.00  0.00     0.093 N 
HETATM   25  C   UNK N   1      22.443  12.002  11.011  0.00  0.00     0.273 C 
HETATM   26  C   UNK N   1      23.736  11.845  11.765  0.00  0.00     0.032 C 
HETATM   27  C   UNK N   1      24.810  12.227  10.781  0.00  0.00     0.032 C 
HETATM   28  C   UNK N   1      24.105  12.401   9.453  0.00  0.00     0.273 C 
ENDBRANCH  22  24
ENDBRANCH   8  13
BRANCH   1  29
HETATM   29  C   UNK N   1      25.785  18.629   4.963  0.00  0.00     0.161 A 
HETATM   30  N   UNK N   1      26.287  19.301   6.027  0.00  0.00    -0.283 N 
HETATM   31  N   UNK N   1      27.416  18.956   6.622  0.00  0.00    -0.298 N 
ATOM     32  HN  UNK N   1      25.772  20.107   6.385  1.00  0.00     0.188 HD
HETATM   33  C   UNK N   1      28.173  17.910   6.205  0.00  0.00     0.065 A 
ATOM     34  HN  UNK N   1      27.731  19.499   7.425  1.00  0.00     0.187 HD
HETATM   35  C   UNK N   1      27.706  17.178   5.060  0.00  0.00    -0.025 A 
HETATM   36  C   UNK N   1      29.395  17.640   7.048  0.00  0.00    -0.001 A 
HETATM   37  C   UNK N   1      28.398  16.019   4.429  0.00  0.00     0.041 C 
HETATM   38  C   UNK N   1      26.491  17.548   4.460  0.00  0.00     0.062 A 
HETATM   39  C   UNK N   1      29.081  15.120   5.415  0.00  0.00     0.009 C 
HETATM   40  C   UNK N   1      30.416  15.766   5.626  0.00  0.00     0.040 C 
HETATM   41  C   UNK N   1      30.395  16.654   6.812  0.00  0.00    -0.046 A 
HETATM   42  C   UNK N   1      31.451  16.502   7.719  0.00  0.00     0.008 A 
HETATM   43  C   UNK N   1      31.547  17.300   8.858  0.00  0.00     0.001 A 
HETATM   44  C   UNK N   1      30.583  18.268   9.103  0.00  0.00     0.001 A 
HETATM   45  C   UNK N   1      29.526  18.432   8.212  0.00  0.00     0.014 A 
ENDBRANCH   1  29
TORSDOF 3
ENDMDL
MODEL 3
REMARK VINA RESULT:     -10.4      1.685      8.464
REMARK  3 active torsions:
REMARK  status: ('A' for Active; 'I' for Inactive)
REMARK    1  A    between atoms: C_16  and  N_18 
REMARK       I    between atoms: C_19  and  N_42 
REMARK       I    between atoms: C_22  and  N_25 
REMARK    2  A    between atoms: N_25  and  C_26 
REMARK    3  A    between atoms: C_34  and  N_37 
ROOT
HETATM    1  N   UNK N   1      25.156  18.962   4.584  0.00  0.00    -0.054 N 
HETATM    2  C   UNK N   1      24.762  19.634   3.482  0.00  0.00     0.714 A 
HETATM    3  N   UNK N   1      23.402  19.662   3.382  0.00  0.00    -0.019 N 
ATOM      4  HN  UNK N   1      22.819  20.085   2.658  1.00  0.00     0.203 HD
HETATM    5  C   UNK N   1      23.025  18.984   4.492  0.00  0.00     0.712 A 
HETATM    6  N   UNK N   1      24.073  18.598   5.208  0.00  0.00    -0.108 N 
ATOM      7  HN  UNK N   1      24.037  18.100   6.097  1.00  0.00     0.207 HD
HETATM    8  N   UNK N   1      21.710  18.568   4.855  0.00  0.00    -0.190 N 
HETATM    9  N   UNK N   1      25.637  20.148   2.503  0.00  0.00    -0.232 N 
HETATM   10  H   UNK N   1      20.915  18.945   4.414  0.00  0.00     0.184 HD
HETATM   11  H   UNK N   1      25.288  20.669   1.744  0.00  0.00     0.174 HD
HETATM   12  H   UNK N   1      26.604  19.985   2.581  0.00  0.00     0.174 HD
ENDROOT
BRANCH   8  13
HETATM   13  C   UNK N   1      21.592  17.575   5.888  0.00  0.00     0.049 A 
HETATM   14  C   UNK N   1      20.918  17.883   7.090  0.00  0.00     0.030 A 
HETATM   15  C   UNK N   1      20.550  16.908   7.995  0.00  0.00     0.010 A 
HETATM   16  C   UNK N   1      20.878  15.589   7.749  0.00  0.00    -0.052 A 
HETATM   17  C   UNK N   1      21.640  15.259   6.601  0.00  0.00    -0.050 A 
HETATM   18  C   UNK N   1      20.384  14.567   8.721  0.00  0.00     0.041 C 
HETATM   19  C   UNK N   1      21.982  16.253   5.666  0.00  0.00     0.037 A 
HETATM   20  C   UNK N   1      22.072  13.860   6.347  0.00  0.00     0.041 C 
HETATM   21  C   UNK N   1      22.977  13.400   7.476  0.00  0.00     0.040 C 
HETATM   22  C   UNK N   1      22.142  12.795   8.610  0.00  0.00     0.223 C 
HETATM   23  C   UNK N   1      21.521  13.899   9.460  0.00  0.00     0.040 C 
BRANCH  22  24
HETATM   24  N   UNK N   1      22.938  11.904   9.455  0.00  0.00     0.093 N 
HETATM   25  C   UNK N   1      22.474  12.007  10.834  0.00  0.00     0.273 C 
HETATM   26  C   UNK N   1      23.672  11.863  11.733  0.00  0.00     0.032 C 
HETATM   27  C   UNK N   1      24.849  12.260  10.881  0.00  0.00     0.032 C 
HETATM   28  C   UNK N   1      24.301  12.428   9.480  0.00  0.00     0.273 C 
ENDBRANCH  22  24
ENDBRANCH   8  13
BRANCH   1  29
HETATM   29  C   UNK N   1      26.395  18.496   5.117  0.00  0.00     0.161 A 
HETATM   30  N   UNK N   1      27.337  18.109   4.224  0.00  0.00    -0.283 N 
HETATM   31  N   UNK N   1      28.565  17.772   4.582  0.00  0.00    -0.298 N 
ATOM     32  HN  UNK N   1      27.089  18.076   3.234  1.00  0.00     0.188 HD
HETATM   33  C   UNK N   1      28.977  17.773   5.874  0.00  0.00     0.065 A 
ATOM     34  HN  UNK N   1      29.228  17.501   3.856  1.00  0.00     0.187 HD
HETATM   35  C   UNK N   1      28.010  18.145   6.870  0.00  0.00    -0.025 A 
HETATM   36  C   UNK N   1      30.429  17.414   6.074  0.00  0.00    -0.001 A 
HETATM   37  C   UNK N   1      28.250  18.185   8.341  0.00  0.00     0.041 C 
HETATM   38  C   UNK N   1      26.719  18.523   6.465  0.00  0.00     0.062 A 
HETATM   39  C   UNK N   1      29.627  18.646   8.712  0.00  0.00     0.009 C 
HETATM   40  C   UNK N   1      30.455  17.401   8.638  0.00  0.00     0.040 C 
HETATM   41  C   UNK N   1      31.112  17.275   7.315  0.00  0.00    -0.046 A 
HETATM   42  C   UNK N   1      32.480  16.978   7.328  0.00  0.00     0.008 A 
HETATM   43  C   UNK N   1      33.196  16.815   6.143  0.00  0.00     0.001 A 
HETATM   44  C   UNK N   1      32.546  16.943   4.923  0.00  0.00     0.001 A 
HETATM   45  C   UNK N   1      31.187  17.239   4.893  0.00  0.00     0.014 A 
ENDBRANCH   1  29
TORSDOF 3
ENDMDL
MODEL 4
REMARK VINA RESULT:     -10.0      1.615      1.976
REMARK  3 active torsions:
REMARK  status: ('A' for Active; 'I' for Inactive)
REMARK    1  A    between atoms: C_16  and  N_18 
REMARK       I    between atoms: C_19  and  N_42 
REMARK       I    between atoms: C_22  and  N_25 
REMARK    2  A    between atoms: N_25  and  C_26 
REMARK    3  A    between atoms: C_34  and  N_37 
ROOT
HETATM    1  N   UNK N   1      23.700  18.772   3.837  0.00  0.00    -0.054 N 
HETATM    2  C   UNK N   1      23.231  19.869   3.204  0.00  0.00     0.714 A 
HETATM    3  N   UNK N   1      24.194  20.830   3.106  0.00  0.00    -0.019 N 
ATOM      4  HN  UNK N   1      24.133  21.761   2.691  1.00  0.00     0.203 HD
HETATM    5  C   UNK N   1      25.251  20.229   3.701  0.00  0.00     0.712 A 
HETATM    6  N   UNK N   1      24.952  19.001   4.105  0.00  0.00    -0.108 N 
ATOM      7  HN  UNK N   1      25.595  18.348   4.552  1.00  0.00     0.207 HD
HETATM    8  N   UNK N   1      26.515  20.808   4.024  0.00  0.00    -0.190 N 
HETATM    9  N   UNK N   1      21.894  20.044   2.792  0.00  0.00    -0.232 N 
HETATM   10  H   UNK N   1      26.801  21.662   3.627  0.00  0.00     0.184 HD
HETATM   11  H   UNK N   1      21.626  20.850   2.294  0.00  0.00     0.174 HD
HETATM   12  H   UNK N   1      21.224  19.355   3.004  0.00  0.00     0.174 HD
ENDROOT
BRANCH   8  13
HETATM   13  C   UNK N   1      27.351  20.095   4.952  0.00  0.00     0.049 A 
HETATM   14  C   UNK N   1      27.209  20.310   6.339  0.00  0.00     0.030 A 
HETATM   15  C   UNK N   1      27.790  19.478   7.274  0.00  0.00     0.010 A 
HETATM   16  C   UNK N   1      28.569  18.418   6.854  0.00  0.00    -0.052 A 
HETATM   17  C   UNK N   1      28.812  18.232   5.470  0.00  0.00    -0.050 A 
HETATM   18  C   UNK N   1      29.105  17.502   7.905  0.00  0.00     0.041 C 
HETATM   19  C   UNK N   1      28.189  19.065   4.522  0.00  0.00     0.037 A 
HETATM   20  C   UNK N   1      29.705  17.147   4.990  0.00  0.00     0.041 C 
HETATM   21  C   UNK N   1      31.105  17.369   5.534  0.00  0.00     0.040 C 
HETATM   22  C   UNK N   1      31.251  16.700   6.906  0.00  0.00     0.223 C 
HETATM   23  C   UNK N   1      30.613  17.565   7.990  0.00  0.00     0.040 C 
BRANCH  22  24
HETATM   24  N   UNK N   1      32.652  16.441   7.237  0.00  0.00     0.093 N 
HETATM   25  C   UNK N   1      32.791  16.321   8.685  0.00  0.00     0.273 C 
HETATM   26  C   UNK N   1      34.123  16.907   9.068  0.00  0.00     0.032 C 
HETATM   27  C   UNK N   1      34.465  17.859   7.952  0.00  0.00     0.032 C 
HETATM   28  C   UNK N   1      33.413  17.637   6.887  0.00  0.00     0.273 C 
ENDBRANCH  22  24
ENDBRANCH   8  13
BRANCH   1  29
HETATM   29  C   UNK N   1      23.143  17.558   4.340  0.00  0.00     0.161 A 
HETATM   30  N   UNK N   1      23.401  16.430   3.637  0.00  0.00    -0.283 N 
HETATM   31  N   UNK N   1      23.047  15.228   4.060  0.00  0.00    -0.298 N 
ATOM     32  HN  UNK N   1      23.891  16.510   2.745  1.00  0.00     0.188 HD
HETATM   33  C   UNK N   1      22.380  15.029   5.224  0.00  0.00     0.065 A 
ATOM     34  HN  UNK N   1      23.283  14.419   3.486  1.00  0.00     0.187 HD
HETATM   35  C   UNK N   1      22.050  16.194   5.998  0.00  0.00    -0.025 A 
HETATM   36  C   UNK N   1      22.115  13.582   5.561  0.00  0.00    -0.001 A 
HETATM   37  C   UNK N   1      21.302  16.196   7.287  0.00  0.00     0.041 C 
HETATM   38  C   UNK N   1      22.459  17.458   5.542  0.00  0.00     0.062 A 
HETATM   39  C   UNK N   1      21.617  15.024   8.166  0.00  0.00     0.009 C 
HETATM   40  C   UNK N   1      20.703  13.947   7.670  0.00  0.00     0.040 C 
HETATM   41  C   UNK N   1      21.387  13.084   6.678  0.00  0.00    -0.046 A 
HETATM   42  C   UNK N   1      21.268  11.702   6.871  0.00  0.00     0.008 A 
HETATM   43  C   UNK N   1      21.850  10.795   5.988  0.00  0.00     0.001 A 
HETATM   44  C   UNK N   1      22.561  11.262   4.891  0.00  0.00     0.001 A 
HETATM   45  C   UNK N   1      22.690  12.632   4.684  0.00  0.00     0.014 A 
ENDBRANCH   1  29
TORSDOF 3
ENDMDL
MODEL 5
REMARK VINA RESULT:      -9.5      2.115      8.517
REMARK  3 active torsions:
REMARK  status: ('A' for Active; 'I' for Inactive)
REMARK    1  A    between atoms: C_16  and  N_18 
REMARK       I    between atoms: C_19  and  N_42 
REMARK       I    between atoms: C_22  and  N_25 
REMARK    2  A    between atoms: N_25  and  C_26 
REMARK    3  A    between atoms: C_34  and  N_37 
ROOT
HETATM    1  N   UNK N   1      24.205  19.160   4.043  0.00  0.00    -0.054 N 
HETATM    2  C   UNK N   1      23.664  20.065   3.200  0.00  0.00     0.714 A 
HETATM    3  N   UNK N   1      22.357  19.775   2.938  0.00  0.00    -0.019 N 
ATOM      4  HN  UNK N   1      21.697  20.269   2.336  1.00  0.00     0.203 HD
HETATM    5  C   UNK N   1      22.163  18.662   3.685  0.00  0.00     0.712 A 
HETATM    6  N   UNK N   1      23.257  18.325   4.354  0.00  0.00    -0.108 N 
ATOM      7  HN  UNK N   1      23.342  17.541   5.002  1.00  0.00     0.207 HD
HETATM    8  N   UNK N   1      21.014  17.816   3.703  0.00  0.00    -0.190 N 
HETATM    9  N   UNK N   1      24.380  21.113   2.586  0.00  0.00    -0.232 N 
HETATM   10  H   UNK N   1      20.157  18.110   3.321  0.00  0.00     0.184 HD
HETATM   11  H   UNK N   1      23.916  21.768   2.016  0.00  0.00     0.174 HD
HETATM   12  H   UNK N   1      25.351  21.189   2.729  0.00  0.00     0.174 HD
ENDROOT
BRANCH   8  13
HETATM   13  C   UNK N   1      21.160  16.517   4.303  0.00  0.00     0.049 A 
HETATM   14  C   UNK N   1      20.695  15.370   3.625  0.00  0.00     0.030 A 
HETATM   15  C   UNK N   1      21.036  14.093   4.023  0.00  0.00     0.010 A 
HETATM   16  C   UNK N   1      21.828  13.915   5.142  0.00  0.00    -0.052 A 
HETATM   17  C   UNK N   1      22.230  15.042   5.902  0.00  0.00    -0.050 A 
HETATM   18  C   UNK N   1      22.234  12.518   5.479  0.00  0.00     0.041 C 
HETATM   19  C   UNK N   1      21.907  16.342   5.470  0.00  0.00     0.037 A 
HETATM   20  C   UNK N   1      23.019  14.879   7.150  0.00  0.00     0.041 C 
HETATM   21  C   UNK N   1      22.207  14.086   8.158  0.00  0.00     0.040 C 
HETATM   22  C   UNK N   1      22.450  12.584   7.968  0.00  0.00     0.223 C 
HETATM   23  C   UNK N   1      21.635  12.059   6.789  0.00  0.00     0.040 C 
BRANCH  22  24
HETATM   24  N   UNK N   1      22.126  11.824   9.175  0.00  0.00     0.093 N 
HETATM   25  C   UNK N   1      21.301  12.645  10.054  0.00  0.00     0.273 C 
HETATM   26  C   UNK N   1      21.678  12.316  11.474  0.00  0.00     0.032 C 
HETATM   27  C   UNK N   1      23.077  11.765  11.389  0.00  0.00     0.032 C 
HETATM   28  C   UNK N   1      23.371  11.621   9.911  0.00  0.00     0.273 C 
ENDBRANCH  22  24
ENDBRANCH   8  13
BRANCH   1  29
HETATM   29  C   UNK N   1      25.511  18.869   4.540  0.00  0.00     0.161 A 
HETATM   30  N   UNK N   1      25.814  19.339   5.773  0.00  0.00    -0.283 N 
HETATM   31  N   UNK N   1      26.942  19.039   6.395  0.00  0.00    -0.298 N 
ATOM     32  HN  UNK N   1      25.144  19.950   6.242  1.00  0.00     0.188 HD
HETATM   33  C   UNK N   1      27.894  18.247   5.842  0.00  0.00     0.065 A 
ATOM     34  HN  UNK N   1      27.101  19.418   7.328  1.00  0.00     0.187 HD
HETATM   35  C   UNK N   1      27.642  17.744   4.519  0.00  0.00    -0.025 A 
HETATM   36  C   UNK N   1      29.083  17.974   6.731  0.00  0.00    -0.001 A 
HETATM   37  C   UNK N   1      28.566  16.884   3.727  0.00  0.00     0.041 C 
HETATM   38  C   UNK N   1      26.426  18.056   3.889  0.00  0.00     0.062 A 
HETATM   39  C   UNK N   1      29.322  15.892   4.557  0.00  0.00     0.009 C 
HETATM   40  C   UNK N   1      30.508  16.664   5.048  0.00  0.00     0.040 C 
HETATM   41  C   UNK N   1      30.252  17.235   6.392  0.00  0.00    -0.046 A 
HETATM   42  C   UNK N   1      31.252  17.035   7.352  0.00  0.00     0.008 A 
HETATM   43  C   UNK N   1      31.129  17.547   8.642  0.00  0.00     0.001 A 
HETATM   44  C   UNK N   1      29.998  18.273   8.989  0.00  0.00     0.001 A 
HETATM   45  C   UNK N   1      28.994  18.481   8.048  0.00  0.00     0.014 A 
ENDBRANCH   1  29
TORSDOF 3
ENDMDL
MODEL 6
REMARK VINA RESULT:      -9.3      2.676      9.150
REMARK  3 active torsions:
REMARK  status: ('A' for Active; 'I' for Inactive)
REMARK    1  A    between atoms: C_16  and  N_18 
REMARK       I    between atoms: C_19  and  N_42 
REMARK       I    between atoms: C_22  and  N_25 
REMARK    2  A    between atoms: N_25  and  C_26 
REMARK    3  A    between atoms: C_34  and  N_37 
ROOT
HETATM    1  N   UNK N   1      25.600  18.834   4.466  0.00  0.00    -0.054 N 
HETATM    2  C   UNK N   1      25.132  19.808   3.656  0.00  0.00     0.714 A 
HETATM    3  N   UNK N   1      23.780  19.712   3.500  0.00  0.00    -0.019 N 
ATOM      4  HN  UNK N   1      23.153  20.295   2.945  1.00  0.00     0.203 HD
HETATM    5  C   UNK N   1      23.485  18.640   4.275  0.00  0.00     0.712 A 
HETATM    6  N   UNK N   1      24.568  18.147   4.861  0.00  0.00    -0.108 N 
ATOM      7  HN  UNK N   1      24.588  17.362   5.511  1.00  0.00     0.207 HD
HETATM    8  N   UNK N   1      22.230  17.971   4.394  0.00  0.00    -0.190 N 
HETATM    9  N   UNK N   1      25.941  20.738   2.973  0.00  0.00    -0.232 N 
HETATM   10  H   UNK N   1      21.397  18.387   4.076  0.00  0.00     0.184 HD
HETATM   11  H   UNK N   1      25.534  21.453   2.432  0.00  0.00     0.174 HD
HETATM   12  H   UNK N   1      26.921  20.672   3.039  0.00  0.00     0.174 HD
ENDROOT
BRANCH   8  13
HETATM   13  C   UNK N   1      22.233  16.666   4.999  0.00  0.00     0.049 A 
HETATM   14  C   UNK N   1      22.117  16.536   6.399  0.00  0.00     0.030 A 
HETATM   15  C   UNK N   1      21.854  15.324   7.005  0.00  0.00     0.010 A 
HETATM   16  C   UNK N   1      21.733  14.186   6.231  0.00  0.00    -0.052 A 
HETATM   17  C   UNK N   1      21.942  14.266   4.831  0.00  0.00    -0.050 A 
HETATM   18  C   UNK N   1      21.367  12.918   6.929  0.00  0.00     0.041 C 
HETATM   19  C   UNK N   1      22.176  15.510   4.218  0.00  0.00     0.037 A 
HETATM   20  C   UNK N   1      21.893  13.048   3.982  0.00  0.00     0.041 C 
HETATM   21  C   UNK N   1      22.986  12.088   4.414  0.00  0.00     0.040 C 
HETATM   22  C   UNK N   1      22.472  11.169   5.528  0.00  0.00     0.223 C 
HETATM   23  C   UNK N   1      22.482  11.899   6.868  0.00  0.00     0.040 C 
BRANCH  22  24
HETATM   24  N   UNK N   1      23.260   9.940   5.626  0.00  0.00     0.093 N 
HETATM   25  C   UNK N   1      22.370   8.788   5.537  0.00  0.00     0.273 C 
HETATM   26  C   UNK N   1      22.919   7.713   6.436  0.00  0.00     0.032 C 
HETATM   27  C   UNK N   1      23.759   8.445   7.450  0.00  0.00     0.032 C 
HETATM   28  C   UNK N   1      23.812   9.882   6.977  0.00  0.00     0.273 C 
ENDBRANCH  22  24
ENDBRANCH   8  13
BRANCH   1  29
HETATM   29  C   UNK N   1      26.885  18.356   4.863  0.00  0.00     0.161 A 
HETATM   30  N   UNK N   1      27.834  18.282   3.900  0.00  0.00    -0.283 N 
HETATM   31  N   UNK N   1      29.092  17.971   4.159  0.00  0.00    -0.298 N 
ATOM     32  HN  UNK N   1      27.567  18.475   2.933  1.00  0.00     0.188 HD
HETATM   33  C   UNK N   1      29.532  17.685   5.410  0.00  0.00     0.065 A 
ATOM     34  HN  UNK N   1      29.758  17.944   3.388  1.00  0.00     0.187 HD
HETATM   35  C   UNK N   1      28.562  17.717   6.470  0.00  0.00    -0.025 A 
HETATM   36  C   UNK N   1      31.013  17.410   5.511  0.00  0.00    -0.001 A 
HETATM   37  C   UNK N   1      28.832  17.410   7.903  0.00  0.00     0.041 C 
HETATM   38  C   UNK N   1      27.236  18.074   6.174  0.00  0.00     0.062 A 
HETATM   39  C   UNK N   1      30.176  17.878   8.374  0.00  0.00     0.009 C 
HETATM   40  C   UNK N   1      31.099  16.763   7.991  0.00  0.00     0.040 C 
HETATM   41  C   UNK N   1      31.733  17.025   6.677  0.00  0.00    -0.046 A 
HETATM   42  C   UNK N   1      33.121  16.848   6.612  0.00  0.00     0.008 A 
HETATM   43  C   UNK N   1      33.819  17.044   5.422  0.00  0.00     0.001 A 
HETATM   44  C   UNK N   1      33.134  17.417   4.274  0.00  0.00     0.001 A 
HETATM   45  C   UNK N   1      31.755  17.597   4.322  0.00  0.00     0.014 A 
ENDBRANCH   1  29
TORSDOF 3
ENDMDL
MODEL 7
REMARK VINA RESULT:      -9.0      2.759      8.574
REMARK  3 active torsions:
REMARK  status: ('A' for Active; 'I' for Inactive)
REMARK    1  A    between atoms: C_16  and  N_18 
REMARK       I    between atoms: C_19  and  N_42 
REMARK       I    between atoms: C_22  and  N_25 
REMARK    2  A    between atoms: N_25  and  C_26 
REMARK    3  A    between atoms: C_34  and  N_37 
ROOT
HETATM    1  N   UNK N   1      24.231  18.933   4.285  0.00  0.00    -0.054 N 
HETATM    2  C   UNK N   1      23.603  19.767   3.429  0.00  0.00     0.714 A 
HETATM    3  N   UNK N   1      22.286  19.436   3.297  0.00  0.00    -0.019 N 
ATOM      4  HN  UNK N   1      21.568  19.875   2.718  1.00  0.00     0.203 HD
HETATM    5  C   UNK N   1      22.178  18.376   4.132  0.00  0.00     0.712 A 
HETATM    6  N   UNK N   1      23.331  18.106   4.730  0.00  0.00    -0.108 N 
ATOM      7  HN  UNK N   1      23.486  17.372   5.422  1.00  0.00     0.207 HD
HETATM    8  N   UNK N   1      21.055  17.513   4.304  0.00  0.00    -0.190 N 
HETATM    9  N   UNK N   1      24.242  20.780   2.687  0.00  0.00    -0.232 N 
HETATM   10  H   UNK N   1      20.163  17.764   3.974  0.00  0.00     0.184 HD
HETATM   11  H   UNK N   1      23.719  21.385   2.113  0.00  0.00     0.174 HD
HETATM   12  H   UNK N   1      25.219  20.884   2.743  0.00  0.00     0.174 HD
ENDROOT
BRANCH   8  13
HETATM   13  C   UNK N   1      21.280  16.263   4.979  0.00  0.00     0.049 A 
HETATM   14  C   UNK N   1      20.721  16.040   6.256  0.00  0.00     0.030 A 
HETATM   15  C   UNK N   1      20.682  14.786   6.831  0.00  0.00     0.010 A 
HETATM   16  C   UNK N   1      21.236  13.711   6.163  0.00  0.00    -0.052 A 
HETATM   17  C   UNK N   1      21.892  13.918   4.923  0.00  0.00    -0.050 A 
HETATM   18  C   UNK N   1      21.093  12.364   6.793  0.00  0.00     0.041 C 
HETATM   19  C   UNK N   1      21.898  15.193   4.328  0.00  0.00     0.037 A 
HETATM   20  C   UNK N   1      22.562  12.797   4.217  0.00  0.00     0.041 C 
HETATM   21  C   UNK N   1      23.682  12.252   5.084  0.00  0.00     0.040 C 
HETATM   22  C   UNK N   1      23.145  11.165   6.021  0.00  0.00     0.223 C 
HETATM   23  C   UNK N   1      22.429  11.794   7.212  0.00  0.00     0.040 C 
BRANCH  22  24
HETATM   24  N   UNK N   1      24.209  10.278   6.492  0.00  0.00     0.093 N 
HETATM   25  C   UNK N   1      24.850   9.644   5.346  0.00  0.00     0.273 C 
HETATM   26  C   UNK N   1      25.237   8.247   5.752  0.00  0.00     0.032 C 
HETATM   27  C   UNK N   1      24.317   7.904   6.893  0.00  0.00     0.032 C 
HETATM   28  C   UNK N   1      23.574   9.182   7.219  0.00  0.00     0.273 C 
ENDBRANCH  22  24
ENDBRANCH   8  13
BRANCH   1  29
HETATM   29  C   UNK N   1      25.580  18.701   4.692  0.00  0.00     0.161 A 
HETATM   30  N   UNK N   1      25.934  19.151   5.920  0.00  0.00    -0.283 N 
HETATM   31  N   UNK N   1      27.112  18.896   6.462  0.00  0.00    -0.298 N 
ATOM     32  HN  UNK N   1      25.262  19.709   6.448  1.00  0.00     0.188 HD
HETATM   33  C   UNK N   1      28.070  18.175   5.825  0.00  0.00     0.065 A 
ATOM     34  HN  UNK N   1      27.309  19.256   7.395  1.00  0.00     0.187 HD
HETATM   35  C   UNK N   1      27.762  17.697   4.505  0.00  0.00    -0.025 A 
HETATM   36  C   UNK N   1      29.324  17.943   6.631  0.00  0.00    -0.001 A 
HETATM   37  C   UNK N   1      28.680  16.914   3.630  0.00  0.00     0.041 C 
HETATM   38  C   UNK N   1      26.494  17.960   3.960  0.00  0.00     0.062 A 
HETATM   39  C   UNK N   1      29.539  15.942   4.380  0.00  0.00     0.009 C 
HETATM   40  C   UNK N   1      30.710  16.765   4.823  0.00  0.00     0.040 C 
HETATM   41  C   UNK N   1      30.508  17.281   6.198  0.00  0.00    -0.046 A 
HETATM   42  C   UNK N   1      31.575  17.109   7.087  0.00  0.00     0.008 A 
HETATM   43  C   UNK N   1      31.506  17.575   8.399  0.00  0.00     0.001 A 
HETATM   44  C   UNK N   1      30.361  18.226   8.838  0.00  0.00     0.001 A 
HETATM   45  C   UNK N   1      29.291  18.404   7.968  0.00  0.00     0.014 A 
ENDBRANCH   1  29
TORSDOF 3
ENDMDL
MODEL 8
REMARK VINA RESULT:      -9.0      2.157      3.078
REMARK  3 active torsions:
REMARK  status: ('A' for Active; 'I' for Inactive)
REMARK    1  A    between atoms: C_16  and  N_18 
REMARK       I    between atoms: C_19  and  N_42 
REMARK       I    between atoms: C_22  and  N_25 
REMARK    2  A    between atoms: N_25  and  C_26 
REMARK    3  A    between atoms: C_34  and  N_37 
ROOT
HETATM    1  N   UNK N   1      23.639  17.075   4.509  0.00  0.00    -0.054 N 
HETATM    2  C   UNK N   1      22.824  17.917   3.839  0.00  0.00     0.714 A 
HETATM    3  N   UNK N   1      23.390  19.151   3.708  0.00  0.00    -0.019 N 
ATOM      4  HN  UNK N   1      23.013  19.987   3.261  1.00  0.00     0.203 HD
HETATM    5  C   UNK N   1      24.584  18.978   4.324  0.00  0.00     0.712 A 
HETATM    6  N   UNK N   1      24.728  17.737   4.770  0.00  0.00    -0.108 N 
ATOM      7  HN  UNK N   1      25.554  17.365   5.240  1.00  0.00     0.207 HD
HETATM    8  N   UNK N   1      25.560  19.973   4.627  0.00  0.00    -0.190 N 
HETATM    9  N   UNK N   1      21.516  17.599   3.421  0.00  0.00    -0.232 N 
HETATM   10  H   UNK N   1      25.535  20.860   4.201  0.00  0.00     0.184 HD
HETATM   11  H   UNK N   1      20.989  18.243   2.895  0.00  0.00     0.174 HD
HETATM   12  H   UNK N   1      21.128  16.726   3.656  0.00  0.00     0.174 HD
ENDROOT
BRANCH   8  13
HETATM   13  C   UNK N   1      26.582  19.629   5.579  0.00  0.00     0.049 A 
HETATM   14  C   UNK N   1      26.753  20.408   6.743  0.00  0.00     0.030 A 
HETATM   15  C   UNK N   1      27.527  19.983   7.804  0.00  0.00     0.010 A 
HETATM   16  C   UNK N   1      28.191  18.774   7.723  0.00  0.00    -0.052 A 
HETATM   17  C   UNK N   1      28.120  18.014   6.529  0.00  0.00    -0.050 A 
HETATM   18  C   UNK N   1      28.947  18.325   8.930  0.00  0.00     0.041 C 
HETATM   19  C   UNK N   1      27.301  18.438   5.465  0.00  0.00     0.037 A 
HETATM   20  C   UNK N   1      28.882  16.748   6.383  0.00  0.00     0.041 C 
HETATM   21  C   UNK N   1      30.368  17.040   6.488  0.00  0.00     0.040 C 
HETATM   22  C   UNK N   1      30.816  16.984   7.953  0.00  0.00     0.223 C 
HETATM   23  C   UNK N   1      30.437  18.274   8.675  0.00  0.00     0.040 C 
BRANCH  22  24
HETATM   24  N   UNK N   1      32.255  16.752   8.073  0.00  0.00     0.093 N 
HETATM   25  C   UNK N   1      32.935  18.027   8.268  0.00  0.00     0.273 C 
HETATM   26  C   UNK N   1      34.261  17.953   7.560  0.00  0.00     0.032 C 
HETATM   27  C   UNK N   1      34.082  16.892   6.507  0.00  0.00     0.032 C 
HETATM   28  C   UNK N   1      32.729  16.270   6.778  0.00  0.00     0.273 C 
ENDBRANCH  22  24
ENDBRANCH   8  13
BRANCH   1  29
HETATM   29  C   UNK N   1      23.537  15.760   5.055  0.00  0.00     0.161 A 
HETATM   30  N   UNK N   1      23.584  14.729   4.177  0.00  0.00    -0.283 N 
HETATM   31  N   UNK N   1      23.619  13.465   4.562  0.00  0.00    -0.298 N 
ATOM     32  HN  UNK N   1      23.593  14.937   3.178  1.00  0.00     0.188 HD
HETATM   33  C   UNK N   1      23.595  13.096   5.867  0.00  0.00     0.065 A 
ATOM     34  HN  UNK N   1      23.666  12.738   3.848  1.00  0.00     0.187 HD
HETATM   35  C   UNK N   1      23.514  14.146   6.844  0.00  0.00    -0.025 A 
HETATM   36  C   UNK N   1      23.702  11.609   6.104  0.00  0.00    -0.001 A 
HETATM   37  C   UNK N   1      23.450  13.955   8.321  0.00  0.00     0.041 C 
HETATM   38  C   UNK N   1      23.502  15.483   6.413  0.00  0.00     0.062 A 
HETATM   39  C   UNK N   1      24.281  12.810   8.814  0.00  0.00     0.009 C 
HETATM   40  C   UNK N   1      23.387  11.620   8.649  0.00  0.00     0.040 C 
HETATM   41  C   UNK N   1      23.640  10.938   7.358  0.00  0.00    -0.046 A 
HETATM   42  C   UNK N   1      23.800   9.547   7.413  0.00  0.00     0.008 A 
HETATM   43  C   UNK N   1      24.020   8.799   6.258  0.00  0.00     0.001 A 
HETATM   44  C   UNK N   1      24.080   9.436   5.026  0.00  0.00     0.001 A 
HETATM   45  C   UNK N   1      23.924  10.817   4.954  0.00  0.00     0.014 A 
ENDBRANCH   1  29
TORSDOF 3
ENDMDL
MODEL 9
REMARK VINA RESULT:      -8.7      3.973      7.789
REMARK  3 active torsions:
REMARK  status: ('A' for Active; 'I' for Inactive)
REMARK    1  A    between atoms: C_16  and  N_18 
REMARK       I    between atoms: C_19  and  N_42 
REMARK       I    between atoms: C_22  and  N_25 
REMARK    2  A    between atoms: N_25  and  C_26 
REMARK    3  A    between atoms: C_34  and  N_37 
ROOT
HETATM    1  N   UNK N   1      29.486  17.671   7.486  0.00  0.00    -0.054 N 
HETATM    2  C   UNK N   1      29.767  17.843   8.795  0.00  0.00     0.714 A 
HETATM    3  N   UNK N   1      30.997  17.340   9.105  0.00  0.00    -0.019 N 
ATOM      4  HN  UNK N   1      31.473  17.317  10.008  1.00  0.00     0.203 HD
HETATM    5  C   UNK N   1      31.422  16.880   7.904  0.00  0.00     0.712 A 
HETATM    6  N   UNK N   1      30.529  17.106   6.950  0.00  0.00    -0.108 N 
ATOM      7  HN  UNK N   1      30.640  16.875   5.963  1.00  0.00     0.207 HD
HETATM    8  N   UNK N   1      32.594  16.114   7.630  0.00  0.00    -0.190 N 
HETATM    9  N   UNK N   1      28.870  18.376   9.742  0.00  0.00    -0.232 N 
HETATM   10  H   UNK N   1      33.324  16.045   8.287  0.00  0.00     0.184 HD
HETATM   11  H   UNK N   1      29.152  18.518  10.675  0.00  0.00     0.174 HD
HETATM   12  H   UNK N   1      27.953  18.608   9.468  0.00  0.00     0.174 HD
ENDROOT
BRANCH   8  13
HETATM   13  C   UNK N   1      32.666  15.448   6.358  0.00  0.00     0.049 A 
HETATM   14  C   UNK N   1      33.320  16.069   5.272  0.00  0.00     0.030 A 
HETATM   15  C   UNK N   1      33.645  15.382   4.121  0.00  0.00     0.010 A 
HETATM   16  C   UNK N   1      33.293  14.052   3.997  0.00  0.00    -0.052 A 
HETATM   17  C   UNK N   1      32.549  13.425   5.028  0.00  0.00    -0.050 A 
HETATM   18  C   UNK N   1      33.742  13.335   2.766  0.00  0.00     0.041 C 
HETATM   19  C   UNK N   1      32.251  14.123   6.213  0.00  0.00     0.037 A 
HETATM   20  C   UNK N   1      32.091  12.019   4.893  0.00  0.00     0.041 C 
HETATM   21  C   UNK N   1      31.151  11.907   3.706  0.00  0.00     0.040 C 
HETATM   22  C   UNK N   1      31.947  11.630   2.426  0.00  0.00     0.223 C 
HETATM   23  C   UNK N   1      32.574  12.918   1.901  0.00  0.00     0.040 C 
BRANCH  22  24
HETATM   24  N   UNK N   1      31.112  11.024   1.388  0.00  0.00     0.093 N 
HETATM   25  C   UNK N   1      31.273  11.770   0.144  0.00  0.00     0.273 C 
HETATM   26  C   UNK N   1      29.945  11.772  -0.563  0.00  0.00     0.032 C 
HETATM   27  C   UNK N   1      28.925  11.546   0.521  0.00  0.00     0.032 C 
HETATM   28  C   UNK N   1      29.718  11.233   1.771  0.00  0.00     0.273 C 
ENDBRANCH  22  24
ENDBRANCH   8  13
BRANCH   1  29
HETATM   29  C   UNK N   1      28.346  17.850   6.646  0.00  0.00     0.161 A 
HETATM   30  N   UNK N   1      27.315  16.988   6.823  0.00  0.00    -0.283 N 
HETATM   31  N   UNK N   1      26.159  17.120   6.196  0.00  0.00    -0.298 N 
ATOM     32  HN  UNK N   1      27.437  16.206   7.468  1.00  0.00     0.188 HD
HETATM   33  C   UNK N   1      25.916  18.119   5.311  0.00  0.00     0.065 A 
ATOM     34  HN  UNK N   1      25.421  16.441   6.384  1.00  0.00     0.187 HD
HETATM   35  C   UNK N   1      26.984  19.046   5.059  0.00  0.00    -0.025 A 
HETATM   36  C   UNK N   1      24.517  18.132   4.743  0.00  0.00    -0.001 A 
HETATM   37  C   UNK N   1      26.932  20.193   4.109  0.00  0.00     0.041 C 
HETATM   38  C   UNK N   1      28.195  18.902   5.756  0.00  0.00     0.062 A 
HETATM   39  C   UNK N   1      25.595  20.868   4.056  0.00  0.00     0.009 C 
HETATM   40  C   UNK N   1      24.819  20.052   3.069  0.00  0.00     0.040 C 
HETATM   41  C   UNK N   1      24.005  19.020   3.755  0.00  0.00    -0.046 A 
HETATM   42  C   UNK N   1      22.664  18.927   3.364  0.00  0.00     0.008 A 
HETATM   43  C   UNK N   1      21.811  17.978   3.925  0.00  0.00     0.001 A 
HETATM   44  C   UNK N   1      22.294  17.102   4.887  0.00  0.00     0.001 A 
HETATM   45  C   UNK N   1      23.624  17.181   5.288  0.00  0.00     0.014 A 
ENDBRANCH   1  29
TORSDOF 3
ENDMDL
