MODEL 1
REMARK VINA RESULT:      -8.1      0.000      0.000
REMARK  7 active torsions:
REMARK  status: ('A' for Active; 'I' for Inactive)
REMARK    1  A    between atoms: O_2  and  C_3 
REMARK    2  A    between atoms: C_6  and  N_23 
REMARK    3  A    between atoms: C_8  and  C_9 
REMARK    4  A    between atoms: C_9  and  N_10 
REMARK    5  A    between atoms: C_11  and  N_10 
REMARK    6  A    between atoms: C_16  and  C_17 
REMARK    7  A    between atoms: C_24  and  C_29 
ROOT
HETATM    1  C   UNK N   1      33.517  15.410   3.699  0.00  0.00     0.076 A 
HETATM    2  C   UNK N   1      34.510  14.859   4.526  0.00  0.00     0.039 A 
HETATM    3  C   UNK N   1      34.800  15.437   5.761  0.00  0.00     0.034 A 
HETATM    4  C   UNK N   1      34.093  16.560   6.207  0.00  0.00     0.057 A 
HETATM    5  C   UNK N   1      33.085  17.092   5.397  0.00  0.00     0.043 A 
HETATM    6  C   UNK N   1      32.801  16.535   4.149  0.00  0.00    -0.005 A 
ENDROOT
BRANCH   6   7
HETATM    7  C   UNK N   1      31.759  17.169   3.296  0.00  0.00     0.156 C 
BRANCH   7   8
HETATM    8  N   UNK N   1      30.802  17.877   4.141  0.00  0.00    -0.411 N 
HETATM    9  H   UNK N   1      31.005  18.744   4.637  0.00  0.00     0.154 HD
BRANCH   8  10
HETATM   10  C   UNK N   1      29.509  17.182   4.185  0.00  0.00     0.103 C 
HETATM   11  C   UNK N   1      29.361  16.264   2.974  0.00  0.00     0.029 C 
HETATM   12  C   UNK N   1      28.013  15.557   3.019  0.00  0.00     0.021 C 
HETATM   13  C   UNK N   1      27.870  14.822   4.350  0.00  0.00     0.114 C 
HETATM   14  N   UNK N   1      27.936  15.771   5.461  0.00  0.00    -0.411 N 
HETATM   15  C   UNK N   1      29.268  16.378   5.491  0.00  0.00     0.132 C 
HETATM   16  H   UNK N   1      27.176  15.977   6.110  0.00  0.00     0.153 HD
BRANCH  15  17
HETATM   17  C   UNK N   1      29.453  17.150   6.775  0.00  0.00    -0.034 A 
HETATM   18  C   UNK N   1      28.436  18.018   7.193  0.00  0.00     0.009 A 
HETATM   19  C   UNK N   1      28.557  18.722   8.395  0.00  0.00     0.001 A 
HETATM   20  C   UNK N   1      29.697  18.562   9.187  0.00  0.00     0.000 A 
HETATM   21  C   UNK N   1      30.717  17.699   8.778  0.00  0.00     0.001 A 
HETATM   22  C   UNK N   1      30.596  16.995   7.577  0.00  0.00     0.009 A 
ENDBRANCH  15  17
ENDBRANCH   8  10
ENDBRANCH   7   8
ENDBRANCH   6   7
BRANCH   1  23
HETATM   23  O   UNK N   1      33.246  14.879   2.482  0.00  0.00    -0.355 OA
HETATM   24  C   UNK N   1      33.252  13.524   2.234  0.00  0.00     0.210 C 
ENDBRANCH   1  23
BRANCH   4  25
HETATM   25  N   UNK N   1      34.421  17.212   7.447  0.00  0.00    -0.221 N 
HETATM   26  C   UNK N   1      34.432  16.733   8.711  0.00  0.00     0.223 A 
HETATM   27  N   UNK N   1      34.861  17.695   9.549  0.00  0.00    -0.266 N 
HETATM   28  N   UNK N   1      35.107  18.754   8.789  0.00  0.00    -0.007 NA
ATOM     29  HN  UNK N   1      34.974  17.624  10.560  1.00  0.00     0.185 HD
HETATM   30  N   UNK N   1      34.850  18.461   7.523  0.00  0.00     0.001 NA
BRANCH  26  31
HETATM   31  C   UNK N   1      34.092  15.337   9.150  0.00  0.00     0.451 C 
HETATM   32  F   UNK N   1      35.126  14.480   8.813  0.00  0.00    -0.163 F 
HETATM   33  F   UNK N   1      33.924  15.302  10.520  0.00  0.00    -0.163 F 
HETATM   34  F   UNK N   1      32.921  14.920   8.547  0.00  0.00    -0.163 F 
ENDBRANCH  26  31
ENDBRANCH   4  25
TORSDOF 7
ENDMDL
MODEL 2
REMARK VINA RESULT:      -7.6      9.224     11.327
REMARK  7 active torsions:
REMARK  status: ('A' for Active; 'I' for Inactive)
REMARK    1  A    between atoms: O_2  and  C_3 
REMARK    2  A    between atoms: C_6  and  N_23 
REMARK    3  A    between atoms: C_8  and  C_9 
REMARK    4  A    between atoms: C_9  and  N_10 
REMARK    5  A    between atoms: C_11  and  N_10 
REMARK    6  A    between atoms: C_16  and  C_17 
REMARK    7  A    between atoms: C_24  and  C_29 
ROOT
HETATM    1  C   UNK N   1      23.319  14.266   4.829  0.00  0.00     0.076 A 
HETATM    2  C   UNK N   1      22.904  12.995   5.258  0.00  0.00     0.039 A 
HETATM    3  C   UNK N   1      22.150  12.856   6.422  0.00  0.00     0.034 A 
HETATM    4  C   UNK N   1      21.775  13.980   7.169  0.00  0.00     0.057 A 
HETATM    5  C   UNK N   1      22.164  15.248   6.726  0.00  0.00     0.043 A 
HETATM    6  C   UNK N   1      22.939  15.397   5.574  0.00  0.00    -0.005 A 
ENDROOT
BRANCH   6   7
HETATM    7  C   UNK N   1      23.378  16.762   5.173  0.00  0.00     0.156 C 
BRANCH   7   8
HETATM    8  N   UNK N   1      22.909  17.048   3.822  0.00  0.00    -0.411 N 
HETATM    9  H   UNK N   1      23.396  16.764   2.972  0.00  0.00     0.154 HD
BRANCH   8  10
HETATM   10  C   UNK N   1      21.647  17.797   3.839  0.00  0.00     0.103 C 
HETATM   11  C   UNK N   1      21.890  19.253   3.448  0.00  0.00     0.029 C 
HETATM   12  C   UNK N   1      20.579  20.027   3.480  0.00  0.00     0.021 C 
HETATM   13  C   UNK N   1      19.555  19.329   2.587  0.00  0.00     0.114 C 
HETATM   14  N   UNK N   1      19.307  17.971   3.069  0.00  0.00    -0.411 N 
HETATM   15  C   UNK N   1      20.537  17.187   2.941  0.00  0.00     0.132 C 
HETATM   16  H   UNK N   1      18.420  17.626   3.436  0.00  0.00     0.153 HD
BRANCH  15  17
HETATM   17  C   UNK N   1      20.242  15.725   3.173  0.00  0.00    -0.034 A 
HETATM   18  C   UNK N   1      19.442  15.363   4.264  0.00  0.00     0.009 A 
HETATM   19  C   UNK N   1      19.118  14.021   4.490  0.00  0.00     0.001 A 
HETATM   20  C   UNK N   1      19.592  13.033   3.623  0.00  0.00     0.000 A 
HETATM   21  C   UNK N   1      20.391  13.384   2.532  0.00  0.00     0.001 A 
HETATM   22  C   UNK N   1      20.715  14.725   2.307  0.00  0.00     0.009 A 
ENDBRANCH  15  17
ENDBRANCH   8  10
ENDBRANCH   7   8
ENDBRANCH   6   7
BRANCH   1  23
HETATM   23  O   UNK N   1      24.081  14.415   3.717  0.00  0.00    -0.355 OA
HETATM   24  C   UNK N   1      24.264  13.412   2.791  0.00  0.00     0.210 C 
ENDBRANCH   1  23
BRANCH   4  25
HETATM   25  N   UNK N   1      21.054  13.854   8.407  0.00  0.00    -0.221 N 
HETATM   26  C   UNK N   1      21.429  13.313   9.587  0.00  0.00     0.223 A 
HETATM   27  N   UNK N   1      20.440  13.471  10.486  0.00  0.00    -0.266 N 
HETATM   28  N   UNK N   1      19.468  14.108   9.846  0.00  0.00    -0.007 NA
ATOM     29  HN  UNK N   1      20.439  13.164  11.459  1.00  0.00     0.185 HD
HETATM   30  N   UNK N   1      19.840  14.346   8.598  0.00  0.00     0.001 NA
BRANCH  26  31
HETATM   31  C   UNK N   1      22.754  12.683   9.910  0.00  0.00     0.451 C 
HETATM   32  F   UNK N   1      22.854  12.484  11.276  0.00  0.00    -0.163 F 
HETATM   33  F   UNK N   1      22.859  11.457   9.281  0.00  0.00    -0.163 F 
HETATM   34  F   UNK N   1      23.786  13.494   9.477  0.00  0.00    -0.163 F 
ENDBRANCH  26  31
ENDBRANCH   4  25
TORSDOF 7
ENDMDL
MODEL 3
REMARK VINA RESULT:      -7.5     12.715     15.108
REMARK  7 active torsions:
REMARK  status: ('A' for Active; 'I' for Inactive)
REMARK    1  A    between atoms: O_2  and  C_3 
REMARK    2  A    between atoms: C_6  and  N_23 
REMARK    3  A    between atoms: C_8  and  C_9 
REMARK    4  A    between atoms: C_9  and  N_10 
REMARK    5  A    between atoms: C_11  and  N_10 
REMARK    6  A    between atoms: C_16  and  C_17 
REMARK    7  A    between atoms: C_24  and  C_29 
ROOT
HETATM    1  C   UNK N   1      27.778  25.937  -4.238  0.00  0.00     0.076 A 
HETATM    2  C   UNK N   1      29.131  26.262  -4.044  0.00  0.00     0.039 A 
HETATM    3  C   UNK N   1      30.063  25.262  -3.768  0.00  0.00     0.034 A 
HETATM    4  C   UNK N   1      29.671  23.919  -3.702  0.00  0.00     0.057 A 
HETATM    5  C   UNK N   1      28.329  23.593  -3.924  0.00  0.00     0.043 A 
HETATM    6  C   UNK N   1      27.384  24.588  -4.179  0.00  0.00    -0.005 A 
ENDROOT
BRANCH   6   7
HETATM    7  C   UNK N   1      25.957  24.199  -4.351  0.00  0.00     0.156 C 
BRANCH   7   8
HETATM    8  N   UNK N   1      25.552  24.430  -5.734  0.00  0.00    -0.411 N 
HETATM    9  H   UNK N   1      24.936  25.185  -6.033  0.00  0.00     0.154 HD
BRANCH   8  10
HETATM   10  C   UNK N   1      26.144  23.438  -6.640  0.00  0.00     0.103 C 
HETATM   11  C   UNK N   1      25.144  22.320  -6.923  0.00  0.00     0.029 C 
HETATM   12  C   UNK N   1      25.769  21.287  -7.854  0.00  0.00     0.021 C 
HETATM   13  C   UNK N   1      26.269  21.981  -9.119  0.00  0.00     0.114 C 
HETATM   14  N   UNK N   1      27.283  22.979  -8.782  0.00  0.00    -0.411 N 
HETATM   15  C   UNK N   1      26.665  24.033  -7.976  0.00  0.00     0.132 C 
HETATM   16  H   UNK N   1      28.263  22.944  -9.062  0.00  0.00     0.153 HD
BRANCH  15  17
HETATM   17  C   UNK N   1      27.612  25.201  -7.843  0.00  0.00    -0.034 A 
HETATM   18  C   UNK N   1      28.973  24.946  -7.631  0.00  0.00     0.009 A 
HETATM   19  C   UNK N   1      29.885  26.002  -7.539  0.00  0.00     0.001 A 
HETATM   20  C   UNK N   1      29.441  27.322  -7.660  0.00  0.00     0.000 A 
HETATM   21  C   UNK N   1      28.085  27.586  -7.872  0.00  0.00     0.001 A 
HETATM   22  C   UNK N   1      27.174  26.531  -7.963  0.00  0.00     0.009 A 
ENDBRANCH  15  17
ENDBRANCH   8  10
ENDBRANCH   7   8
ENDBRANCH   6   7
BRANCH   1  23
HETATM   23  O   UNK N   1      26.855  26.902  -4.475  0.00  0.00    -0.355 OA
HETATM   24  C   UNK N   1      26.357  27.725  -3.489  0.00  0.00     0.210 C 
ENDBRANCH   1  23
BRANCH   4  25
HETATM   25  N   UNK N   1      30.602  22.880  -3.353  0.00  0.00    -0.221 N 
HETATM   26  C   UNK N   1      31.121  21.882  -4.103  0.00  0.00     0.223 A 
HETATM   27  N   UNK N   1      32.001  21.180  -3.365  0.00  0.00    -0.266 N 
HETATM   28  N   UNK N   1      32.011  21.755  -2.170  0.00  0.00    -0.007 NA
ATOM     29  HN  UNK N   1      32.547  20.371  -3.664  1.00  0.00     0.185 HD
HETATM   30  N   UNK N   1      31.176  22.783  -2.165  0.00  0.00     0.001 NA
BRANCH  26  31
HETATM   31  C   UNK N   1      30.839  21.602  -5.551  0.00  0.00     0.451 C 
HETATM   32  F   UNK N   1      31.159  22.715  -6.310  0.00  0.00    -0.163 F 
HETATM   33  F   UNK N   1      31.611  20.541  -5.986  0.00  0.00    -0.163 F 
HETATM   34  F   UNK N   1      29.506  21.282  -5.725  0.00  0.00    -0.163 F 
ENDBRANCH  26  31
ENDBRANCH   4  25
TORSDOF 7
ENDMDL
MODEL 4
REMARK VINA RESULT:      -7.4      1.405      2.075
REMARK  7 active torsions:
REMARK  status: ('A' for Active; 'I' for Inactive)
REMARK    1  A    between atoms: O_2  and  C_3 
REMARK    2  A    between atoms: C_6  and  N_23 
REMARK    3  A    between atoms: C_8  and  C_9 
REMARK    4  A    between atoms: C_9  and  N_10 
REMARK    5  A    between atoms: C_11  and  N_10 
REMARK    6  A    between atoms: C_16  and  C_17 
REMARK    7  A    between atoms: C_24  and  C_29 
ROOT
HETATM    1  C   UNK N   1      33.550  15.179   3.470  0.00  0.00     0.076 A 
HETATM    2  C   UNK N   1      34.534  14.691   4.347  0.00  0.00     0.039 A 
HETATM    3  C   UNK N   1      34.711  15.273   5.601  0.00  0.00     0.034 A 
HETATM    4  C   UNK N   1      33.899  16.336   6.016  0.00  0.00     0.057 A 
HETATM    5  C   UNK N   1      32.901  16.804   5.156  0.00  0.00     0.043 A 
HETATM    6  C   UNK N   1      32.730  16.243   3.888  0.00  0.00    -0.005 A 
ENDROOT
BRANCH   6   7
HETATM    7  C   UNK N   1      31.692  16.811   2.984  0.00  0.00     0.156 C 
BRANCH   7   8
HETATM    8  N   UNK N   1      30.533  17.222   3.769  0.00  0.00    -0.411 N 
HETATM    9  H   UNK N   1      30.585  17.776   4.623  0.00  0.00     0.154 HD
BRANCH   8  10
HETATM   10  C   UNK N   1      29.282  16.739   3.172  0.00  0.00     0.103 C 
HETATM   11  C   UNK N   1      29.460  15.315   2.652  0.00  0.00     0.029 C 
HETATM   12  C   UNK N   1      28.163  14.824   2.023  0.00  0.00     0.021 C 
HETATM   13  C   UNK N   1      27.026  14.956   3.034  0.00  0.00     0.114 C 
HETATM   14  N   UNK N   1      26.856  16.356   3.423  0.00  0.00    -0.411 N 
HETATM   15  C   UNK N   1      28.059  16.805   4.126  0.00  0.00     0.132 C 
HETATM   16  H   UNK N   1      26.031  16.927   3.234  0.00  0.00     0.153 HD
BRANCH  15  17
HETATM   17  C   UNK N   1      27.808  18.146   4.771  0.00  0.00    -0.034 A 
HETATM   18  C   UNK N   1      28.003  18.277   6.153  0.00  0.00     0.009 A 
HETATM   19  C   UNK N   1      27.814  19.513   6.779  0.00  0.00     0.001 A 
HETATM   20  C   UNK N   1      27.432  20.627   6.027  0.00  0.00     0.000 A 
HETATM   21  C   UNK N   1      27.236  20.506   4.649  0.00  0.00     0.001 A 
HETATM   22  C   UNK N   1      27.423  19.271   4.023  0.00  0.00     0.009 A 
ENDBRANCH  15  17
ENDBRANCH   8  10
ENDBRANCH   7   8
ENDBRANCH   6   7
BRANCH   1  23
HETATM   23  O   UNK N   1      33.387  14.645   2.235  0.00  0.00    -0.355 OA
HETATM   24  C   UNK N   1      33.125  13.310   2.020  0.00  0.00     0.210 C 
ENDBRANCH   1  23
BRANCH   4  25
HETATM   25  N   UNK N   1      34.109  16.994   7.278  0.00  0.00    -0.221 N 
HETATM   26  C   UNK N   1      33.898  16.556   8.539  0.00  0.00     0.223 A 
HETATM   27  N   UNK N   1      34.293  17.501   9.413  0.00  0.00    -0.266 N 
HETATM   28  N   UNK N   1      34.741  18.509   8.677  0.00  0.00    -0.007 NA
ATOM     29  HN  UNK N   1      34.254  17.451  10.431  1.00  0.00     0.185 HD
HETATM   30  N   UNK N   1      34.638  18.202   7.393  0.00  0.00     0.001 NA
BRANCH  26  31
HETATM   31  C   UNK N   1      33.370  15.211   8.950  0.00  0.00     0.451 C 
HETATM   32  F   UNK N   1      32.190  14.949   8.277  0.00  0.00    -0.163 F 
HETATM   33  F   UNK N   1      34.285  14.227   8.627  0.00  0.00    -0.163 F 
HETATM   34  F   UNK N   1      33.150  15.182  10.314  0.00  0.00    -0.163 F 
ENDBRANCH  26  31
ENDBRANCH   4  25
TORSDOF 7
ENDMDL
MODEL 5
REMARK VINA RESULT:      -7.3      3.894      5.596
REMARK  7 active torsions:
REMARK  status: ('A' for Active; 'I' for Inactive)
REMARK    1  A    between atoms: O_2  and  C_3 
REMARK    2  A    between atoms: C_6  and  N_23 
REMARK    3  A    between atoms: C_8  and  C_9 
REMARK    4  A    between atoms: C_9  and  N_10 
REMARK    5  A    between atoms: C_11  and  N_10 
REMARK    6  A    between atoms: C_16  and  C_17 
REMARK    7  A    between atoms: C_24  and  C_29 
ROOT
HETATM    1  C   UNK N   1      27.688  16.419   3.903  0.00  0.00     0.076 A 
HETATM    2  C   UNK N   1      28.955  17.020   3.980  0.00  0.00     0.039 A 
HETATM    3  C   UNK N   1      29.478  17.406   5.213  0.00  0.00     0.034 A 
HETATM    4  C   UNK N   1      28.762  17.181   6.394  0.00  0.00     0.057 A 
HETATM    5  C   UNK N   1      27.513  16.556   6.322  0.00  0.00     0.043 A 
HETATM    6  C   UNK N   1      26.970  16.186   5.090  0.00  0.00    -0.005 A 
ENDROOT
BRANCH   6   7
HETATM    7  C   UNK N   1      25.612  15.576   5.056  0.00  0.00     0.156 C 
BRANCH   7   8
HETATM    8  N   UNK N   1      24.656  16.477   5.690  0.00  0.00    -0.411 N 
HETATM    9  H   UNK N   1      24.591  16.631   6.696  0.00  0.00     0.154 HD
BRANCH   8  10
HETATM   10  C   UNK N   1      23.800  17.137   4.697  0.00  0.00     0.103 C 
HETATM   11  C   UNK N   1      22.366  16.626   4.813  0.00  0.00     0.029 C 
HETATM   12  C   UNK N   1      21.485  17.305   3.772  0.00  0.00     0.021 C 
HETATM   13  C   UNK N   1      21.597  18.820   3.922  0.00  0.00     0.114 C 
HETATM   14  N   UNK N   1      22.979  19.248   3.715  0.00  0.00    -0.411 N 
HETATM   15  C   UNK N   1      23.817  18.687   4.776  0.00  0.00     0.132 C 
HETATM   16  H   UNK N   1      23.307  19.842   2.953  0.00  0.00     0.153 HD
BRANCH  15  17
HETATM   17  C   UNK N   1      25.184  19.325   4.745  0.00  0.00    -0.034 A 
HETATM   18  C   UNK N   1      25.820  19.498   3.509  0.00  0.00     0.009 A 
HETATM   19  C   UNK N   1      27.072  20.118   3.438  0.00  0.00     0.001 A 
HETATM   20  C   UNK N   1      27.695  20.571   4.604  0.00  0.00     0.000 A 
HETATM   21  C   UNK N   1      27.068  20.404   5.841  0.00  0.00     0.001 A 
HETATM   22  C   UNK N   1      25.818  19.783   5.912  0.00  0.00     0.009 A 
ENDBRANCH  15  17
ENDBRANCH   8  10
ENDBRANCH   7   8
ENDBRANCH   6   7
BRANCH   1  23
HETATM   23  O   UNK N   1      27.151  16.068   2.708  0.00  0.00    -0.355 OA
HETATM   24  C   UNK N   1      27.565  14.967   1.992  0.00  0.00     0.210 C 
ENDBRANCH   1  23
BRANCH   4  25
HETATM   25  N   UNK N   1      29.254  17.630   7.670  0.00  0.00    -0.221 N 
HETATM   26  C   UNK N   1      30.450  17.432   8.266  0.00  0.00     0.223 A 
HETATM   27  N   UNK N   1      30.481  18.093   9.438  0.00  0.00    -0.266 N 
HETATM   28  N   UNK N   1      29.301  18.689   9.548  0.00  0.00    -0.007 NA
ATOM     29  HN  UNK N   1      31.252  18.127  10.104  1.00  0.00     0.185 HD
HETATM   30  N   UNK N   1      28.565  18.418   8.480  0.00  0.00     0.001 NA
BRANCH  26  31
HETATM   31  C   UNK N   1      31.615  16.659   7.716  0.00  0.00     0.451 C 
HETATM   32  F   UNK N   1      32.235  17.397   6.722  0.00  0.00    -0.163 F 
HETATM   33  F   UNK N   1      32.535  16.415   8.717  0.00  0.00    -0.163 F 
HETATM   34  F   UNK N   1      31.185  15.449   7.203  0.00  0.00    -0.163 F 
ENDBRANCH  26  31
ENDBRANCH   4  25
TORSDOF 7
ENDMDL
MODEL 6
REMARK VINA RESULT:      -7.2     13.266     15.398
REMARK  7 active torsions:
REMARK  status: ('A' for Active; 'I' for Inactive)
REMARK    1  A    between atoms: O_2  and  C_3 
REMARK    2  A    between atoms: C_6  and  N_23 
REMARK    3  A    between atoms: C_8  and  C_9 
REMARK    4  A    between atoms: C_9  and  N_10 
REMARK    5  A    between atoms: C_11  and  N_10 
REMARK    6  A    between atoms: C_16  and  C_17 
REMARK    7  A    between atoms: C_24  and  C_29 
ROOT
HETATM    1  C   UNK N   1      28.621  25.347  -7.363  0.00  0.00     0.076 A 
HETATM    2  C   UNK N   1      28.395  23.973  -7.181  0.00  0.00     0.039 A 
HETATM    3  C   UNK N   1      28.894  23.320  -6.055  0.00  0.00     0.034 A 
HETATM    4  C   UNK N   1      29.608  24.025  -5.078  0.00  0.00     0.057 A 
HETATM    5  C   UNK N   1      29.809  25.399  -5.245  0.00  0.00     0.043 A 
HETATM    6  C   UNK N   1      29.333  26.058  -6.380  0.00  0.00    -0.005 A 
ENDROOT
BRANCH   6   7
HETATM    7  C   UNK N   1      29.620  27.510  -6.542  0.00  0.00     0.156 C 
BRANCH   7   8
HETATM    8  N   UNK N   1      28.365  28.250  -6.627  0.00  0.00    -0.411 N 
HETATM    9  H   UNK N   1      27.791  28.313  -7.467  0.00  0.00     0.154 HD
BRANCH   8  10
HETATM   10  C   UNK N   1      28.033  28.891  -5.349  0.00  0.00     0.103 C 
HETATM   11  C   UNK N   1      28.202  30.404  -5.458  0.00  0.00     0.029 C 
HETATM   12  C   UNK N   1      27.867  31.062  -4.125  0.00  0.00     0.021 C 
HETATM   13  C   UNK N   1      26.464  30.645  -3.691  0.00  0.00     0.114 C 
HETATM   14  N   UNK N   1      26.397  29.194  -3.525  0.00  0.00    -0.411 N 
HETATM   15  C   UNK N   1      26.611  28.554  -4.824  0.00  0.00     0.132 C 
HETATM   16  H   UNK N   1      26.228  28.707  -2.644  0.00  0.00     0.153 HD
BRANCH  15  17
HETATM   17  C   UNK N   1      26.281  27.084  -4.735  0.00  0.00    -0.034 A 
HETATM   18  C   UNK N   1      25.526  26.499  -5.760  0.00  0.00     0.009 A 
HETATM   19  C   UNK N   1      25.231  25.133  -5.730  0.00  0.00     0.001 A 
HETATM   20  C   UNK N   1      25.691  24.341  -4.673  0.00  0.00     0.000 A 
HETATM   21  C   UNK N   1      26.445  24.916  -3.647  0.00  0.00     0.001 A 
HETATM   22  C   UNK N   1      26.739  26.282  -3.677  0.00  0.00     0.009 A 
ENDBRANCH  15  17
ENDBRANCH   8  10
ENDBRANCH   7   8
ENDBRANCH   6   7
BRANCH   1  23
HETATM   23  O   UNK N   1      28.171  25.989  -8.469  0.00  0.00    -0.355 OA
HETATM   24  C   UNK N   1      26.959  25.709  -9.060  0.00  0.00     0.210 C 
ENDBRANCH   1  23
BRANCH   4  25
HETATM   25  N   UNK N   1      30.188  23.359  -3.942  0.00  0.00    -0.221 N 
HETATM   26  C   UNK N   1      30.962  22.253  -3.878  0.00  0.00     0.223 A 
HETATM   27  N   UNK N   1      31.319  22.031  -2.599  0.00  0.00    -0.266 N 
HETATM   28  N   UNK N   1      30.758  23.004  -1.893  0.00  0.00    -0.007 NA
ATOM     29  HN  UNK N   1      31.901  21.271  -2.246  1.00  0.00     0.185 HD
HETATM   30  N   UNK N   1      30.085  23.808  -2.702  0.00  0.00     0.001 NA
BRANCH  26  31
HETATM   31  C   UNK N   1      31.430  21.411  -5.030  0.00  0.00     0.451 C 
HETATM   32  F   UNK N   1      32.372  20.498  -4.587  0.00  0.00    -0.163 F 
HETATM   33  F   UNK N   1      30.366  20.714  -5.569  0.00  0.00    -0.163 F 
HETATM   34  F   UNK N   1      31.979  22.212  -6.014  0.00  0.00    -0.163 F 
ENDBRANCH  26  31
ENDBRANCH   4  25
TORSDOF 7
ENDMDL
MODEL 7
REMARK VINA RESULT:      -7.2     13.261     15.760
REMARK  7 active torsions:
REMARK  status: ('A' for Active; 'I' for Inactive)
REMARK    1  A    between atoms: O_2  and  C_3 
REMARK    2  A    between atoms: C_6  and  N_23 
REMARK    3  A    between atoms: C_8  and  C_9 
REMARK    4  A    between atoms: C_9  and  N_10 
REMARK    5  A    between atoms: C_11  and  N_10 
REMARK    6  A    between atoms: C_16  and  C_17 
REMARK    7  A    between atoms: C_24  and  C_29 
ROOT
HETATM    1  C   UNK N   1      26.486  22.969  -6.519  0.00  0.00     0.076 A 
HETATM    2  C   UNK N   1      27.499  22.256  -7.181  0.00  0.00     0.039 A 
HETATM    3  C   UNK N   1      28.828  22.381  -6.779  0.00  0.00     0.034 A 
HETATM    4  C   UNK N   1      29.172  23.200  -5.696  0.00  0.00     0.057 A 
HETATM    5  C   UNK N   1      28.161  23.888  -5.018  0.00  0.00     0.043 A 
HETATM    6  C   UNK N   1      26.829  23.787  -5.427  0.00  0.00    -0.005 A 
ENDROOT
BRANCH   6   7
HETATM    7  C   UNK N   1      25.794  24.583  -4.712  0.00  0.00     0.156 C 
BRANCH   7   8
HETATM    8  N   UNK N   1      25.039  25.379  -5.673  0.00  0.00    -0.411 N 
HETATM    9  H   UNK N   1      24.280  25.017  -6.249  0.00  0.00     0.154 HD
BRANCH   8  10
HETATM   10  C   UNK N   1      25.511  26.769  -5.706  0.00  0.00     0.103 C 
HETATM   11  C   UNK N   1      25.560  27.344  -4.293  0.00  0.00     0.029 C 
HETATM   12  C   UNK N   1      26.037  28.790  -4.335  0.00  0.00     0.021 C 
HETATM   13  C   UNK N   1      27.381  28.860  -5.058  0.00  0.00     0.114 C 
HETATM   14  N   UNK N   1      27.242  28.374  -6.430  0.00  0.00    -0.411 N 
HETATM   15  C   UNK N   1      26.888  26.954  -6.400  0.00  0.00     0.132 C 
HETATM   16  H   UNK N   1      27.371  28.935  -7.273  0.00  0.00     0.153 HD
BRANCH  15  17
HETATM   17  C   UNK N   1      27.003  26.364  -7.785  0.00  0.00    -0.034 A 
HETATM   18  C   UNK N   1      28.252  25.899  -8.218  0.00  0.00     0.009 A 
HETATM   19  C   UNK N   1      28.390  25.314  -9.480  0.00  0.00     0.001 A 
HETATM   20  C   UNK N   1      27.278  25.189 -10.318  0.00  0.00     0.000 A 
HETATM   21  C   UNK N   1      26.029  25.649  -9.894  0.00  0.00     0.001 A 
HETATM   22  C   UNK N   1      25.891  26.235  -8.633  0.00  0.00     0.009 A 
ENDBRANCH  15  17
ENDBRANCH   8  10
ENDBRANCH   7   8
ENDBRANCH   6   7
BRANCH   1  23
HETATM   23  O   UNK N   1      25.194  22.883  -6.920  0.00  0.00    -0.355 OA
HETATM   24  C   UNK N   1      24.761  21.994  -7.878  0.00  0.00     0.210 C 
ENDBRANCH   1  23
BRANCH   4  25
HETATM   25  N   UNK N   1      30.543  23.395  -5.306  0.00  0.00    -0.221 N 
HETATM   26  C   UNK N   1      31.264  22.816  -4.321  0.00  0.00     0.223 A 
HETATM   27  N   UNK N   1      32.529  23.270  -4.366  0.00  0.00    -0.266 N 
HETATM   28  N   UNK N   1      32.571  24.126  -5.379  0.00  0.00    -0.007 NA
ATOM     29  HN  UNK N   1      33.299  23.011  -3.748  1.00  0.00     0.185 HD
HETATM   30  N   UNK N   1      31.378  24.195  -5.950  0.00  0.00     0.001 NA
BRANCH  26  31
HETATM   31  C   UNK N   1      30.787  21.775  -3.347  0.00  0.00     0.451 C 
HETATM   32  F   UNK N   1      30.351  20.658  -4.038  0.00  0.00    -0.163 F 
HETATM   33  F   UNK N   1      31.824  21.397  -2.516  0.00  0.00    -0.163 F 
HETATM   34  F   UNK N   1      29.759  22.280  -2.574  0.00  0.00    -0.163 F 
ENDBRANCH  26  31
ENDBRANCH   4  25
TORSDOF 7
ENDMDL
MODEL 8
REMARK VINA RESULT:      -7.1      5.824      9.115
REMARK  7 active torsions:
REMARK  status: ('A' for Active; 'I' for Inactive)
REMARK    1  A    between atoms: O_2  and  C_3 
REMARK    2  A    between atoms: C_6  and  N_23 
REMARK    3  A    between atoms: C_8  and  C_9 
REMARK    4  A    between atoms: C_9  and  N_10 
REMARK    5  A    between atoms: C_11  and  N_10 
REMARK    6  A    between atoms: C_16  and  C_17 
REMARK    7  A    between atoms: C_24  and  C_29 
ROOT
HETATM    1  C   UNK N   1      24.768  13.926   5.584  0.00  0.00     0.076 A 
HETATM    2  C   UNK N   1      24.379  12.658   6.049  0.00  0.00     0.039 A 
HETATM    3  C   UNK N   1      23.367  12.537   6.999  0.00  0.00     0.034 A 
HETATM    4  C   UNK N   1      22.707  13.671   7.488  0.00  0.00     0.057 A 
HETATM    5  C   UNK N   1      23.074  14.930   7.005  0.00  0.00     0.043 A 
HETATM    6  C   UNK N   1      24.102  15.066   6.070  0.00  0.00    -0.005 A 
ENDROOT
BRANCH   6   7
HETATM    7  C   UNK N   1      24.498  16.430   5.627  0.00  0.00     0.156 C 
BRANCH   7   8
HETATM    8  N   UNK N   1      25.858  16.713   6.072  0.00  0.00    -0.411 N 
HETATM    9  H   UNK N   1      26.312  16.254   6.861  0.00  0.00     0.154 HD
BRANCH   8  10
HETATM   10  C   UNK N   1      26.492  17.743   5.240  0.00  0.00     0.103 C 
HETATM   11  C   UNK N   1      25.454  18.407   4.339  0.00  0.00     0.029 C 
HETATM   12  C   UNK N   1      26.120  19.465   3.469  0.00  0.00     0.021 C 
HETATM   13  C   UNK N   1      26.865  20.458   4.358  0.00  0.00     0.114 C 
HETATM   14  N   UNK N   1      27.899  19.769   5.129  0.00  0.00    -0.411 N 
HETATM   15  C   UNK N   1      27.260  18.824   6.047  0.00  0.00     0.132 C 
HETATM   16  H   UNK N   1      28.904  19.922   5.040  0.00  0.00     0.153 HD
BRANCH  15  17
HETATM   17  C   UNK N   1      28.274  18.301   7.035  0.00  0.00    -0.034 A 
HETATM   18  C   UNK N   1      29.323  17.500   6.566  0.00  0.00     0.009 A 
HETATM   19  C   UNK N   1      30.300  17.026   7.447  0.00  0.00     0.001 A 
HETATM   20  C   UNK N   1      30.236  17.353   8.804  0.00  0.00     0.000 A 
HETATM   21  C   UNK N   1      29.194  18.152   9.281  0.00  0.00     0.001 A 
HETATM   22  C   UNK N   1      28.216  18.624   8.401  0.00  0.00     0.009 A 
ENDBRANCH  15  17
ENDBRANCH   8  10
ENDBRANCH   7   8
ENDBRANCH   6   7
BRANCH   1  23
HETATM   23  O   UNK N   1      25.774  14.063   4.685  0.00  0.00    -0.355 OA
HETATM   24  C   UNK N   1      25.634  13.764   3.348  0.00  0.00     0.210 C 
ENDBRANCH   1  23
BRANCH   4  25
HETATM   25  N   UNK N   1      21.705  13.573   8.516  0.00  0.00    -0.221 N 
HETATM   26  C   UNK N   1      21.791  13.101   9.780  0.00  0.00     0.223 A 
HETATM   27  N   UNK N   1      20.607  13.261  10.398  0.00  0.00    -0.266 N 
HETATM   28  N   UNK N   1      19.806  13.828   9.506  0.00  0.00    -0.007 NA
ATOM     29  HN  UNK N   1      20.373  12.999  11.356  1.00  0.00     0.185 HD
HETATM   30  N   UNK N   1      20.469  14.024   8.376  0.00  0.00     0.001 NA
BRANCH  26  31
HETATM   31  C   UNK N   1      23.012  12.540  10.452  0.00  0.00     0.451 C 
HETATM   32  F   UNK N   1      22.815  12.506  11.821  0.00  0.00    -0.163 F 
HETATM   33  F   UNK N   1      23.242  11.251  10.012  0.00  0.00    -0.163 F 
HETATM   34  F   UNK N   1      24.118  13.314  10.156  0.00  0.00    -0.163 F 
ENDBRANCH  26  31
ENDBRANCH   4  25
TORSDOF 7
ENDMDL
MODEL 9
REMARK VINA RESULT:      -7.0      7.428     10.456
REMARK  7 active torsions:
REMARK  status: ('A' for Active; 'I' for Inactive)
REMARK    1  A    between atoms: O_2  and  C_3 
REMARK    2  A    between atoms: C_6  and  N_23 
REMARK    3  A    between atoms: C_8  and  C_9 
REMARK    4  A    between atoms: C_9  and  N_10 
REMARK    5  A    between atoms: C_11  and  N_10 
REMARK    6  A    between atoms: C_16  and  C_17 
REMARK    7  A    between atoms: C_24  and  C_29 
ROOT
HETATM    1  C   UNK N   1      22.135  14.818   4.435  0.00  0.00     0.076 A 
HETATM    2  C   UNK N   1      21.078  13.912   4.617  0.00  0.00     0.039 A 
HETATM    3  C   UNK N   1      20.677  13.546   5.901  0.00  0.00     0.034 A 
HETATM    4  C   UNK N   1      21.304  14.091   7.028  0.00  0.00     0.057 A 
HETATM    5  C   UNK N   1      22.338  15.016   6.848  0.00  0.00     0.043 A 
HETATM    6  C   UNK N   1      22.762  15.372   5.566  0.00  0.00    -0.005 A 
ENDROOT
BRANCH   6   7
HETATM    7  C   UNK N   1      23.904  16.316   5.423  0.00  0.00     0.156 C 
BRANCH   7   8
HETATM    8  N   UNK N   1      23.435  17.684   5.615  0.00  0.00    -0.411 N 
HETATM    9  H   UNK N   1      23.313  18.127   6.525  0.00  0.00     0.154 HD
BRANCH   8  10
HETATM   10  C   UNK N   1      23.159  18.342   4.332  0.00  0.00     0.103 C 
HETATM   11  C   UNK N   1      21.659  18.573   4.168  0.00  0.00     0.029 C 
HETATM   12  C   UNK N   1      21.379  19.245   2.830  0.00  0.00     0.021 C 
HETATM   13  C   UNK N   1      22.199  20.528   2.724  0.00  0.00     0.114 C 
HETATM   14  N   UNK N   1      23.627  20.224   2.803  0.00  0.00    -0.411 N 
HETATM   15  C   UNK N   1      23.926  19.677   4.128  0.00  0.00     0.132 C 
HETATM   16  H   UNK N   1      24.306  20.368   2.055  0.00  0.00     0.153 HD
BRANCH  15  17
HETATM   17  C   UNK N   1      25.420  19.607   4.332  0.00  0.00    -0.034 A 
HETATM   18  C   UNK N   1      26.028  20.540   5.183  0.00  0.00     0.009 A 
HETATM   19  C   UNK N   1      27.404  20.484   5.424  0.00  0.00     0.001 A 
HETATM   20  C   UNK N   1      28.181  19.494   4.817  0.00  0.00     0.000 A 
HETATM   21  C   UNK N   1      27.583  18.559   3.968  0.00  0.00     0.001 A 
HETATM   22  C   UNK N   1      26.208  18.615   3.726  0.00  0.00     0.009 A 
ENDBRANCH  15  17
ENDBRANCH   8  10
ENDBRANCH   7   8
ENDBRANCH   6   7
BRANCH   1  23
HETATM   23  O   UNK N   1      22.559  15.159   3.193  0.00  0.00    -0.355 OA
HETATM   24  C   UNK N   1      21.715  15.242   2.107  0.00  0.00     0.210 C 
ENDBRANCH   1  23
BRANCH   4  25
HETATM   25  N   UNK N   1      20.951  13.677   8.360  0.00  0.00    -0.221 N 
HETATM   26  C   UNK N   1      21.536  12.778   9.182  0.00  0.00     0.223 A 
HETATM   27  N   UNK N   1      20.887  12.761  10.360  0.00  0.00    -0.266 N 
HETATM   28  N   UNK N   1      19.909  13.650  10.247  0.00  0.00    -0.007 NA
ATOM     29  HN  UNK N   1      21.103  12.184  11.173  1.00  0.00     0.185 HD
HETATM   30  N   UNK N   1      19.952  14.207   9.047  0.00  0.00     0.001 NA
BRANCH  26  31
HETATM   31  C   UNK N   1      22.759  11.955   8.893  0.00  0.00     0.451 C 
HETATM   32  F   UNK N   1      22.593  11.281   7.695  0.00  0.00    -0.163 F 
HETATM   33  F   UNK N   1      23.865  12.775   8.783  0.00  0.00    -0.163 F 
HETATM   34  F   UNK N   1      22.977  11.050   9.914  0.00  0.00    -0.163 F 
ENDBRANCH  26  31
ENDBRANCH   4  25
TORSDOF 7
ENDMDL
