MODEL 1
REMARK VINA RESULT:      -8.0      0.000      0.000
REMARK  3 active torsions:
REMARK  status: ('A' for Active; 'I' for Inactive)
REMARK    1  A    between atoms: C_3  and  C_2 
REMARK    2  A    between atoms: C_3  and  O_28 
REMARK    3  A    between atoms: C_23  and  O_27 
ROOT
HETATM    1  C   UNK N   1      25.124  19.229   3.670  0.00  0.00     0.173 A 
HETATM    2  C   UNK N   1      23.876  18.541   4.149  0.00  0.00     0.002 A 
HETATM    3  C   UNK N   1      24.019  17.435   4.996  0.00  0.00     0.043 A 
HETATM    4  C   UNK N   1      22.884  16.807   5.467  0.00  0.00     0.065 A 
HETATM    5  N   UNK N   1      21.648  17.213   5.128  0.00  0.00    -0.307 N 
HETATM    6  C   UNK N   1      21.452  18.285   4.292  0.00  0.00     0.257 A 
HETATM    7  O   UNK N   1      20.322  18.640   4.002  0.00  0.00    -0.267 OA
HETATM    8  C   UNK N   1      22.581  18.978   3.789  0.00  0.00     0.044 A 
HETATM    9  C   UNK N   1      22.388  20.168   2.892  0.00  0.00     0.224 A 
HETATM   10  O   UNK N   1      23.553  20.792   2.484  0.00  0.00    -0.314 OA
HETATM   11  C   UNK N   1      24.823  20.424   2.792  0.00  0.00     0.298 A 
HETATM   12  O   UNK N   1      25.749  21.076   2.333  0.00  0.00    -0.261 OA
HETATM   13  C   UNK N   1      20.619  16.380   5.791  0.00  0.00     0.173 A 
HETATM   14  C   UNK N   1      21.498  15.439   6.593  0.00  0.00    -0.010 A 
HETATM   15  C   UNK N   1      22.815  15.720   6.366  0.00  0.00     0.068 A 
HETATM   16  N   UNK N   1      23.833  15.059   6.966  0.00  0.00    -0.353 N 
ATOM     17  HN  UNK N   1      24.801  15.305   6.763  1.00  0.00     0.166 HD
HETATM   18  C   UNK N   1      23.544  14.061   7.843  0.00  0.00     0.043 A 
HETATM   19  C   UNK N   1      24.579  13.375   8.479  0.00  0.00     0.033 A 
HETATM   20  C   UNK N   1      24.285  12.360   9.390  0.00  0.00     0.039 A 
HETATM   21  C   UNK N   1      22.956  12.024   9.670  0.00  0.00     0.066 A 
HETATM   22  C   UNK N   1      21.907  12.704   9.037  0.00  0.00     0.050 A 
HETATM   23  C   UNK N   1      22.187  13.722   8.123  0.00  0.00    -0.006 A 
HETATM   24  C   UNK N   1      21.146  14.425   7.483  0.00  0.00     0.025 A 
ENDROOT
BRANCH   1  25
HETATM   25  C   UNK N   1      25.918  19.668   4.913  0.00  0.00     0.049 C 
HETATM   26  C   UNK N   1      27.404  19.346   4.833  0.00  0.00     0.009 C 
ENDBRANCH   1  25
BRANCH   1  27
HETATM   27  O   UNK N   1      25.876  18.307   2.934  0.00  0.00    -0.375 OA
HETATM   28  H   UNK N   1      26.175  17.426   2.660  0.00  0.00     0.211 HD
ENDBRANCH   1  27
BRANCH  21  29
HETATM   29  O   UNK N   1      22.688  11.048  10.550  0.00  0.00    -0.361 OA
HETATM   30  H   UNK N   1      22.163  10.314  10.298  0.00  0.00     0.217 HD
ENDBRANCH  21  29
TORSDOF 3
ENDMDL
MODEL 2
REMARK VINA RESULT:      -7.6     10.324     12.636
REMARK  3 active torsions:
REMARK  status: ('A' for Active; 'I' for Inactive)
REMARK    1  A    between atoms: C_3  and  C_2 
REMARK    2  A    between atoms: C_3  and  O_28 
REMARK    3  A    between atoms: C_23  and  O_27 
ROOT
HETATM    1  C   UNK N   1      32.786  14.759   6.614  0.00  0.00     0.173 A 
HETATM    2  C   UNK N   1      33.519  15.306   7.808  0.00  0.00     0.002 A 
HETATM    3  C   UNK N   1      33.730  14.452   8.898  0.00  0.00     0.043 A 
HETATM    4  C   UNK N   1      34.425  14.929   9.991  0.00  0.00     0.065 A 
HETATM    5  N   UNK N   1      34.893  16.188  10.050  0.00  0.00    -0.307 N 
HETATM    6  C   UNK N   1      34.703  17.069   9.013  0.00  0.00     0.257 A 
HETATM    7  O   UNK N   1      35.141  18.205   9.084  0.00  0.00    -0.267 OA
HETATM    8  C   UNK N   1      34.009  16.631   7.858  0.00  0.00     0.044 A 
HETATM    9  C   UNK N   1      33.813  17.572   6.703  0.00  0.00     0.224 A 
HETATM   10  O   UNK N   1      33.152  17.035   5.612  0.00  0.00    -0.314 OA
HETATM   11  C   UNK N   1      32.658  15.776   5.501  0.00  0.00     0.298 A 
HETATM   12  O   UNK N   1      32.082  15.462   4.471  0.00  0.00    -0.261 OA
HETATM   13  C   UNK N   1      35.616  16.424  11.320  0.00  0.00     0.173 A 
HETATM   14  C   UNK N   1      35.498  15.055  11.964  0.00  0.00    -0.010 A 
HETATM   15  C   UNK N   1      34.786  14.216  11.155  0.00  0.00     0.068 A 
HETATM   16  N   UNK N   1      34.541  12.919  11.458  0.00  0.00    -0.353 N 
ATOM     17  HN  UNK N   1      34.003  12.333  10.821  1.00  0.00     0.166 HD
HETATM   18  C   UNK N   1      35.022  12.413  12.624  0.00  0.00     0.043 A 
HETATM   19  C   UNK N   1      34.788  11.076  12.949  0.00  0.00     0.033 A 
HETATM   20  C   UNK N   1      35.292  10.549  14.138  0.00  0.00     0.039 A 
HETATM   21  C   UNK N   1      36.032  11.355  15.010  0.00  0.00     0.066 A 
HETATM   22  C   UNK N   1      36.273  12.700  14.698  0.00  0.00     0.050 A 
HETATM   23  C   UNK N   1      35.774  13.239  13.510  0.00  0.00    -0.006 A 
HETATM   24  C   UNK N   1      36.014  14.587  13.172  0.00  0.00     0.025 A 
ENDROOT
BRANCH   1  25
HETATM   25  C   UNK N   1      33.558  13.523   6.122  0.00  0.00     0.049 C 
HETATM   26  C   UNK N   1      34.905  13.853   5.496  0.00  0.00     0.009 C 
ENDBRANCH   1  25
BRANCH   1  27
HETATM   27  O   UNK N   1      31.504  14.379   7.027  0.00  0.00    -0.375 OA
HETATM   28  H   UNK N   1      30.543  14.275   6.948  0.00  0.00     0.211 HD
ENDBRANCH   1  27
BRANCH  21  29
HETATM   29  O   UNK N   1      36.514  10.836  16.150  0.00  0.00    -0.361 OA
HETATM   30  H   UNK N   1      35.982  10.269  16.673  0.00  0.00     0.217 HD
ENDBRANCH  21  29
TORSDOF 3
ENDMDL
MODEL 3
REMARK VINA RESULT:      -7.4     10.480     14.173
REMARK  3 active torsions:
REMARK  status: ('A' for Active; 'I' for Inactive)
REMARK    1  A    between atoms: C_3  and  C_2 
REMARK    2  A    between atoms: C_3  and  O_28 
REMARK    3  A    between atoms: C_23  and  O_27 
ROOT
HETATM    1  C   UNK N   1      36.505  12.424  10.735  0.00  0.00     0.173 A 
HETATM    2  C   UNK N   1      35.993  13.796  10.394  0.00  0.00     0.002 A 
HETATM    3  C   UNK N   1      35.572  14.033   9.080  0.00  0.00     0.043 A 
HETATM    4  C   UNK N   1      35.074  15.279   8.756  0.00  0.00     0.065 A 
HETATM    5  N   UNK N   1      34.992  16.275   9.656  0.00  0.00    -0.307 N 
HETATM    6  C   UNK N   1      35.402  16.098  10.955  0.00  0.00     0.257 A 
HETATM    7  O   UNK N   1      35.315  17.013  11.757  0.00  0.00    -0.267 OA
HETATM    8  C   UNK N   1      35.909  14.835  11.350  0.00  0.00     0.044 A 
HETATM    9  C   UNK N   1      36.340  14.615  12.772  0.00  0.00     0.224 A 
HETATM   10  O   UNK N   1      36.788  13.338  13.060  0.00  0.00    -0.314 OA
HETATM   11  C   UNK N   1      36.893  12.299  12.192  0.00  0.00     0.298 A 
HETATM   12  O   UNK N   1      37.327  11.234  12.604  0.00  0.00    -0.261 OA
HETATM   13  C   UNK N   1      34.402  17.488   9.048  0.00  0.00     0.173 A 
HETATM   14  C   UNK N   1      34.135  16.991   7.640  0.00  0.00    -0.010 A 
HETATM   15  C   UNK N   1      34.552  15.697   7.512  0.00  0.00     0.068 A 
HETATM   16  N   UNK N   1      34.419  14.980   6.371  0.00  0.00    -0.353 N 
ATOM     17  HN  UNK N   1      34.747  14.016   6.326  1.00  0.00     0.166 HD
HETATM   18  C   UNK N   1      33.842  15.565   5.288  0.00  0.00     0.043 A 
HETATM   19  C   UNK N   1      33.687  14.839   4.108  0.00  0.00     0.033 A 
HETATM   20  C   UNK N   1      33.083  15.432   2.999  0.00  0.00     0.039 A 
HETATM   21  C   UNK N   1      32.631  16.755   3.064  0.00  0.00     0.066 A 
HETATM   22  C   UNK N   1      32.782  17.496   4.243  0.00  0.00     0.050 A 
HETATM   23  C   UNK N   1      33.385  16.914   5.360  0.00  0.00    -0.006 A 
HETATM   24  C   UNK N   1      33.537  17.640   6.559  0.00  0.00     0.025 A 
ENDROOT
BRANCH   1  25
HETATM   25  C   UNK N   1      35.396  11.416  10.390  0.00  0.00     0.049 C 
HETATM   26  C   UNK N   1      35.829  10.347   9.397  0.00  0.00     0.009 C 
ENDBRANCH   1  25
BRANCH   1  27
HETATM   27  O   UNK N   1      37.632  12.171   9.945  0.00  0.00    -0.375 OA
HETATM   28  H   UNK N   1      38.567  12.229   9.692  0.00  0.00     0.211 HD
ENDBRANCH   1  27
BRANCH  21  29
HETATM   29  O   UNK N   1      32.049  17.312   1.991  0.00  0.00    -0.361 OA
HETATM   30  H   UNK N   1      31.985  18.244   1.919  0.00  0.00     0.217 HD
ENDBRANCH  21  29
TORSDOF 3
ENDMDL
MODEL 4
REMARK VINA RESULT:      -7.4     10.081     12.207
REMARK  3 active torsions:
REMARK  status: ('A' for Active; 'I' for Inactive)
REMARK    1  A    between atoms: C_3  and  C_2 
REMARK    2  A    between atoms: C_3  and  O_28 
REMARK    3  A    between atoms: C_23  and  O_27 
ROOT
HETATM    1  C   UNK N   1      32.521  14.188   5.623  0.00  0.00     0.173 A 
HETATM    2  C   UNK N   1      33.210  15.010   6.676  0.00  0.00     0.002 A 
HETATM    3  C   UNK N   1      33.497  14.400   7.903  0.00  0.00     0.043 A 
HETATM    4  C   UNK N   1      34.154  15.131   8.872  0.00  0.00     0.065 A 
HETATM    5  N   UNK N   1      34.514  16.412   8.682  0.00  0.00    -0.307 N 
HETATM    6  C   UNK N   1      34.247  17.061   7.501  0.00  0.00     0.257 A 
HETATM    7  O   UNK N   1      34.588  18.222   7.347  0.00  0.00    -0.267 OA
HETATM    8  C   UNK N   1      33.587  16.356   6.464  0.00  0.00     0.044 A 
HETATM    9  C   UNK N   1      33.308  17.041   5.156  0.00  0.00     0.224 A 
HETATM   10  O   UNK N   1      32.689  16.254   4.200  0.00  0.00    -0.314 OA
HETATM   11  C   UNK N   1      32.303  14.960   4.340  0.00  0.00     0.298 A 
HETATM   12  O   UNK N   1      31.750  14.410   3.399  0.00  0.00    -0.261 OA
HETATM   13  C   UNK N   1      35.221  16.944   9.869  0.00  0.00     0.173 A 
HETATM   14  C   UNK N   1      35.221  15.718  10.763  0.00  0.00    -0.010 A 
HETATM   15  C   UNK N   1      34.579  14.685  10.142  0.00  0.00     0.068 A 
HETATM   16  N   UNK N   1      34.445  13.454  10.691  0.00  0.00    -0.353 N 
ATOM     17  HN  UNK N   1      33.955  12.715  10.187  1.00  0.00     0.166 HD
HETATM   18  C   UNK N   1      34.972  13.219  11.922  0.00  0.00     0.043 A 
HETATM   19  C   UNK N   1      34.853  11.955  12.498  0.00  0.00     0.033 A 
HETATM   20  C   UNK N   1      35.404  11.707  13.755  0.00  0.00     0.039 A 
HETATM   21  C   UNK N   1      36.078  12.722  14.444  0.00  0.00     0.066 A 
HETATM   22  C   UNK N   1      36.203  13.997  13.877  0.00  0.00     0.050 A 
HETATM   23  C   UNK N   1      35.656  14.258  12.619  0.00  0.00    -0.006 A 
HETATM   24  C   UNK N   1      35.780  15.532  12.027  0.00  0.00     0.025 A 
ENDROOT
BRANCH   1  25
HETATM   25  C   UNK N   1      33.391  12.948   5.357  0.00  0.00     0.049 C 
HETATM   26  C   UNK N   1      34.690  13.258   4.627  0.00  0.00     0.009 C 
ENDBRANCH   1  25
BRANCH   1  27
HETATM   27  O   UNK N   1      31.277  13.790   6.126  0.00  0.00    -0.375 OA
HETATM   28  H   UNK N   1      30.665  13.246   6.646  0.00  0.00     0.211 HD
ENDBRANCH   1  27
BRANCH  21  29
HETATM   29  O   UNK N   1      36.606  12.470  15.651  0.00  0.00    -0.361 OA
HETATM   30  H   UNK N   1      37.240  11.788  15.757  0.00  0.00     0.217 HD
ENDBRANCH  21  29
TORSDOF 3
ENDMDL
MODEL 5
REMARK VINA RESULT:      -7.3     12.382     15.024
REMARK  3 active torsions:
REMARK  status: ('A' for Active; 'I' for Inactive)
REMARK    1  A    between atoms: C_3  and  C_2 
REMARK    2  A    between atoms: C_3  and  O_28 
REMARK    3  A    between atoms: C_23  and  O_27 
ROOT
HETATM    1  C   UNK N   1      35.425  14.651   9.827  0.00  0.00     0.173 A 
HETATM    2  C   UNK N   1      35.453  13.377  10.626  0.00  0.00     0.002 A 
HETATM    3  C   UNK N   1      35.484  13.476  12.022  0.00  0.00     0.043 A 
HETATM    4  C   UNK N   1      35.482  12.317  12.771  0.00  0.00     0.065 A 
HETATM    5  N   UNK N   1      35.465  11.098  12.205  0.00  0.00    -0.307 N 
HETATM    6  C   UNK N   1      35.445  10.944  10.840  0.00  0.00     0.257 A 
HETATM    7  O   UNK N   1      35.425   9.829  10.348  0.00  0.00    -0.267 OA
HETATM    8  C   UNK N   1      35.432  12.099  10.020  0.00  0.00     0.044 A 
HETATM    9  C   UNK N   1      35.385  11.953   8.525  0.00  0.00     0.224 A 
HETATM   10  O   UNK N   1      35.341  13.142   7.819  0.00  0.00    -0.314 OA
HETATM   11  C   UNK N   1      35.359  14.396   8.338  0.00  0.00     0.298 A 
HETATM   12  O   UNK N   1      35.332  15.347   7.571  0.00  0.00    -0.261 OA
HETATM   13  C   UNK N   1      35.445  10.036  13.238  0.00  0.00     0.173 A 
HETATM   14  C   UNK N   1      35.424  10.878  14.499  0.00  0.00    -0.010 A 
HETATM   15  C   UNK N   1      35.457  12.206  14.179  0.00  0.00     0.068 A 
HETATM   16  N   UNK N   1      35.423  13.196  15.101  0.00  0.00    -0.353 N 
ATOM     17  HN  UNK N   1      35.450  14.173  14.811  1.00  0.00     0.166 HD
HETATM   18  C   UNK N   1      35.354  12.868  16.419  0.00  0.00     0.043 A 
HETATM   19  C   UNK N   1      35.308  13.875  17.383  0.00  0.00     0.033 A 
HETATM   20  C   UNK N   1      35.223  13.542  18.735  0.00  0.00     0.039 A 
HETATM   21  C   UNK N   1      35.184  12.201  19.131  0.00  0.00     0.066 A 
HETATM   22  C   UNK N   1      35.231  11.179  18.173  0.00  0.00     0.050 A 
HETATM   23  C   UNK N   1      35.316  11.499  16.817  0.00  0.00    -0.006 A 
HETATM   24  C   UNK N   1      35.354  10.487  15.836  0.00  0.00     0.025 A 
ENDROOT
BRANCH   1  25
HETATM   25  C   UNK N   1      34.199  15.459  10.285  0.00  0.00     0.049 C 
HETATM   26  C   UNK N   1      32.881  14.938   9.730  0.00  0.00     0.009 C 
ENDBRANCH   1  25
BRANCH   1  27
HETATM   27  O   UNK N   1      36.593  15.368  10.111  0.00  0.00    -0.375 OA
HETATM   28  H   UNK N   1      37.201  15.888  10.658  0.00  0.00     0.211 HD
ENDBRANCH   1  27
BRANCH  21  29
HETATM   29  O   UNK N   1      35.099  11.894  20.434  0.00  0.00    -0.361 OA
HETATM   30  H   UNK N   1      35.045  12.573  21.077  0.00  0.00     0.217 HD
ENDBRANCH  21  29
TORSDOF 3
ENDMDL
MODEL 6
REMARK VINA RESULT:      -7.3     11.417     15.451
REMARK  3 active torsions:
REMARK  status: ('A' for Active; 'I' for Inactive)
REMARK    1  A    between atoms: C_3  and  C_2 
REMARK    2  A    between atoms: C_3  and  O_28 
REMARK    3  A    between atoms: C_23  and  O_27 
ROOT
HETATM    1  C   UNK N   1      35.593  12.372  15.136  0.00  0.00     0.173 A 
HETATM    2  C   UNK N   1      35.213  12.047  13.718  0.00  0.00     0.002 A 
HETATM    3  C   UNK N   1      35.039  13.111  12.824  0.00  0.00     0.043 A 
HETATM    4  C   UNK N   1      34.717  12.830  11.512  0.00  0.00     0.065 A 
HETATM    5  N   UNK N   1      34.551  11.572  11.067  0.00  0.00    -0.307 N 
HETATM    6  C   UNK N   1      34.699  10.493  11.906  0.00  0.00     0.257 A 
HETATM    7  O   UNK N   1      34.549   9.360  11.481  0.00  0.00    -0.267 OA
HETATM    8  C   UNK N   1      35.044  10.720  13.261  0.00  0.00     0.044 A 
HETATM    9  C   UNK N   1      35.234   9.553  14.188  0.00  0.00     0.224 A 
HETATM   10  O   UNK N   1      35.602   9.882  15.481  0.00  0.00    -0.314 OA
HETATM   11  C   UNK N   1      35.780  11.131  15.981  0.00  0.00     0.298 A 
HETATM   12  O   UNK N   1      36.090  11.251  17.157  0.00  0.00    -0.261 OA
HETATM   13  C   UNK N   1      34.234  11.560   9.621  0.00  0.00     0.173 A 
HETATM   14  C   UNK N   1      34.277  13.045   9.316  0.00  0.00    -0.010 A 
HETATM   15  C   UNK N   1      34.554  13.750  10.453  0.00  0.00     0.068 A 
HETATM   16  N   UNK N   1      34.681  15.098  10.482  0.00  0.00    -0.353 N 
ATOM     17  HN  UNK N   1      34.888  15.579  11.357  1.00  0.00     0.166 HD
HETATM   18  C   UNK N   1      34.527  15.799   9.328  0.00  0.00     0.043 A 
HETATM   19  C   UNK N   1      34.664  17.188   9.336  0.00  0.00     0.033 A 
HETATM   20  C   UNK N   1      34.520  17.909   8.151  0.00  0.00     0.039 A 
HETATM   21  C   UNK N   1      34.238  17.247   6.950  0.00  0.00     0.066 A 
HETATM   22  C   UNK N   1      34.096  15.854   6.928  0.00  0.00     0.050 A 
HETATM   23  C   UNK N   1      34.238  15.120   8.107  0.00  0.00    -0.006 A 
HETATM   24  C   UNK N   1      34.109  13.716   8.105  0.00  0.00     0.025 A 
ENDROOT
BRANCH   1  25
HETATM   25  C   UNK N   1      36.896  13.188  15.092  0.00  0.00     0.049 C 
HETATM   26  C   UNK N   1      36.820  14.501  15.858  0.00  0.00     0.009 C 
ENDBRANCH   1  25
BRANCH   1  27
HETATM   27  O   UNK N   1      34.571  13.148  15.694  0.00  0.00    -0.375 OA
HETATM   28  H   UNK N   1      33.700  13.315  16.086  0.00  0.00     0.211 HD
ENDBRANCH   1  27
BRANCH  21  29
HETATM   29  O   UNK N   1      34.105  17.953   5.817  0.00  0.00    -0.361 OA
HETATM   30  H   UNK N   1      34.563  17.694   5.042  0.00  0.00     0.217 HD
ENDBRANCH  21  29
TORSDOF 3
ENDMDL
MODEL 7
REMARK VINA RESULT:      -7.3      6.061      9.645
REMARK  3 active torsions:
REMARK  status: ('A' for Active; 'I' for Inactive)
REMARK    1  A    between atoms: C_3  and  C_2 
REMARK    2  A    between atoms: C_3  and  O_28 
REMARK    3  A    between atoms: C_23  and  O_27 
ROOT
HETATM    1  C   UNK N   1      32.676  16.108   8.717  0.00  0.00     0.173 A 
HETATM    2  C   UNK N   1      31.901  15.841   7.456  0.00  0.00     0.002 A 
HETATM    3  C   UNK N   1      30.810  16.670   7.167  0.00  0.00     0.043 A 
HETATM    4  C   UNK N   1      30.105  16.456   6.000  0.00  0.00     0.065 A 
HETATM    5  N   UNK N   1      30.420  15.471   5.141  0.00  0.00    -0.307 N 
HETATM    6  C   UNK N   1      31.474  14.623   5.383  0.00  0.00     0.257 A 
HETATM    7  O   UNK N   1      31.746  13.739   4.588  0.00  0.00    -0.267 OA
HETATM    8  C   UNK N   1      32.244  14.804   6.559  0.00  0.00     0.044 A 
HETATM    9  C   UNK N   1      33.415  13.902   6.830  0.00  0.00     0.224 A 
HETATM   10  O   UNK N   1      34.120  14.184   7.987  0.00  0.00    -0.314 OA
HETATM   11  C   UNK N   1      33.843  15.161   8.888  0.00  0.00     0.298 A 
HETATM   12  O   UNK N   1      34.558  15.268   9.873  0.00  0.00    -0.261 OA
HETATM   13  C   UNK N   1      29.518  15.484   3.968  0.00  0.00     0.173 A 
HETATM   14  C   UNK N   1      28.645  16.679   4.303  0.00  0.00    -0.010 A 
HETATM   15  C   UNK N   1      29.018  17.210   5.505  0.00  0.00     0.068 A 
HETATM   16  N   UNK N   1      28.433  18.302   6.051  0.00  0.00    -0.353 N 
ATOM     17  HN  UNK N   1      28.747  18.661   6.952  1.00  0.00     0.166 HD
HETATM   18  C   UNK N   1      27.419  18.911   5.380  0.00  0.00     0.043 A 
HETATM   19  C   UNK N   1      26.811  20.044   5.922  0.00  0.00     0.033 A 
HETATM   20  C   UNK N   1      25.780  20.680   5.230  0.00  0.00     0.039 A 
HETATM   21  C   UNK N   1      25.351  20.188   3.992  0.00  0.00     0.066 A 
HETATM   22  C   UNK N   1      25.952  19.050   3.437  0.00  0.00     0.050 A 
HETATM   23  C   UNK N   1      26.985  18.404   4.120  0.00  0.00    -0.006 A 
HETATM   24  C   UNK N   1      27.610  17.265   3.574  0.00  0.00     0.025 A 
ENDROOT
BRANCH   1  25
HETATM   25  C   UNK N   1      33.173  17.563   8.657  0.00  0.00     0.049 C 
HETATM   26  C   UNK N   1      34.188  17.817   7.552  0.00  0.00     0.009 C 
ENDBRANCH   1  25
BRANCH   1  27
HETATM   27  O   UNK N   1      31.807  15.953   9.803  0.00  0.00    -0.375 OA
HETATM   28  H   UNK N   1      30.994  16.092  10.314  0.00  0.00     0.211 HD
ENDBRANCH   1  27
BRANCH  21  29
HETATM   29  O   UNK N   1      24.360  20.810   3.336  0.00  0.00    -0.361 OA
HETATM   30  H   UNK N   1      24.414  20.938   2.410  0.00  0.00     0.217 HD
ENDBRANCH  21  29
TORSDOF 3
ENDMDL
MODEL 8
REMARK VINA RESULT:      -7.3     12.364     16.557
REMARK  3 active torsions:
REMARK  status: ('A' for Active; 'I' for Inactive)
REMARK    1  A    between atoms: C_3  and  C_2 
REMARK    2  A    between atoms: C_3  and  O_28 
REMARK    3  A    between atoms: C_23  and  O_27 
ROOT
HETATM    1  C   UNK N   1      31.000  22.699  -4.103  0.00  0.00     0.173 A 
HETATM    2  C   UNK N   1      29.669  23.370  -4.298  0.00  0.00     0.002 A 
HETATM    3  C   UNK N   1      29.323  23.780  -5.592  0.00  0.00     0.043 A 
HETATM    4  C   UNK N   1      28.094  24.373  -5.794  0.00  0.00     0.065 A 
HETATM    5  N   UNK N   1      27.225  24.584  -4.790  0.00  0.00    -0.307 N 
HETATM    6  C   UNK N   1      27.520  24.211  -3.501  0.00  0.00     0.257 A 
HETATM    7  O   UNK N   1      26.715  24.407  -2.606  0.00  0.00    -0.267 OA
HETATM    8  C   UNK N   1      28.762  23.584  -3.235  0.00  0.00     0.044 A 
HETATM    9  C   UNK N   1      29.093  23.147  -1.836  0.00  0.00     0.224 A 
HETATM   10  O   UNK N   1      30.316  22.516  -1.691  0.00  0.00    -0.314 OA
HETATM   11  C   UNK N   1      31.230  22.281  -2.667  0.00  0.00     0.298 A 
HETATM   12  O   UNK N   1      32.275  21.723  -2.368  0.00  0.00    -0.261 OA
HETATM   13  C   UNK N   1      25.981  25.212  -5.290  0.00  0.00     0.173 A 
HETATM   14  C   UNK N   1      26.291  25.296  -6.773  0.00  0.00    -0.010 A 
HETATM   15  C   UNK N   1      27.540  24.802  -7.020  0.00  0.00     0.068 A 
HETATM   16  N   UNK N   1      28.079  24.725  -8.260  0.00  0.00    -0.353 N 
ATOM     17  HN  UNK N   1      29.017  24.349  -8.393  1.00  0.00     0.166 HD
HETATM   18  C   UNK N   1      27.351  25.159  -9.324  0.00  0.00     0.043 A 
HETATM   19  C   UNK N   1      27.886  25.078 -10.609  0.00  0.00     0.033 A 
HETATM   20  C   UNK N   1      27.137  25.509 -11.704  0.00  0.00     0.039 A 
HETATM   21  C   UNK N   1      25.848  26.023 -11.520  0.00  0.00     0.066 A 
HETATM   22  C   UNK N   1      25.300  26.112 -10.234  0.00  0.00     0.050 A 
HETATM   23  C   UNK N   1      26.040  25.683  -9.130  0.00  0.00    -0.006 A 
HETATM   24  C   UNK N   1      25.502  25.754  -7.828  0.00  0.00     0.025 A 
ENDROOT
BRANCH   1  25
HETATM   25  C   UNK N   1      31.042  21.471  -5.029  0.00  0.00     0.049 C 
HETATM   26  C   UNK N   1      32.267  21.426  -5.930  0.00  0.00     0.009 C 
ENDBRANCH   1  25
BRANCH   1  27
HETATM   27  O   UNK N   1      32.003  23.602  -4.475  0.00  0.00    -0.375 OA
HETATM   28  H   UNK N   1      32.453  24.234  -5.056  0.00  0.00     0.211 HD
ENDBRANCH   1  27
BRANCH  21  29
HETATM   29  O   UNK N   1      25.137  26.431 -12.582  0.00  0.00    -0.361 OA
HETATM   30  H   UNK N   1      24.574  27.177 -12.515  0.00  0.00     0.217 HD
ENDBRANCH  21  29
TORSDOF 3
ENDMDL
MODEL 9
REMARK VINA RESULT:      -7.2     11.110     15.135
REMARK  3 active torsions:
REMARK  status: ('A' for Active; 'I' for Inactive)
REMARK    1  A    between atoms: C_3  and  C_2 
REMARK    2  A    between atoms: C_3  and  O_28 
REMARK    3  A    between atoms: C_23  and  O_27 
ROOT
HETATM    1  C   UNK N   1      35.662  10.697  13.316  0.00  0.00     0.173 A 
HETATM    2  C   UNK N   1      35.699  12.156  12.956  0.00  0.00     0.002 A 
HETATM    3  C   UNK N   1      35.108  12.551  11.750  0.00  0.00     0.043 A 
HETATM    4  C   UNK N   1      35.109  13.891  11.417  0.00  0.00     0.065 A 
HETATM    5  N   UNK N   1      35.671  14.825  12.203  0.00  0.00    -0.307 N 
HETATM    6  C   UNK N   1      36.275  14.489  13.391  0.00  0.00     0.257 A 
HETATM    7  O   UNK N   1      36.774  15.353  14.092  0.00  0.00    -0.267 OA
HETATM    8  C   UNK N   1      36.291  13.131  13.793  0.00  0.00     0.044 A 
HETATM    9  C   UNK N   1      36.925  12.746  15.099  0.00  0.00     0.224 A 
HETATM   10  O   UNK N   1      36.858  11.400  15.412  0.00  0.00    -0.314 OA
HETATM   11  C   UNK N   1      36.307  10.417  14.656  0.00  0.00     0.298 A 
HETATM   12  O   UNK N   1      36.345   9.268  15.070  0.00  0.00    -0.261 OA
HETATM   13  C   UNK N   1      35.509  16.175  11.618  0.00  0.00     0.173 A 
HETATM   14  C   UNK N   1      34.724  15.841  10.364  0.00  0.00    -0.010 A 
HETATM   15  C   UNK N   1      34.521  14.493  10.283  0.00  0.00     0.068 A 
HETATM   16  N   UNK N   1      33.827  13.902   9.281  0.00  0.00    -0.353 N 
ATOM     17  HN  UNK N   1      33.703  12.891   9.264  1.00  0.00     0.166 HD
HETATM   18  C   UNK N   1      33.300  14.679   8.297  0.00  0.00     0.043 A 
HETATM   19  C   UNK N   1      32.574  14.090   7.262  0.00  0.00     0.033 A 
HETATM   20  C   UNK N   1      32.019  14.885   6.259  0.00  0.00     0.039 A 
HETATM   21  C   UNK N   1      32.188  16.274   6.284  0.00  0.00     0.066 A 
HETATM   22  C   UNK N   1      32.917  16.879   7.317  0.00  0.00     0.050 A 
HETATM   23  C   UNK N   1      33.477  16.094   8.327  0.00  0.00    -0.006 A 
HETATM   24  C   UNK N   1      34.205  16.684   9.381  0.00  0.00     0.025 A 
ENDROOT
BRANCH   1  25
HETATM   25  C   UNK N   1      34.187  10.261  13.332  0.00  0.00     0.049 C 
HETATM   26  C   UNK N   1      33.418  10.750  14.551  0.00  0.00     0.009 C 
ENDBRANCH   1  25
BRANCH   1  27
HETATM   27  O   UNK N   1      36.351   9.986  12.327  0.00  0.00    -0.375 OA
HETATM   28  H   UNK N   1      37.040   9.838  11.661  0.00  0.00     0.211 HD
ENDBRANCH   1  27
BRANCH  21  29
HETATM   29  O   UNK N   1      31.648  17.028   5.315  0.00  0.00    -0.361 OA
HETATM   30  H   UNK N   1      31.932  16.933   4.428  0.00  0.00     0.217 HD
ENDBRANCH  21  29
TORSDOF 3
ENDMDL
