MODEL 1
REMARK VINA RESULT:      -9.0      0.000      0.000
REMARK  16 active torsions:
REMARK  status: ('A' for Active; 'I' for Inactive)
REMARK    1  A    between atoms: O_2  and  C_3 
REMARK    2  A    between atoms: C_5  and  N_27 
REMARK    3  A    between atoms: C_8  and  C_9 
REMARK    4  A    between atoms: C_9  and  N_10 
REMARK    5  A    between atoms: N_10  and  C_11 
REMARK    6  A    between atoms: C_11  and  C_12 
REMARK    7  A    between atoms: C_12  and  C_13 
REMARK    8  A    between atoms: C_12  and  O_25 
REMARK    9  A    between atoms: C_16  and  O_24 
REMARK       I    between atoms: N_27  and  C_28 
REMARK   10  A    between atoms: C_28  and  C_30 
REMARK   11  A    between atoms: C_30  and  C_31 
REMARK   12  A    between atoms: C_31  and  N_32 
REMARK   13  A    between atoms: C_35  and  O_38 
REMARK   14  A    between atoms: O_38  and  C_39 
REMARK       I    between atoms: C_39  and  N_41 
REMARK   15  A    between atoms: N_41  and  C_42 
REMARK   16  A    between atoms: C_47  and  C_48 
ROOT
HETATM    1  C   UNK N   1      27.011  16.441   3.045  0.00  0.00     0.078 C 
HETATM    2  C   UNK N   1      25.826  17.077   3.340  0.00  0.00     0.068 C 
HETATM    3  C   UNK N   1      25.775  18.181   4.195  0.00  0.00     0.059 C 
HETATM    4  C   UNK N   1      26.904  18.559   4.908  0.00  0.00     0.061 C 
HETATM    5  C   UNK N   1      28.115  17.990   4.567  0.00  0.00     0.037 C 
HETATM    6  C   UNK N   1      28.200  16.975   3.593  0.00  0.00    -0.006 C 
HETATM    7 Cl   UNK N   1      26.882  19.937   6.002  0.00  0.00    -0.082 Cl
ENDROOT
BRANCH   3   8
HETATM    8  N   UNK N   1      24.803  19.178   3.990  0.00  0.00    -0.326 N 
HETATM    9  C   UNK N   1      23.472  18.941   4.089  0.00  0.00     0.223 C 
HETATM   10  O   UNK N   1      22.724  19.527   3.333  0.00  0.00    -0.273 OA
HETATM   11  H   UNK N   1      25.104  20.088   3.765  0.00  0.00     0.169 HD
BRANCH   9  12
HETATM   12  C   UNK N   1      22.878  17.998   5.114  0.00  0.00     0.122 C 
BRANCH  12  13
HETATM   13  C   UNK N   1      21.392  17.756   4.810  0.00  0.00     0.126 C 
BRANCH  13  14
HETATM   14  N   UNK N   1      21.228  16.357   4.451  0.00  0.00    -0.412 N 
HETATM   15  C   UNK N   1      19.964  15.934   3.870  0.00  0.00     0.119 C 
HETATM   16  C   UNK N   1      19.914  14.390   3.874  0.00  0.00     0.052 C 
HETATM   17  C   UNK N   1      21.006  13.773   4.793  0.00  0.00     0.136 C 
HETATM   18  C   UNK N   1      22.385  14.224   4.267  0.00  0.00     0.052 C 
HETATM   19  C   UNK N   1      22.384  15.709   3.843  0.00  0.00     0.119 C 
BRANCH  17  20
HETATM   20  O   UNK N   1      20.854  14.208   6.106  0.00  0.00    -0.298 OA
BRANCH  20  21
HETATM   21  C   UNK N   1      21.166  13.453   7.190  0.00  0.00     0.365 C 
HETATM   22  O   UNK N   1      20.826  12.283   7.243  0.00  0.00    -0.238 OA
HETATM   23  N   UNK N   1      21.909  14.011   8.168  0.00  0.00    -0.302 N 
HETATM   24  H   UNK N   1      21.995  14.991   8.127  0.00  0.00     0.171 HD
BRANCH  23  25
HETATM   25  C   UNK N   1      22.579  13.386   9.239  0.00  0.00     0.048 A 
HETATM   26  C   UNK N   1      21.885  13.009  10.399  0.00  0.00     0.030 A 
HETATM   27  C   UNK N   1      22.530  12.289  11.403  0.00  0.00     0.002 A 
HETATM   28  C   UNK N   1      23.869  11.930  11.250  0.00  0.00     0.001 A 
HETATM   29  C   UNK N   1      24.570  12.304  10.100  0.00  0.00     0.014 A 
HETATM   30  C   UNK N   1      23.943  13.035   9.078  0.00  0.00     0.001 A 
BRANCH  30  31
HETATM   31  C   UNK N   1      24.735  13.420   7.857  0.00  0.00    -0.024 A 
HETATM   32  C   UNK N   1      24.880  12.512   6.796  0.00  0.00     0.012 A 
HETATM   33  C   UNK N   1      25.633  12.849   5.666  0.00  0.00     0.001 A 
HETATM   34  C   UNK N   1      26.255  14.097   5.579  0.00  0.00     0.000 A 
HETATM   35  C   UNK N   1      26.125  15.011   6.623  0.00  0.00     0.001 A 
HETATM   36  C   UNK N   1      25.374  14.673   7.748  0.00  0.00     0.012 A 
ENDBRANCH  30  31
ENDBRANCH  23  25
ENDBRANCH  20  21
ENDBRANCH  17  20
ENDBRANCH  13  14
ENDBRANCH  12  13
ENDBRANCH   9  12
ENDBRANCH   3   8
BRANCH   1  37
HETATM   37  O   UNK N   1      26.950  15.403   2.169  0.00  0.00    -0.355 OA
HETATM   38  C   UNK N   1      25.866  14.591   1.940  0.00  0.00     0.210 C 
ENDBRANCH   1  37
BRANCH   6  39
HETATM   39  C   UNK N   1      29.556  16.525   3.119  0.00  0.00     0.155 C 
BRANCH  39  40
HETATM   40  N   UNK N   1      29.825  15.111   3.387  0.00  0.00    -0.415 N 
HETATM   41  H   UNK N   1      30.057  14.415   2.677  0.00  0.00     0.153 HD
BRANCH  40  42
HETATM   42  C   UNK N   1      29.709  14.845   4.823  0.00  0.00     0.150 C 
BRANCH  42  43
HETATM   43  C   UNK N   1      31.048  15.041   5.540  0.00  0.00     0.169 C 
BRANCH  43  44
HETATM   44  C   UNK N   1      30.857  16.097   6.563  0.00  0.00    -0.015 A 
HETATM   45  C   UNK N   1      29.593  16.276   7.134  0.00  0.00     0.013 A 
HETATM   46  C   UNK N   1      29.412  17.211   8.154  0.00  0.00     0.039 A 
HETATM   47  C   UNK N   1      30.496  17.965   8.618  0.00  0.00     0.093 A 
HETATM   48  C   UNK N   1      31.768  17.792   8.049  0.00  0.00     0.079 A 
HETATM   49  C   UNK N   1      31.948  16.858   7.014  0.00  0.00     0.003 A 
HETATM   50  N   UNK N   1      32.836  18.507   8.500  0.00  0.00    -0.321 N 
HETATM   51  C   UNK N   1      33.226  16.686   6.465  0.00  0.00     0.020 A 
HETATM   52  C   UNK N   1      34.298  17.423   6.938  0.00  0.00     0.075 A 
HETATM   53  C   UNK N   1      34.091  18.338   7.965  0.00  0.00     0.245 A 
HETATM   54  O   UNK N   1      35.027  18.986   8.390  0.00  0.00    -0.268 OA
HETATM   55  H   UNK N   1      32.705  19.161   9.224  0.00  0.00     0.169 HD
BRANCH  47  56
HETATM   56  O   UNK N   1      30.311  18.848   9.612  0.00  0.00    -0.358 OA
HETATM   57  H   UNK N   1      31.044  19.302   9.979  0.00  0.00     0.217 HD
ENDBRANCH  47  56
ENDBRANCH  43  44
BRANCH  43  58
HETATM   58  O   UNK N   1      31.476  13.842   6.111  0.00  0.00    -0.389 OA
HETATM   59  H   UNK N   1      31.146  13.194   6.751  0.00  0.00     0.210 HD
ENDBRANCH  43  58
ENDBRANCH  42  43
ENDBRANCH  40  42
ENDBRANCH  39  40
ENDBRANCH   6  39
TORSDOF 16
ENDMDL
MODEL 2
REMARK VINA RESULT:      -8.6      5.838     12.099
REMARK  16 active torsions:
REMARK  status: ('A' for Active; 'I' for Inactive)
REMARK    1  A    between atoms: O_2  and  C_3 
REMARK    2  A    between atoms: C_5  and  N_27 
REMARK    3  A    between atoms: C_8  and  C_9 
REMARK    4  A    between atoms: C_9  and  N_10 
REMARK    5  A    between atoms: N_10  and  C_11 
REMARK    6  A    between atoms: C_11  and  C_12 
REMARK    7  A    between atoms: C_12  and  C_13 
REMARK    8  A    between atoms: C_12  and  O_25 
REMARK    9  A    between atoms: C_16  and  O_24 
REMARK       I    between atoms: N_27  and  C_28 
REMARK   10  A    between atoms: C_28  and  C_30 
REMARK   11  A    between atoms: C_30  and  C_31 
REMARK   12  A    between atoms: C_31  and  N_32 
REMARK   13  A    between atoms: C_35  and  O_38 
REMARK   14  A    between atoms: O_38  and  C_39 
REMARK       I    between atoms: C_39  and  N_41 
REMARK   15  A    between atoms: N_41  and  C_42 
REMARK   16  A    between atoms: C_47  and  C_48 
ROOT
HETATM    1  C   UNK N   1      30.087  17.768   8.133  0.00  0.00     0.078 C 
HETATM    2  C   UNK N   1      31.390  17.573   8.531  0.00  0.00     0.068 C 
HETATM    3  C   UNK N   1      32.393  17.217   7.625  0.00  0.00     0.059 C 
HETATM    4  C   UNK N   1      32.061  16.883   6.319  0.00  0.00     0.061 C 
HETATM    5  C   UNK N   1      30.779  17.150   5.880  0.00  0.00     0.037 C 
HETATM    6  C   UNK N   1      29.795  17.654   6.754  0.00  0.00    -0.006 C 
HETATM    7 Cl   UNK N   1      33.290  16.421   5.148  0.00  0.00    -0.082 Cl
ENDROOT
BRANCH   3   8
HETATM    8  N   UNK N   1      33.714  17.648   7.842  0.00  0.00    -0.326 N 
HETATM    9  C   UNK N   1      34.480  17.191   8.864  0.00  0.00     0.223 C 
HETATM   10  O   UNK N   1      35.249  17.964   9.399  0.00  0.00    -0.273 OA
HETATM   11  H   UNK N   1      34.100  18.310   7.225  0.00  0.00     0.169 HD
BRANCH   9  12
HETATM   12  C   UNK N   1      34.433  15.758   9.350  0.00  0.00     0.122 C 
BRANCH  12  13
HETATM   13  C   UNK N   1      35.381  14.884   8.513  0.00  0.00     0.126 C 
BRANCH  13  14
HETATM   14  N   UNK N   1      35.851  13.798   9.354  0.00  0.00    -0.412 N 
HETATM   15  C   UNK N   1      34.868  12.947  10.005  0.00  0.00     0.119 C 
HETATM   16  C   UNK N   1      35.585  12.093  11.073  0.00  0.00     0.052 C 
HETATM   17  C   UNK N   1      37.009  12.629  11.389  0.00  0.00     0.136 C 
HETATM   18  C   UNK N   1      37.835  12.592  10.086  0.00  0.00     0.052 C 
HETATM   19  C   UNK N   1      37.012  13.061   8.866  0.00  0.00     0.119 C 
BRANCH  17  20
HETATM   20  O   UNK N   1      36.955  13.939  11.857  0.00  0.00    -0.298 OA
BRANCH  20  21
HETATM   21  C   UNK N   1      36.414  14.290  13.051  0.00  0.00     0.365 C 
HETATM   22  O   UNK N   1      35.318  14.824  13.097  0.00  0.00    -0.238 OA
HETATM   23  N   UNK N   1      37.089  13.978  14.177  0.00  0.00    -0.302 N 
HETATM   24  H   UNK N   1      38.027  13.707  14.047  0.00  0.00     0.171 HD
BRANCH  23  25
HETATM   25  C   UNK N   1      36.638  13.987  15.512  0.00  0.00     0.048 A 
HETATM   26  C   UNK N   1      36.909  15.075  16.355  0.00  0.00     0.030 A 
HETATM   27  C   UNK N   1      36.361  15.127  17.636  0.00  0.00     0.002 A 
HETATM   28  C   UNK N   1      35.531  14.098  18.079  0.00  0.00     0.001 A 
HETATM   29  C   UNK N   1      35.258  13.008  17.249  0.00  0.00     0.014 A 
HETATM   30  C   UNK N   1      35.803  12.931  15.957  0.00  0.00     0.001 A 
BRANCH  30  31
HETATM   31  C   UNK N   1      35.486  11.737  15.095  0.00  0.00    -0.024 A 
HETATM   32  C   UNK N   1      34.186  11.552  14.599  0.00  0.00     0.012 A 
HETATM   33  C   UNK N   1      33.873  10.435  13.816  0.00  0.00     0.001 A 
HETATM   34  C   UNK N   1      34.854   9.484  13.520  0.00  0.00     0.000 A 
HETATM   35  C   UNK N   1      36.149   9.649  14.006  0.00  0.00     0.001 A 
HETATM   36  C   UNK N   1      36.458  10.764  14.785  0.00  0.00     0.012 A 
ENDBRANCH  30  31
ENDBRANCH  23  25
ENDBRANCH  20  21
ENDBRANCH  17  20
ENDBRANCH  13  14
ENDBRANCH  12  13
ENDBRANCH   9  12
ENDBRANCH   3   8
BRANCH   1  37
HETATM   37  O   UNK N   1      29.202  18.151   9.090  0.00  0.00    -0.355 OA
HETATM   38  C   UNK N   1      28.247  17.361   9.683  0.00  0.00     0.210 C 
ENDBRANCH   1  37
BRANCH   6  39
HETATM   39  C   UNK N   1      28.476  18.109   6.188  0.00  0.00     0.155 C 
BRANCH  39  40
HETATM   40  N   UNK N   1      27.872  17.141   5.272  0.00  0.00    -0.415 N 
HETATM   41  H   UNK N   1      28.391  16.523   4.647  0.00  0.00     0.153 HD
BRANCH  40  42
HETATM   42  C   UNK N   1      26.412  17.190   5.387  0.00  0.00     0.150 C 
BRANCH  42  43
HETATM   43  C   UNK N   1      25.734  16.965   4.032  0.00  0.00     0.169 C 
BRANCH  43  44
HETATM   44  C   UNK N   1      24.892  18.153   3.750  0.00  0.00    -0.015 A 
HETATM   45  C   UNK N   1      25.508  19.372   3.454  0.00  0.00     0.013 A 
HETATM   46  C   UNK N   1      24.733  20.481   3.108  0.00  0.00     0.039 A 
HETATM   47  C   UNK N   1      23.340  20.374   3.047  0.00  0.00     0.093 A 
HETATM   48  C   UNK N   1      22.714  19.153   3.345  0.00  0.00     0.079 A 
HETATM   49  C   UNK N   1      23.493  18.039   3.704  0.00  0.00     0.003 A 
HETATM   50  N   UNK N   1      21.360  19.029   3.276  0.00  0.00    -0.321 N 
HETATM   51  C   UNK N   1      22.856  16.823   3.986  0.00  0.00     0.020 A 
HETATM   52  C   UNK N   1      21.478  16.718   3.909  0.00  0.00     0.075 A 
HETATM   53  C   UNK N   1      20.732  17.836   3.549  0.00  0.00     0.245 A 
HETATM   54  O   UNK N   1      19.522  17.753   3.474  0.00  0.00    -0.268 OA
HETATM   55  H   UNK N   1      20.817  19.812   3.026  0.00  0.00     0.169 HD
BRANCH  47  56
HETATM   56  O   UNK N   1      22.608  21.444   2.697  0.00  0.00    -0.358 OA
HETATM   57  H   UNK N   1      21.688  21.354   2.544  0.00  0.00     0.217 HD
ENDBRANCH  47  56
ENDBRANCH  43  44
BRANCH  43  58
HETATM   58  O   UNK N   1      26.688  16.761   3.036  0.00  0.00    -0.389 OA
HETATM   59  H   UNK N   1      27.534  16.297   2.936  0.00  0.00     0.210 HD
ENDBRANCH  43  58
ENDBRANCH  42  43
ENDBRANCH  40  42
ENDBRANCH  39  40
ENDBRANCH   6  39
TORSDOF 16
ENDMDL
MODEL 3
REMARK VINA RESULT:      -8.5      5.985     11.996
REMARK  16 active torsions:
REMARK  status: ('A' for Active; 'I' for Inactive)
REMARK    1  A    between atoms: O_2  and  C_3 
REMARK    2  A    between atoms: C_5  and  N_27 
REMARK    3  A    between atoms: C_8  and  C_9 
REMARK    4  A    between atoms: C_9  and  N_10 
REMARK    5  A    between atoms: N_10  and  C_11 
REMARK    6  A    between atoms: C_11  and  C_12 
REMARK    7  A    between atoms: C_12  and  C_13 
REMARK    8  A    between atoms: C_12  and  O_25 
REMARK    9  A    between atoms: C_16  and  O_24 
REMARK       I    between atoms: N_27  and  C_28 
REMARK   10  A    between atoms: C_28  and  C_30 
REMARK   11  A    between atoms: C_30  and  C_31 
REMARK   12  A    between atoms: C_31  and  N_32 
REMARK   13  A    between atoms: C_35  and  O_38 
REMARK   14  A    between atoms: O_38  and  C_39 
REMARK       I    between atoms: C_39  and  N_41 
REMARK   15  A    between atoms: N_41  and  C_42 
REMARK   16  A    between atoms: C_47  and  C_48 
ROOT
HETATM    1  C   UNK N   1      29.828  17.460   7.099  0.00  0.00     0.078 C 
HETATM    2  C   UNK N   1      30.952  17.251   7.867  0.00  0.00     0.068 C 
HETATM    3  C   UNK N   1      32.207  17.032   7.294  0.00  0.00     0.059 C 
HETATM    4  C   UNK N   1      32.321  16.849   5.923  0.00  0.00     0.061 C 
HETATM    5  C   UNK N   1      31.226  17.135   5.130  0.00  0.00     0.037 C 
HETATM    6  C   UNK N   1      29.989  17.505   5.695  0.00  0.00    -0.006 C 
HETATM    7 Cl   UNK N   1      33.880  16.561   5.160  0.00  0.00    -0.082 Cl
ENDROOT
BRANCH   3   8
HETATM    8  N   UNK N   1      33.366  17.467   7.963  0.00  0.00    -0.326 N 
HETATM    9  C   UNK N   1      34.071  16.673   8.807  0.00  0.00     0.223 C 
HETATM   10  O   UNK N   1      34.579  17.180   9.786  0.00  0.00    -0.273 OA
HETATM   11  H   UNK N   1      33.678  18.387   7.812  0.00  0.00     0.169 HD
BRANCH   9  12
HETATM   12  C   UNK N   1      34.268  15.191   8.569  0.00  0.00     0.122 C 
BRANCH  12  13
HETATM   13  C   UNK N   1      35.764  14.842   8.621  0.00  0.00     0.126 C 
BRANCH  13  14
HETATM   14  N   UNK N   1      35.927  13.687   9.487  0.00  0.00    -0.412 N 
HETATM   15  C   UNK N   1      34.745  13.119  10.116  0.00  0.00     0.119 C 
HETATM   16  C   UNK N   1      35.198  12.132  11.213  0.00  0.00     0.052 C 
HETATM   17  C   UNK N   1      36.703  12.302  11.567  0.00  0.00     0.136 C 
HETATM   18  C   UNK N   1      37.527  12.039  10.290  0.00  0.00     0.052 C 
HETATM   19  C   UNK N   1      36.880  12.677   9.042  0.00  0.00     0.119 C 
BRANCH  17  20
HETATM   20  O   UNK N   1      36.963  13.592  12.020  0.00  0.00    -0.298 OA
BRANCH  20  21
HETATM   21  C   UNK N   1      36.441  14.109  13.161  0.00  0.00     0.365 C 
HETATM   22  O   UNK N   1      35.357  14.669  13.143  0.00  0.00    -0.238 OA
HETATM   23  N   UNK N   1      37.118  13.933  14.314  0.00  0.00    -0.302 N 
HETATM   24  H   UNK N   1      38.049  13.626  14.215  0.00  0.00     0.171 HD
BRANCH  23  25
HETATM   25  C   UNK N   1      36.680  14.128  15.639  0.00  0.00     0.048 A 
HETATM   26  C   UNK N   1      37.015  15.294  16.344  0.00  0.00     0.030 A 
HETATM   27  C   UNK N   1      36.482  15.530  17.610  0.00  0.00     0.002 A 
HETATM   28  C   UNK N   1      35.601  14.608  18.175  0.00  0.00     0.001 A 
HETATM   29  C   UNK N   1      35.264  13.442  17.484  0.00  0.00     0.014 A 
HETATM   30  C   UNK N   1      35.793  13.179  16.210  0.00  0.00     0.001 A 
BRANCH  30  31
HETATM   31  C   UNK N   1      35.406  11.910  15.500  0.00  0.00    -0.024 A 
HETATM   32  C   UNK N   1      36.313  10.840  15.426  0.00  0.00     0.012 A 
HETATM   33  C   UNK N   1      35.975   9.663  14.748  0.00  0.00     0.001 A 
HETATM   34  C   UNK N   1      34.727   9.538  14.131  0.00  0.00     0.000 A 
HETATM   35  C   UNK N   1      33.815  10.590  14.191  0.00  0.00     0.001 A 
HETATM   36  C   UNK N   1      34.155  11.762  14.868  0.00  0.00     0.012 A 
ENDBRANCH  30  31
ENDBRANCH  23  25
ENDBRANCH  20  21
ENDBRANCH  17  20
ENDBRANCH  13  14
ENDBRANCH  12  13
ENDBRANCH   9  12
ENDBRANCH   3   8
BRANCH   1  37
HETATM   37  O   UNK N   1      28.667  17.704   7.761  0.00  0.00    -0.355 OA
HETATM   38  C   UNK N   1      28.464  18.659   8.727  0.00  0.00     0.210 C 
ENDBRANCH   1  37
BRANCH   6  39
HETATM   39  C   UNK N   1      28.888  17.992   4.792  0.00  0.00     0.155 C 
BRANCH  39  40
HETATM   40  N   UNK N   1      28.094  16.910   4.209  0.00  0.00    -0.415 N 
HETATM   41  H   UNK N   1      28.389  16.321   3.429  0.00  0.00     0.153 HD
BRANCH  40  42
HETATM   42  C   UNK N   1      26.812  16.799   4.911  0.00  0.00     0.150 C 
BRANCH  42  43
HETATM   43  C   UNK N   1      26.052  18.128   4.908  0.00  0.00     0.169 C 
BRANCH  43  44
HETATM   44  C   UNK N   1      24.613  17.820   4.729  0.00  0.00    -0.015 A 
HETATM   45  C   UNK N   1      24.077  16.680   5.335  0.00  0.00     0.013 A 
HETATM   46  C   UNK N   1      22.709  16.417   5.243  0.00  0.00     0.039 A 
HETATM   47  C   UNK N   1      21.867  17.298   4.556  0.00  0.00     0.093 A 
HETATM   48  C   UNK N   1      22.399  18.445   3.944  0.00  0.00     0.079 A 
HETATM   49  C   UNK N   1      23.778  18.704   4.027  0.00  0.00     0.003 A 
HETATM   50  N   UNK N   1      21.591  19.320   3.284  0.00  0.00    -0.321 N 
HETATM   51  C   UNK N   1      24.292  19.860   3.423  0.00  0.00     0.020 A 
HETATM   52  C   UNK N   1      23.453  20.737   2.757  0.00  0.00     0.075 A 
HETATM   53  C   UNK N   1      22.092  20.456   2.693  0.00  0.00     0.245 A 
HETATM   54  O   UNK N   1      21.347  21.222   2.115  0.00  0.00    -0.268 OA
HETATM   55  H   UNK N   1      20.625  19.134   3.227  0.00  0.00     0.169 HD
BRANCH  47  56
HETATM   56  O   UNK N   1      20.552  17.041   4.491  0.00  0.00    -0.358 OA
HETATM   57  H   UNK N   1      20.010  17.516   3.891  0.00  0.00     0.217 HD
ENDBRANCH  47  56
ENDBRANCH  43  44
BRANCH  43  58
HETATM   58  O   UNK N   1      26.287  18.827   6.093  0.00  0.00    -0.389 OA
HETATM   59  H   UNK N   1      25.851  19.515   6.618  0.00  0.00     0.210 HD
ENDBRANCH  43  58
ENDBRANCH  42  43
ENDBRANCH  40  42
ENDBRANCH  39  40
ENDBRANCH   6  39
TORSDOF 16
ENDMDL
MODEL 4
REMARK VINA RESULT:      -8.4      1.910      2.928
REMARK  16 active torsions:
REMARK  status: ('A' for Active; 'I' for Inactive)
REMARK    1  A    between atoms: O_2  and  C_3 
REMARK    2  A    between atoms: C_5  and  N_27 
REMARK    3  A    between atoms: C_8  and  C_9 
REMARK    4  A    between atoms: C_9  and  N_10 
REMARK    5  A    between atoms: N_10  and  C_11 
REMARK    6  A    between atoms: C_11  and  C_12 
REMARK    7  A    between atoms: C_12  and  C_13 
REMARK    8  A    between atoms: C_12  and  O_25 
REMARK    9  A    between atoms: C_16  and  O_24 
REMARK       I    between atoms: N_27  and  C_28 
REMARK   10  A    between atoms: C_28  and  C_30 
REMARK   11  A    between atoms: C_30  and  C_31 
REMARK   12  A    between atoms: C_31  and  N_32 
REMARK   13  A    between atoms: C_35  and  O_38 
REMARK   14  A    between atoms: O_38  and  C_39 
REMARK       I    between atoms: C_39  and  N_41 
REMARK   15  A    between atoms: N_41  and  C_42 
REMARK   16  A    between atoms: C_47  and  C_48 
ROOT
HETATM    1  C   UNK N   1      26.669  18.064   4.592  0.00  0.00     0.078 C 
HETATM    2  C   UNK N   1      25.381  17.827   5.015  0.00  0.00     0.068 C 
HETATM    3  C   UNK N   1      24.635  16.746   4.539  0.00  0.00     0.059 C 
HETATM    4  C   UNK N   1      25.120  15.976   3.491  0.00  0.00     0.061 C 
HETATM    5  C   UNK N   1      26.437  16.144   3.110  0.00  0.00     0.037 C 
HETATM    6  C   UNK N   1      27.248  17.139   3.693  0.00  0.00    -0.006 C 
HETATM    7 Cl   UNK N   1      24.211  14.611   2.853  0.00  0.00    -0.082 Cl
ENDROOT
BRANCH   3   8
HETATM    8  N   UNK N   1      23.683  16.132   5.374  0.00  0.00    -0.326 N 
HETATM    9  C   UNK N   1      22.510  16.722   5.712  0.00  0.00     0.223 C 
HETATM   10  O   UNK N   1      22.070  16.535   6.828  0.00  0.00    -0.273 OA
HETATM   11  H   UNK N   1      23.878  15.235   5.728  0.00  0.00     0.169 HD
BRANCH   9  12
HETATM   12  C   UNK N   1      21.716  17.583   4.752  0.00  0.00     0.122 C 
BRANCH  12  13
HETATM   13  C   UNK N   1      21.543  16.856   3.409  0.00  0.00     0.126 C 
BRANCH  13  14
HETATM   14  N   UNK N   1      20.659  15.723   3.622  0.00  0.00    -0.412 N 
HETATM   15  C   UNK N   1      19.386  15.951   4.286  0.00  0.00     0.119 C 
HETATM   16  C   UNK N   1      18.784  14.584   4.678  0.00  0.00     0.052 C 
HETATM   17  C   UNK N   1      19.831  13.438   4.592  0.00  0.00     0.136 C 
HETATM   18  C   UNK N   1      20.336  13.360   3.136  0.00  0.00     0.052 C 
HETATM   19  C   UNK N   1      20.571  14.761   2.529  0.00  0.00     0.119 C 
BRANCH  17  20
HETATM   20  O   UNK N   1      20.910  13.687   5.436  0.00  0.00    -0.298 OA
BRANCH  20  21
HETATM   21  C   UNK N   1      21.080  13.081   6.638  0.00  0.00     0.365 C 
HETATM   22  O   UNK N   1      20.667  11.947   6.819  0.00  0.00    -0.238 OA
HETATM   23  N   UNK N   1      21.765  13.738   7.597  0.00  0.00    -0.302 N 
HETATM   24  H   UNK N   1      21.911  14.697   7.430  0.00  0.00     0.171 HD
BRANCH  23  25
HETATM   25  C   UNK N   1      22.299  13.242   8.803  0.00  0.00     0.048 A 
HETATM   26  C   UNK N   1      21.496  13.116   9.947  0.00  0.00     0.030 A 
HETATM   27  C   UNK N   1      22.002  12.517  11.100  0.00  0.00     0.002 A 
HETATM   28  C   UNK N   1      23.308  12.031  11.114  0.00  0.00     0.001 A 
HETATM   29  C   UNK N   1      24.118  12.155   9.982  0.00  0.00     0.014 A 
HETATM   30  C   UNK N   1      23.632  12.759   8.811  0.00  0.00     0.001 A 
BRANCH  30  31
HETATM   31  C   UNK N   1      24.538  12.876   7.613  0.00  0.00    -0.024 A 
HETATM   32  C   UNK N   1      25.403  13.975   7.489  0.00  0.00     0.012 A 
HETATM   33  C   UNK N   1      26.233  14.107   6.370  0.00  0.00     0.001 A 
HETATM   34  C   UNK N   1      26.207  13.146   5.356  0.00  0.00     0.000 A 
HETATM   35  C   UNK N   1      25.352  12.050   5.460  0.00  0.00     0.001 A 
HETATM   36  C   UNK N   1      24.528  11.920   6.577  0.00  0.00     0.012 A 
ENDBRANCH  30  31
ENDBRANCH  23  25
ENDBRANCH  20  21
ENDBRANCH  17  20
ENDBRANCH  13  14
ENDBRANCH  12  13
ENDBRANCH   9  12
ENDBRANCH   3   8
BRANCH   1  37
HETATM   37  O   UNK N   1      27.316  19.120   5.152  0.00  0.00    -0.355 OA
HETATM   38  C   UNK N   1      26.733  20.191   5.784  0.00  0.00     0.210 C 
ENDBRANCH   1  37
BRANCH   6  39
HETATM   39  C   UNK N   1      28.722  17.156   3.386  0.00  0.00     0.155 C 
BRANCH  39  40
HETATM   40  N   UNK N   1      29.325  15.823   3.360  0.00  0.00    -0.415 N 
HETATM   41  H   UNK N   1      28.908  15.000   2.923  0.00  0.00     0.153 HD
BRANCH  40  42
HETATM   42  C   UNK N   1      30.615  15.846   4.055  0.00  0.00     0.150 C 
BRANCH  42  43
HETATM   43  C   UNK N   1      31.070  17.278   4.348  0.00  0.00     0.169 C 
BRANCH  43  44
HETATM   44  C   UNK N   1      31.753  17.269   5.665  0.00  0.00    -0.015 A 
HETATM   45  C   UNK N   1      33.149  17.315   5.711  0.00  0.00     0.013 A 
HETATM   46  C   UNK N   1      33.806  17.387   6.941  0.00  0.00     0.039 A 
HETATM   47  C   UNK N   1      33.071  17.425   8.130  0.00  0.00     0.093 A 
HETATM   48  C   UNK N   1      31.667  17.379   8.092  0.00  0.00     0.079 A 
HETATM   49  C   UNK N   1      31.006  17.295   6.854  0.00  0.00     0.003 A 
HETATM   50  N   UNK N   1      30.937  17.430   9.240  0.00  0.00    -0.321 N 
HETATM   51  C   UNK N   1      29.605  17.263   6.830  0.00  0.00     0.020 A 
HETATM   52  C   UNK N   1      28.881  17.316   8.009  0.00  0.00     0.075 A 
HETATM   53  C   UNK N   1      29.562  17.402   9.219  0.00  0.00     0.245 A 
HETATM   54  O   UNK N   1      28.936  17.454  10.259  0.00  0.00    -0.268 OA
HETATM   55  H   UNK N   1      31.404  17.487  10.105  0.00  0.00     0.169 HD
BRANCH  47  56
HETATM   56  O   UNK N   1      33.715  17.512   9.304  0.00  0.00    -0.358 OA
HETATM   57  H   UNK N   1      34.304  18.224   9.465  0.00  0.00     0.217 HD
ENDBRANCH  47  56
ENDBRANCH  43  44
BRANCH  43  58
HETATM   58  O   UNK N   1      31.909  17.741   3.335  0.00  0.00    -0.389 OA
HETATM   59  H   UNK N   1      32.733  17.467   2.904  0.00  0.00     0.210 HD
ENDBRANCH  43  58
ENDBRANCH  42  43
ENDBRANCH  40  42
ENDBRANCH  39  40
ENDBRANCH   6  39
TORSDOF 16
ENDMDL
MODEL 5
REMARK VINA RESULT:      -8.3      3.289      7.929
REMARK  16 active torsions:
REMARK  status: ('A' for Active; 'I' for Inactive)
REMARK    1  A    between atoms: O_2  and  C_3 
REMARK    2  A    between atoms: C_5  and  N_27 
REMARK    3  A    between atoms: C_8  and  C_9 
REMARK    4  A    between atoms: C_9  and  N_10 
REMARK    5  A    between atoms: N_10  and  C_11 
REMARK    6  A    between atoms: C_11  and  C_12 
REMARK    7  A    between atoms: C_12  and  C_13 
REMARK    8  A    between atoms: C_12  and  O_25 
REMARK    9  A    between atoms: C_16  and  O_24 
REMARK       I    between atoms: N_27  and  C_28 
REMARK   10  A    between atoms: C_28  and  C_30 
REMARK   11  A    between atoms: C_30  and  C_31 
REMARK   12  A    between atoms: C_31  and  N_32 
REMARK   13  A    between atoms: C_35  and  O_38 
REMARK   14  A    between atoms: O_38  and  C_39 
REMARK       I    between atoms: C_39  and  N_41 
REMARK   15  A    between atoms: N_41  and  C_42 
REMARK   16  A    between atoms: C_47  and  C_48 
ROOT
HETATM    1  C   UNK N   1      22.122  12.816   4.427  0.00  0.00     0.078 C 
HETATM    2  C   UNK N   1      21.414  13.603   3.547  0.00  0.00     0.068 C 
HETATM    3  C   UNK N   1      21.947  14.000   2.318  0.00  0.00     0.059 C 
HETATM    4  C   UNK N   1      23.280  13.747   2.026  0.00  0.00     0.061 C 
HETATM    5  C   UNK N   1      23.981  12.892   2.854  0.00  0.00     0.037 C 
HETATM    6  C   UNK N   1      23.400  12.364   4.024  0.00  0.00    -0.006 C 
HETATM    7 Cl   UNK N   1      23.995  14.236   0.495  0.00  0.00    -0.082 Cl
ENDROOT
BRANCH   3   8
HETATM    8  N   UNK N   1      21.093  14.191   1.216  0.00  0.00    -0.326 N 
HETATM    9  C   UNK N   1      20.294  15.279   1.084  0.00  0.00     0.223 C 
HETATM   10  O   UNK N   1      19.201  15.134   0.576  0.00  0.00    -0.273 OA
HETATM   11  H   UNK N   1      21.075  13.506   0.511  0.00  0.00     0.169 HD
BRANCH   9  12
HETATM   12  C   UNK N   1      20.714  16.666   1.521  0.00  0.00     0.122 C 
BRANCH  12  13
HETATM   13  C   UNK N   1      20.191  16.956   2.936  0.00  0.00     0.126 C 
BRANCH  13  14
HETATM   14  N   UNK N   1      21.236  17.649   3.669  0.00  0.00    -0.412 N 
HETATM   15  C   UNK N   1      21.797  18.862   3.098  0.00  0.00     0.119 C 
HETATM   16  C   UNK N   1      23.079  19.226   3.878  0.00  0.00     0.052 C 
HETATM   17  C   UNK N   1      23.582  18.047   4.758  0.00  0.00     0.136 C 
HETATM   18  C   UNK N   1      22.468  17.696   5.768  0.00  0.00     0.052 C 
HETATM   19  C   UNK N   1      21.069  17.721   5.117  0.00  0.00     0.119 C 
BRANCH  17  20
HETATM   20  O   UNK N   1      23.860  16.928   3.979  0.00  0.00    -0.298 OA
BRANCH  20  21
HETATM   21  C   UNK N   1      25.104  16.407   3.827  0.00  0.00     0.365 C 
HETATM   22  O   UNK N   1      25.556  16.209   2.711  0.00  0.00    -0.238 OA
HETATM   23  N   UNK N   1      25.842  16.176   4.932  0.00  0.00    -0.302 N 
HETATM   24  H   UNK N   1      25.349  16.202   5.783  0.00  0.00     0.171 HD
BRANCH  23  25
HETATM   25  C   UNK N   1      27.221  15.902   5.036  0.00  0.00     0.048 A 
HETATM   26  C   UNK N   1      27.704  14.590   4.919  0.00  0.00     0.030 A 
HETATM   27  C   UNK N   1      29.076  14.343   4.908  0.00  0.00     0.002 A 
HETATM   28  C   UNK N   1      29.974  15.406   5.002  0.00  0.00     0.001 A 
HETATM   29  C   UNK N   1      29.503  16.715   5.123  0.00  0.00     0.014 A 
HETATM   30  C   UNK N   1      28.126  16.989   5.142  0.00  0.00     0.001 A 
BRANCH  30  31
HETATM   31  C   UNK N   1      27.660  18.414   5.277  0.00  0.00    -0.024 A 
HETATM   32  C   UNK N   1      27.289  19.144   4.136  0.00  0.00     0.012 A 
HETATM   33  C   UNK N   1      26.877  20.477   4.245  0.00  0.00     0.001 A 
HETATM   34  C   UNK N   1      26.832  21.102   5.495  0.00  0.00     0.000 A 
HETATM   35  C   UNK N   1      27.199  20.394   6.637  0.00  0.00     0.001 A 
HETATM   36  C   UNK N   1      27.608  19.066   6.526  0.00  0.00     0.012 A 
ENDBRANCH  30  31
ENDBRANCH  23  25
ENDBRANCH  20  21
ENDBRANCH  17  20
ENDBRANCH  13  14
ENDBRANCH  12  13
ENDBRANCH   9  12
ENDBRANCH   3   8
BRANCH   1  37
HETATM   37  O   UNK N   1      21.491  12.456   5.576  0.00  0.00    -0.355 OA
HETATM   38  C   UNK N   1      20.258  11.861   5.677  0.00  0.00     0.210 C 
ENDBRANCH   1  37
BRANCH   6  39
HETATM   39  C   UNK N   1      24.131  11.291   4.786  0.00  0.00     0.155 C 
BRANCH  39  40
HETATM   40  N   UNK N   1      24.130  11.503   6.234  0.00  0.00    -0.415 N 
HETATM   41  H   UNK N   1      23.508  11.035   6.894  0.00  0.00     0.153 HD
BRANCH  40  42
HETATM   42  C   UNK N   1      25.155  12.487   6.594  0.00  0.00     0.150 C 
BRANCH  42  43
HETATM   43  C   UNK N   1      24.547  13.694   7.314  0.00  0.00     0.169 C 
BRANCH  43  44
HETATM   44  C   UNK N   1      23.751  13.179   8.455  0.00  0.00    -0.015 A 
HETATM   45  C   UNK N   1      24.322  12.239   9.318  0.00  0.00     0.013 A 
HETATM   46  C   UNK N   1      23.617  11.803  10.441  0.00  0.00     0.039 A 
HETATM   47  C   UNK N   1      22.343  12.312  10.715  0.00  0.00     0.093 A 
HETATM   48  C   UNK N   1      21.762  13.256   9.851  0.00  0.00     0.079 A 
HETATM   49  C   UNK N   1      22.467  13.686   8.714  0.00  0.00     0.003 A 
HETATM   50  N   UNK N   1      20.530  13.771  10.111  0.00  0.00    -0.321 N 
HETATM   51  C   UNK N   1      21.882  14.639   7.868  0.00  0.00     0.020 A 
HETATM   52  C   UNK N   1      20.627  15.151   8.151  0.00  0.00     0.075 A 
HETATM   53  C   UNK N   1      19.953  14.708   9.285  0.00  0.00     0.245 A 
HETATM   54  O   UNK N   1      18.854  15.155   9.544  0.00  0.00    -0.268 OA
HETATM   55  H   UNK N   1      20.038  13.465  10.908  0.00  0.00     0.169 HD
BRANCH  47  56
HETATM   56  O   UNK N   1      21.684  11.896  11.808  0.00  0.00    -0.358 OA
HETATM   57  H   UNK N   1      22.116  11.352  12.437  0.00  0.00     0.217 HD
ENDBRANCH  47  56
ENDBRANCH  43  44
BRANCH  43  58
HETATM   58  O   UNK N   1      25.550  14.566   7.737  0.00  0.00    -0.389 OA
HETATM   59  H   UNK N   1      26.509  14.542   7.879  0.00  0.00     0.210 HD
ENDBRANCH  43  58
ENDBRANCH  42  43
ENDBRANCH  40  42
ENDBRANCH  39  40
ENDBRANCH   6  39
TORSDOF 16
ENDMDL
MODEL 6
REMARK VINA RESULT:      -8.2      6.100     11.352
REMARK  16 active torsions:
REMARK  status: ('A' for Active; 'I' for Inactive)
REMARK    1  A    between atoms: O_2  and  C_3 
REMARK    2  A    between atoms: C_5  and  N_27 
REMARK    3  A    between atoms: C_8  and  C_9 
REMARK    4  A    between atoms: C_9  and  N_10 
REMARK    5  A    between atoms: N_10  and  C_11 
REMARK    6  A    between atoms: C_11  and  C_12 
REMARK    7  A    between atoms: C_12  and  C_13 
REMARK    8  A    between atoms: C_12  and  O_25 
REMARK    9  A    between atoms: C_16  and  O_24 
REMARK       I    between atoms: N_27  and  C_28 
REMARK   10  A    between atoms: C_28  and  C_30 
REMARK   11  A    between atoms: C_30  and  C_31 
REMARK   12  A    between atoms: C_31  and  N_32 
REMARK   13  A    between atoms: C_35  and  O_38 
REMARK   14  A    between atoms: O_38  and  C_39 
REMARK       I    between atoms: C_39  and  N_41 
REMARK   15  A    between atoms: N_41  and  C_42 
REMARK   16  A    between atoms: C_47  and  C_48 
ROOT
HETATM    1  C   UNK N   1      32.265  15.165   4.441  0.00  0.00     0.078 C 
HETATM    2  C   UNK N   1      32.709  14.747   5.676  0.00  0.00     0.068 C 
HETATM    3  C   UNK N   1      33.236  15.640   6.612  0.00  0.00     0.059 C 
HETATM    4  C   UNK N   1      33.483  16.957   6.250  0.00  0.00     0.061 C 
HETATM    5  C   UNK N   1      32.972  17.415   5.052  0.00  0.00     0.037 C 
HETATM    6  C   UNK N   1      32.303  16.550   4.162  0.00  0.00    -0.006 C 
HETATM    7 Cl   UNK N   1      34.154  18.114   7.394  0.00  0.00    -0.082 Cl
ENDROOT
BRANCH   3   8
HETATM    8  N   UNK N   1      33.066  15.392   7.986  0.00  0.00    -0.326 N 
HETATM    9  C   UNK N   1      33.916  14.619   8.706  0.00  0.00     0.223 C 
HETATM   10  O   UNK N   1      33.458  13.925   9.590  0.00  0.00    -0.273 OA
HETATM   11  H   UNK N   1      32.296  15.798   8.445  0.00  0.00     0.169 HD
BRANCH   9  12
HETATM   12  C   UNK N   1      35.412  14.601   8.469  0.00  0.00     0.122 C 
BRANCH  12  13
HETATM   13  C   UNK N   1      35.874  13.180   8.112  0.00  0.00     0.126 C 
BRANCH  13  14
HETATM   14  N   UNK N   1      36.586  12.637   9.256  0.00  0.00    -0.412 N 
HETATM   15  C   UNK N   1      36.006  11.505   9.961  0.00  0.00     0.119 C 
HETATM   16  C   UNK N   1      36.758  11.319  11.297  0.00  0.00     0.052 C 
HETATM   17  C   UNK N   1      37.622  12.561  11.658  0.00  0.00     0.136 C 
HETATM   18  C   UNK N   1      38.655  12.767  10.530  0.00  0.00     0.052 C 
HETATM   19  C   UNK N   1      38.036  12.552   9.132  0.00  0.00     0.119 C 
BRANCH  17  20
HETATM   20  O   UNK N   1      36.832  13.701  11.767  0.00  0.00    -0.298 OA
BRANCH  20  21
HETATM   21  C   UNK N   1      36.374  14.188  12.948  0.00  0.00     0.365 C 
HETATM   22  O   UNK N   1      35.313  14.790  12.995  0.00  0.00    -0.238 OA
HETATM   23  N   UNK N   1      37.086  13.937  14.066  0.00  0.00    -0.302 N 
HETATM   24  H   UNK N   1      37.999  13.599  13.919  0.00  0.00     0.171 HD
BRANCH  23  25
HETATM   25  C   UNK N   1      36.705  14.092  15.414  0.00  0.00     0.048 A 
HETATM   26  C   UNK N   1      37.054  15.245  16.132  0.00  0.00     0.030 A 
HETATM   27  C   UNK N   1      36.574  15.441  17.426  0.00  0.00     0.002 A 
HETATM   28  C   UNK N   1      35.735  14.491  18.007  0.00  0.00     0.001 A 
HETATM   29  C   UNK N   1      35.385  13.336  17.303  0.00  0.00     0.014 A 
HETATM   30  C   UNK N   1      35.860  13.114  16.000  0.00  0.00     0.001 A 
BRANCH  30  31
HETATM   31  C   UNK N   1      35.462  11.856  15.275  0.00  0.00    -0.024 A 
HETATM   32  C   UNK N   1      36.362  10.783  15.180  0.00  0.00     0.012 A 
HETATM   33  C   UNK N   1      36.013   9.617  14.489  0.00  0.00     0.001 A 
HETATM   34  C   UNK N   1      34.760   9.507  13.881  0.00  0.00     0.000 A 
HETATM   35  C   UNK N   1      33.854  10.562  13.962  0.00  0.00     0.001 A 
HETATM   36  C   UNK N   1      34.204  11.723  14.652  0.00  0.00     0.012 A 
ENDBRANCH  30  31
ENDBRANCH  23  25
ENDBRANCH  20  21
ENDBRANCH  17  20
ENDBRANCH  13  14
ENDBRANCH  12  13
ENDBRANCH   9  12
ENDBRANCH   3   8
BRANCH   1  37
HETATM   37  O   UNK N   1      31.734  14.216   3.625  0.00  0.00    -0.355 OA
HETATM   38  C   UNK N   1      32.409  13.481   2.682  0.00  0.00     0.210 C 
ENDBRANCH   1  37
BRANCH   6  39
HETATM   39  C   UNK N   1      31.598  17.131   2.966  0.00  0.00     0.155 C 
BRANCH  39  40
HETATM   40  N   UNK N   1      30.296  16.517   2.703  0.00  0.00    -0.415 N 
HETATM   41  H   UNK N   1      30.136  15.733   2.070  0.00  0.00     0.153 HD
BRANCH  40  42
HETATM   42  C   UNK N   1      29.259  17.195   3.485  0.00  0.00     0.150 C 
BRANCH  42  43
HETATM   43  C   UNK N   1      28.654  16.266   4.542  0.00  0.00     0.169 C 
BRANCH  43  44
HETATM   44  C   UNK N   1      28.770  16.947   5.854  0.00  0.00    -0.015 A 
HETATM   45  C   UNK N   1      29.644  16.434   6.816  0.00  0.00     0.013 A 
HETATM   46  C   UNK N   1      29.825  17.106   8.026  0.00  0.00     0.039 A 
HETATM   47  C   UNK N   1      29.142  18.301   8.277  0.00  0.00     0.093 A 
HETATM   48  C   UNK N   1      28.261  18.823   7.315  0.00  0.00     0.079 A 
HETATM   49  C   UNK N   1      28.070  18.140   6.102  0.00  0.00     0.003 A 
HETATM   50  N   UNK N   1      27.600  19.992   7.538  0.00  0.00    -0.321 N 
HETATM   51  C   UNK N   1      27.198  18.679   5.145  0.00  0.00     0.020 A 
HETATM   52  C   UNK N   1      26.535  19.869   5.392  0.00  0.00     0.075 A 
HETATM   53  C   UNK N   1      26.746  20.525   6.601  0.00  0.00     0.245 A 
HETATM   54  O   UNK N   1      26.173  21.573   6.824  0.00  0.00    -0.268 OA
HETATM   55  H   UNK N   1      27.735  20.466   8.390  0.00  0.00     0.169 HD
BRANCH  47  56
HETATM   56  O   UNK N   1      29.340  18.946   9.438  0.00  0.00    -0.358 OA
HETATM   57  H   UNK N   1      28.650  18.994  10.070  0.00  0.00     0.217 HD
ENDBRANCH  47  56
ENDBRANCH  43  44
BRANCH  43  58
HETATM   58  O   UNK N   1      27.327  15.970   4.230  0.00  0.00    -0.389 OA
HETATM   59  H   UNK N   1      26.830  15.603   3.483  0.00  0.00     0.210 HD
ENDBRANCH  43  58
ENDBRANCH  42  43
ENDBRANCH  40  42
ENDBRANCH  39  40
ENDBRANCH   6  39
TORSDOF 16
ENDMDL
MODEL 7
REMARK VINA RESULT:      -8.2      4.175     11.283
REMARK  16 active torsions:
REMARK  status: ('A' for Active; 'I' for Inactive)
REMARK    1  A    between atoms: O_2  and  C_3 
REMARK    2  A    between atoms: C_5  and  N_27 
REMARK    3  A    between atoms: C_8  and  C_9 
REMARK    4  A    between atoms: C_9  and  N_10 
REMARK    5  A    between atoms: N_10  and  C_11 
REMARK    6  A    between atoms: C_11  and  C_12 
REMARK    7  A    between atoms: C_12  and  C_13 
REMARK    8  A    between atoms: C_12  and  O_25 
REMARK    9  A    between atoms: C_16  and  O_24 
REMARK       I    between atoms: N_27  and  C_28 
REMARK   10  A    between atoms: C_28  and  C_30 
REMARK   11  A    between atoms: C_30  and  C_31 
REMARK   12  A    between atoms: C_31  and  N_32 
REMARK   13  A    between atoms: C_35  and  O_38 
REMARK   14  A    between atoms: O_38  and  C_39 
REMARK       I    between atoms: C_39  and  N_41 
REMARK   15  A    between atoms: N_41  and  C_42 
REMARK   16  A    between atoms: C_47  and  C_48 
ROOT
HETATM    1  C   UNK N   1      27.093  16.656   5.960  0.00  0.00     0.078 C 
HETATM    2  C   UNK N   1      27.968  17.183   6.883  0.00  0.00     0.068 C 
HETATM    3  C   UNK N   1      28.106  18.561   7.066  0.00  0.00     0.059 C 
HETATM    4  C   UNK N   1      27.481  19.442   6.194  0.00  0.00     0.061 C 
HETATM    5  C   UNK N   1      26.539  18.940   5.318  0.00  0.00     0.037 C 
HETATM    6  C   UNK N   1      26.283  17.556   5.231  0.00  0.00    -0.006 C 
HETATM    7 Cl   UNK N   1      27.634  21.185   6.382  0.00  0.00    -0.082 Cl
ENDROOT
BRANCH   3   8
HETATM    8  N   UNK N   1      28.430  19.067   8.338  0.00  0.00    -0.326 N 
HETATM    9  C   UNK N   1      29.501  18.638   9.050  0.00  0.00     0.223 C 
HETATM   10  O   UNK N   1      29.399  18.564  10.258  0.00  0.00    -0.273 OA
HETATM   11  H   UNK N   1      27.855  19.764   8.727  0.00  0.00     0.169 HD
BRANCH   9  12
HETATM   12  C   UNK N   1      30.822  18.269   8.408  0.00  0.00     0.122 C 
BRANCH  12  13
HETATM   13  C   UNK N   1      31.138  16.787   8.663  0.00  0.00     0.126 C 
BRANCH  13  14
HETATM   14  N   UNK N   1      32.570  16.599   8.503  0.00  0.00    -0.412 N 
HETATM   15  C   UNK N   1      33.054  15.297   8.073  0.00  0.00     0.119 C 
HETATM   16  C   UNK N   1      34.583  15.247   8.283  0.00  0.00     0.052 C 
HETATM   17  C   UNK N   1      35.085  16.401   9.196  0.00  0.00     0.136 C 
HETATM   18  C   UNK N   1      34.720  17.739   8.520  0.00  0.00     0.052 C 
HETATM   19  C   UNK N   1      33.303  17.709   7.906  0.00  0.00     0.119 C 
BRANCH  17  20
HETATM   20  O   UNK N   1      34.480  16.342  10.448  0.00  0.00    -0.298 OA
BRANCH  20  21
HETATM   21  C   UNK N   1      34.716  15.359  11.353  0.00  0.00     0.365 C 
HETATM   22  O   UNK N   1      33.833  14.570  11.648  0.00  0.00    -0.238 OA
HETATM   23  N   UNK N   1      35.959  15.241  11.864  0.00  0.00    -0.302 N 
HETATM   24  H   UNK N   1      36.555  16.009  11.706  0.00  0.00     0.171 HD
BRANCH  23  25
HETATM   25  C   UNK N   1      36.521  14.174  12.592  0.00  0.00     0.048 A 
HETATM   26  C   UNK N   1      36.359  14.089  13.983  0.00  0.00     0.030 A 
HETATM   27  C   UNK N   1      36.819  12.971  14.678  0.00  0.00     0.002 A 
HETATM   28  C   UNK N   1      37.433  11.927  13.987  0.00  0.00     0.001 A 
HETATM   29  C   UNK N   1      37.603  12.004  12.602  0.00  0.00     0.014 A 
HETATM   30  C   UNK N   1      37.154  13.122  11.881  0.00  0.00     0.001 A 
BRANCH  30  31
HETATM   31  C   UNK N   1      37.358  13.168  10.390  0.00  0.00    -0.024 A 
HETATM   32  C   UNK N   1      36.529  12.416   9.543  0.00  0.00     0.012 A 
HETATM   33  C   UNK N   1      36.724  12.431   8.157  0.00  0.00     0.001 A 
HETATM   34  C   UNK N   1      37.752  13.194   7.597  0.00  0.00     0.000 A 
HETATM   35  C   UNK N   1      38.587  13.945   8.423  0.00  0.00     0.001 A 
HETATM   36  C   UNK N   1      38.390  13.928   9.803  0.00  0.00     0.012 A 
ENDBRANCH  30  31
ENDBRANCH  23  25
ENDBRANCH  20  21
ENDBRANCH  17  20
ENDBRANCH  13  14
ENDBRANCH  12  13
ENDBRANCH   9  12
ENDBRANCH   3   8
BRANCH   1  37
HETATM   37  O   UNK N   1      27.011  15.301   5.894  0.00  0.00    -0.355 OA
HETATM   38  C   UNK N   1      27.879  14.461   5.241  0.00  0.00     0.210 C 
ENDBRANCH   1  37
BRANCH   6  39
HETATM   39  C   UNK N   1      25.118  17.077   4.407  0.00  0.00     0.155 C 
BRANCH  39  40
HETATM   40  N   UNK N   1      24.550  15.815   4.883  0.00  0.00    -0.415 N 
HETATM   41  H   UNK N   1      25.026  14.913   4.859  0.00  0.00     0.153 HD
BRANCH  40  42
HETATM   42  C   UNK N   1      23.197  16.040   5.398  0.00  0.00     0.150 C 
BRANCH  42  43
HETATM   43  C   UNK N   1      22.693  17.446   5.059  0.00  0.00     0.169 C 
BRANCH  43  44
HETATM   44  C   UNK N   1      21.785  17.326   3.893  0.00  0.00    -0.015 A 
HETATM   45  C   UNK N   1      21.124  16.116   3.662  0.00  0.00     0.013 A 
HETATM   46  C   UNK N   1      20.206  16.009   2.617  0.00  0.00     0.039 A 
HETATM   47  C   UNK N   1      19.934  17.114   1.802  0.00  0.00     0.093 A 
HETATM   48  C   UNK N   1      20.595  18.333   2.027  0.00  0.00     0.079 A 
HETATM   49  C   UNK N   1      21.528  18.437   3.073  0.00  0.00     0.003 A 
HETATM   50  N   UNK N   1      20.331  19.422   1.254  0.00  0.00    -0.321 N 
HETATM   51  C   UNK N   1      22.170  19.664   3.295  0.00  0.00     0.020 A 
HETATM   52  C   UNK N   1      21.886  20.759   2.497  0.00  0.00     0.075 A 
HETATM   53  C   UNK N   1      20.956  20.627   1.470  0.00  0.00     0.245 A 
HETATM   54  O   UNK N   1      20.697  21.583   0.767  0.00  0.00    -0.268 OA
HETATM   55  H   UNK N   1      19.677  19.344   0.520  0.00  0.00     0.169 HD
BRANCH  47  56
HETATM   56  O   UNK N   1      19.035  17.001   0.812  0.00  0.00    -0.358 OA
HETATM   57  H   UNK N   1      19.321  16.811  -0.061  0.00  0.00     0.217 HD
ENDBRANCH  47  56
ENDBRANCH  43  44
BRANCH  43  58
HETATM   58  O   UNK N   1      22.048  18.012   6.159  0.00  0.00    -0.389 OA
HETATM   59  H   UNK N   1      21.423  18.733   6.332  0.00  0.00     0.210 HD
ENDBRANCH  43  58
ENDBRANCH  42  43
ENDBRANCH  40  42
ENDBRANCH  39  40
ENDBRANCH   6  39
TORSDOF 16
ENDMDL
MODEL 8
REMARK VINA RESULT:      -8.1      3.004      5.152
REMARK  16 active torsions:
REMARK  status: ('A' for Active; 'I' for Inactive)
REMARK    1  A    between atoms: O_2  and  C_3 
REMARK    2  A    between atoms: C_5  and  N_27 
REMARK    3  A    between atoms: C_8  and  C_9 
REMARK    4  A    between atoms: C_9  and  N_10 
REMARK    5  A    between atoms: N_10  and  C_11 
REMARK    6  A    between atoms: C_11  and  C_12 
REMARK    7  A    between atoms: C_12  and  C_13 
REMARK    8  A    between atoms: C_12  and  O_25 
REMARK    9  A    between atoms: C_16  and  O_24 
REMARK       I    between atoms: N_27  and  C_28 
REMARK   10  A    between atoms: C_28  and  C_30 
REMARK   11  A    between atoms: C_30  and  C_31 
REMARK   12  A    between atoms: C_31  and  N_32 
REMARK   13  A    between atoms: C_35  and  O_38 
REMARK   14  A    between atoms: O_38  and  C_39 
REMARK       I    between atoms: C_39  and  N_41 
REMARK   15  A    between atoms: N_41  and  C_42 
REMARK   16  A    between atoms: C_47  and  C_48 
ROOT
HETATM    1  C   UNK N   1      21.924  17.988   4.566  0.00  0.00     0.078 C 
HETATM    2  C   UNK N   1      20.742  17.778   3.892  0.00  0.00     0.068 C 
HETATM    3  C   UNK N   1      20.398  18.517   2.758  0.00  0.00     0.059 C 
HETATM    4  C   UNK N   1      21.169  19.607   2.380  0.00  0.00     0.061 C 
HETATM    5  C   UNK N   1      22.396  19.784   2.989  0.00  0.00     0.037 C 
HETATM    6  C   UNK N   1      22.820  18.946   4.040  0.00  0.00    -0.006 C 
HETATM    7 Cl   UNK N   1      20.768  20.571   0.964  0.00  0.00    -0.082 Cl
ENDROOT
BRANCH   3   8
HETATM    8  N   UNK N   1      19.621  17.922   1.746  0.00  0.00    -0.326 N 
HETATM    9  C   UNK N   1      20.073  16.905   0.972  0.00  0.00     0.223 C 
HETATM   10  O   UNK N   1      19.730  16.869  -0.192  0.00  0.00    -0.273 OA
HETATM   11  H   UNK N   1      18.709  18.260   1.594  0.00  0.00     0.169 HD
BRANCH   9  12
HETATM   12  C   UNK N   1      20.967  15.803   1.502  0.00  0.00     0.122 C 
BRANCH  12  13
HETATM   13  C   UNK N   1      20.561  14.453   0.890  0.00  0.00     0.126 C 
BRANCH  13  14
HETATM   14  N   UNK N   1      20.248  13.543   1.977  0.00  0.00    -0.412 N 
HETATM   15  C   UNK N   1      18.930  13.618   2.587  0.00  0.00     0.119 C 
HETATM   16  C   UNK N   1      18.946  12.799   3.896  0.00  0.00     0.052 C 
HETATM   17  C   UNK N   1      20.392  12.458   4.354  0.00  0.00     0.136 C 
HETATM   18  C   UNK N   1      21.064  11.628   3.239  0.00  0.00     0.052 C 
HETATM   19  C   UNK N   1      20.734  12.175   1.833  0.00  0.00     0.119 C 
BRANCH  17  20
HETATM   20  O   UNK N   1      21.132  13.617   4.568  0.00  0.00    -0.298 OA
BRANCH  20  21
HETATM   21  C   UNK N   1      22.372  13.628   5.119  0.00  0.00     0.365 C 
HETATM   22  O   UNK N   1      22.714  12.738   5.880  0.00  0.00    -0.238 OA
HETATM   23  N   UNK N   1      23.227  14.607   4.757  0.00  0.00    -0.302 N 
HETATM   24  H   UNK N   1      22.822  15.367   4.280  0.00  0.00     0.171 HD
BRANCH  23  25
HETATM   25  C   UNK N   1      24.618  14.692   4.967  0.00  0.00     0.048 A 
HETATM   26  C   UNK N   1      25.133  15.210   6.164  0.00  0.00     0.030 A 
HETATM   27  C   UNK N   1      26.505  15.183   6.410  0.00  0.00     0.002 A 
HETATM   28  C   UNK N   1      27.370  14.629   5.467  0.00  0.00     0.001 A 
HETATM   29  C   UNK N   1      26.867  14.114   4.269  0.00  0.00     0.014 A 
HETATM   30  C   UNK N   1      25.489  14.135   3.997  0.00  0.00     0.001 A 
BRANCH  30  31
HETATM   31  C   UNK N   1      24.988  13.572   2.693  0.00  0.00    -0.024 A 
HETATM   32  C   UNK N   1      24.570  14.436   1.668  0.00  0.00     0.012 A 
HETATM   33  C   UNK N   1      24.080  13.925   0.460  0.00  0.00     0.001 A 
HETATM   34  C   UNK N   1      23.998  12.545   0.260  0.00  0.00     0.000 A 
HETATM   35  C   UNK N   1      24.405  11.672   1.267  0.00  0.00     0.001 A 
HETATM   36  C   UNK N   1      24.894  12.183   2.469  0.00  0.00     0.012 A 
ENDBRANCH  30  31
ENDBRANCH  23  25
ENDBRANCH  20  21
ENDBRANCH  17  20
ENDBRANCH  13  14
ENDBRANCH  12  13
ENDBRANCH   9  12
ENDBRANCH   3   8
BRANCH   1  37
HETATM   37  O   UNK N   1      22.175  17.184   5.633  0.00  0.00    -0.355 OA
HETATM   38  C   UNK N   1      21.393  17.047   6.753  0.00  0.00     0.210 C 
ENDBRANCH   1  37
BRANCH   6  39
HETATM   39  C   UNK N   1      24.237  19.056   4.538  0.00  0.00     0.155 C 
BRANCH  39  40
HETATM   40  N   UNK N   1      25.238  18.856   3.489  0.00  0.00    -0.415 N 
HETATM   41  H   UNK N   1      25.166  19.212   2.535  0.00  0.00     0.153 HD
BRANCH  40  42
HETATM   42  C   UNK N   1      26.358  18.069   4.013  0.00  0.00     0.150 C 
BRANCH  42  43
HETATM   43  C   UNK N   1      27.453  18.968   4.596  0.00  0.00     0.169 C 
BRANCH  43  44
HETATM   44  C   UNK N   1      28.535  18.087   5.097  0.00  0.00    -0.015 A 
HETATM   45  C   UNK N   1      29.357  17.424   4.181  0.00  0.00     0.013 A 
HETATM   46  C   UNK N   1      30.429  16.654   4.634  0.00  0.00     0.039 A 
HETATM   47  C   UNK N   1      30.693  16.551   6.004  0.00  0.00     0.093 A 
HETATM   48  C   UNK N   1      29.871  17.214   6.931  0.00  0.00     0.079 A 
HETATM   49  C   UNK N   1      28.784  17.980   6.475  0.00  0.00     0.003 A 
HETATM   50  N   UNK N   1      30.123  17.136   8.266  0.00  0.00    -0.321 N 
HETATM   51  C   UNK N   1      27.980  18.647   7.411  0.00  0.00     0.020 A 
HETATM   52  C   UNK N   1      28.255  18.555   8.764  0.00  0.00     0.075 A 
HETATM   53  C   UNK N   1      29.338  17.791   9.186  0.00  0.00     0.245 A 
HETATM   54  O   UNK N   1      29.590  17.707  10.372  0.00  0.00    -0.268 OA
HETATM   55  H   UNK N   1      30.885  16.596   8.582  0.00  0.00     0.169 HD
BRANCH  47  56
HETATM   56  O   UNK N   1      31.739  15.821   6.424  0.00  0.00    -0.358 OA
HETATM   57  H   UNK N   1      32.100  15.158   5.870  0.00  0.00     0.217 HD
ENDBRANCH  47  56
ENDBRANCH  43  44
BRANCH  43  58
HETATM   58  O   UNK N   1      27.919  19.859   3.629  0.00  0.00    -0.389 OA
HETATM   59  H   UNK N   1      27.591  20.636   3.152  0.00  0.00     0.210 HD
ENDBRANCH  43  58
ENDBRANCH  42  43
ENDBRANCH  40  42
ENDBRANCH  39  40
ENDBRANCH   6  39
TORSDOF 16
ENDMDL
MODEL 9
REMARK VINA RESULT:      -8.1      5.605     11.637
REMARK  16 active torsions:
REMARK  status: ('A' for Active; 'I' for Inactive)
REMARK    1  A    between atoms: O_2  and  C_3 
REMARK    2  A    between atoms: C_5  and  N_27 
REMARK    3  A    between atoms: C_8  and  C_9 
REMARK    4  A    between atoms: C_9  and  N_10 
REMARK    5  A    between atoms: N_10  and  C_11 
REMARK    6  A    between atoms: C_11  and  C_12 
REMARK    7  A    between atoms: C_12  and  C_13 
REMARK    8  A    between atoms: C_12  and  O_25 
REMARK    9  A    between atoms: C_16  and  O_24 
REMARK       I    between atoms: N_27  and  C_28 
REMARK   10  A    between atoms: C_28  and  C_30 
REMARK   11  A    between atoms: C_30  and  C_31 
REMARK   12  A    between atoms: C_31  and  N_32 
REMARK   13  A    between atoms: C_35  and  O_38 
REMARK   14  A    between atoms: O_38  and  C_39 
REMARK       I    between atoms: C_39  and  N_41 
REMARK   15  A    between atoms: N_41  and  C_42 
REMARK   16  A    between atoms: C_47  and  C_48 
ROOT
HETATM    1  C   UNK N   1      29.232  17.169   7.329  0.00  0.00     0.078 C 
HETATM    2  C   UNK N   1      30.604  17.274   7.269  0.00  0.00     0.068 C 
HETATM    3  C   UNK N   1      31.360  16.542   6.350  0.00  0.00     0.059 C 
HETATM    4  C   UNK N   1      30.756  15.556   5.583  0.00  0.00     0.061 C 
HETATM    5  C   UNK N   1      29.376  15.492   5.568  0.00  0.00     0.037 C 
HETATM    6  C   UNK N   1      28.594  16.333   6.384  0.00  0.00    -0.006 C 
HETATM    7 Cl   UNK N   1      31.671  14.605   4.420  0.00  0.00    -0.082 Cl
ENDROOT
BRANCH   3   8
HETATM    8  N   UNK N   1      32.554  17.084   5.840  0.00  0.00    -0.326 N 
HETATM    9  C   UNK N   1      33.760  16.895   6.430  0.00  0.00     0.223 C 
HETATM   10  O   UNK N   1      34.564  17.805   6.406  0.00  0.00    -0.273 OA
HETATM   11  H   UNK N   1      32.512  17.624   5.018  0.00  0.00     0.169 HD
BRANCH   9  12
HETATM   12  C   UNK N   1      34.155  15.595   7.098  0.00  0.00     0.122 C 
BRANCH  12  13
HETATM   13  C   UNK N   1      34.947  15.879   8.383  0.00  0.00     0.126 C 
BRANCH  13  14
HETATM   14  N   UNK N   1      35.419  14.611   8.911  0.00  0.00    -0.412 N 
HETATM   15  C   UNK N   1      34.440  13.661   9.414  0.00  0.00     0.119 C 
HETATM   16  C   UNK N   1      35.183  12.557  10.198  0.00  0.00     0.052 C 
HETATM   17  C   UNK N   1      36.649  12.960  10.526  0.00  0.00     0.136 C 
HETATM   18  C   UNK N   1      37.387  13.206   9.194  0.00  0.00     0.052 C 
HETATM   19  C   UNK N   1      36.511  13.975   8.181  0.00  0.00     0.119 C 
BRANCH  17  20
HETATM   20  O   UNK N   1      36.685  14.123  11.290  0.00  0.00    -0.298 OA
BRANCH  20  21
HETATM   21  C   UNK N   1      36.138  14.228  12.528  0.00  0.00     0.365 C 
HETATM   22  O   UNK N   1      35.011  14.673  12.666  0.00  0.00    -0.238 OA
HETATM   23  N   UNK N   1      36.846  13.773  13.582  0.00  0.00    -0.302 N 
HETATM   24  H   UNK N   1      37.798  13.590  13.406  0.00  0.00     0.171 HD
BRANCH  23  25
HETATM   25  C   UNK N   1      36.413  13.524  14.900  0.00  0.00     0.048 A 
HETATM   26  C   UNK N   1      36.618  14.470  15.915  0.00  0.00     0.030 A 
HETATM   27  C   UNK N   1      36.084  14.265  17.187  0.00  0.00     0.002 A 
HETATM   28  C   UNK N   1      35.333  13.120  17.449  0.00  0.00     0.001 A 
HETATM   29  C   UNK N   1      35.127  12.169  16.446  0.00  0.00     0.014 A 
HETATM   30  C   UNK N   1      35.659  12.350  15.159  0.00  0.00     0.001 A 
BRANCH  30  31
HETATM   31  C   UNK N   1      35.416  11.301  14.107  0.00  0.00    -0.024 A 
HETATM   32  C   UNK N   1      34.124  11.105  13.594  0.00  0.00     0.012 A 
HETATM   33  C   UNK N   1      33.880  10.117  12.633  0.00  0.00     0.001 A 
HETATM   34  C   UNK N   1      34.923   9.308  12.173  0.00  0.00     0.000 A 
HETATM   35  C   UNK N   1      36.211   9.485  12.673  0.00  0.00     0.001 A 
HETATM   36  C   UNK N   1      36.451  10.471  13.630  0.00  0.00     0.012 A 
ENDBRANCH  30  31
ENDBRANCH  23  25
ENDBRANCH  20  21
ENDBRANCH  17  20
ENDBRANCH  13  14
ENDBRANCH  12  13
ENDBRANCH   9  12
ENDBRANCH   3   8
BRANCH   1  37
HETATM   37  O   UNK N   1      28.594  17.957   8.233  0.00  0.00    -0.355 OA
HETATM   38  C   UNK N   1      28.056  17.554   9.431  0.00  0.00     0.210 C 
ENDBRANCH   1  37
BRANCH   6  39
HETATM   39  C   UNK N   1      27.101  16.360   6.191  0.00  0.00     0.155 C 
BRANCH  39  40
HETATM   40  N   UNK N   1      26.518  15.034   5.985  0.00  0.00    -0.415 N 
HETATM   41  H   UNK N   1      26.963  14.271   5.473  0.00  0.00     0.153 HD
BRANCH  40  42
HETATM   42  C   UNK N   1      25.201  14.964   6.624  0.00  0.00     0.150 C 
BRANCH  42  43
HETATM   43  C   UNK N   1      25.013  13.646   7.381  0.00  0.00     0.169 C 
BRANCH  43  44
HETATM   44  C   UNK N   1      23.681  13.690   8.031  0.00  0.00    -0.015 A 
HETATM   45  C   UNK N   1      22.589  14.196   7.320  0.00  0.00     0.013 A 
HETATM   46  C   UNK N   1      21.314  14.173   7.887  0.00  0.00     0.039 A 
HETATM   47  C   UNK N   1      21.120  13.633   9.163  0.00  0.00     0.093 A 
HETATM   48  C   UNK N   1      22.213  13.124   9.885  0.00  0.00     0.079 A 
HETATM   49  C   UNK N   1      23.499  13.158   9.318  0.00  0.00     0.003 A 
HETATM   50  N   UNK N   1      22.040  12.582  11.122  0.00  0.00    -0.321 N 
HETATM   51  C   UNK N   1      24.578  12.634  10.044  0.00  0.00     0.020 A 
HETATM   52  C   UNK N   1      24.380  12.087  11.300  0.00  0.00     0.075 A 
HETATM   53  C   UNK N   1      23.095  12.065  11.835  0.00  0.00     0.245 A 
HETATM   54  O   UNK N   1      22.910  11.583  12.934  0.00  0.00    -0.268 OA
HETATM   55  H   UNK N   1      21.137  12.562  11.516  0.00  0.00     0.169 HD
BRANCH  47  56
HETATM   56  O   UNK N   1      19.886  13.602   9.689  0.00  0.00    -0.358 OA
HETATM   57  H   UNK N   1      19.176  13.238   9.197  0.00  0.00     0.217 HD
ENDBRANCH  47  56
ENDBRANCH  43  44
BRANCH  43  58
HETATM   58  O   UNK N   1      25.125  12.562   6.510  0.00  0.00    -0.389 OA
HETATM   59  H   UNK N   1      25.776  11.874   6.300  0.00  0.00     0.210 HD
ENDBRANCH  43  58
ENDBRANCH  42  43
ENDBRANCH  40  42
ENDBRANCH  39  40
ENDBRANCH   6  39
TORSDOF 16
ENDMDL
