MODEL 1
REMARK VINA RESULT:      -7.1      0.000      0.000
REMARK  14 active torsions:
REMARK  status: ('A' for Active; 'I' for Inactive)
REMARK    1  A    between atoms: C_6  and  N_7 
REMARK    2  A    between atoms: C_13  and  C_37 
REMARK    3  A    between atoms: C_17  and  C_32 
REMARK    4  A    between atoms: C_21  and  C_25 
REMARK       I    between atoms: C_25  and  N_27 
REMARK    5  A    between atoms: N_27  and  C_28 
REMARK    6  A    between atoms: C_28  and  C_29 
REMARK    7  A    between atoms: C_29  and  O_31 
REMARK    8  A    between atoms: C_32  and  C_33 
REMARK    9  A    between atoms: C_33  and  C_34 
REMARK   10  A    between atoms: C_34  and  C_35 
REMARK   11  A    between atoms: C_35  and  N_36 
REMARK   12  A    between atoms: C_37  and  C_38 
REMARK   13  A    between atoms: C_38  and  C_39 
REMARK   14  A    between atoms: C_39  and  O_41 
ROOT
HETATM    1  C   UNK N   1      36.660  12.523  15.783  0.00  0.00     0.039 A 
HETATM    2  C   UNK N   1      36.352  11.520  14.850  0.00  0.00     0.040 A 
HETATM    3  C   UNK N   1      36.037  11.866  13.526  0.00  0.00     0.084 A 
HETATM    4  C   UNK N   1      36.034  13.232  13.150  0.00  0.00     0.067 A 
HETATM    5  C   UNK N   1      36.339  14.215  14.087  0.00  0.00     0.056 A 
HETATM    6  C   UNK N   1      36.655  13.877  15.400  0.00  0.00     0.104 A 
HETATM    7  C   UNK N   1      35.598  13.632  11.801  0.00  0.00     0.255 C 
HETATM    8  O   UNK N   1      35.335  12.756  10.998  0.00  0.00    -0.268 OA
HETATM    9  N   UNK N   1      35.399  14.949  11.485  0.00  0.00    -0.344 N 
HETATM   10  C   UNK N   1      34.693  15.399  10.286  0.00  0.00     0.177 C 
HETATM   11  C   UNK N   1      34.770  14.436   9.144  0.00  0.00     0.241 C 
HETATM   12  O   UNK N   1      35.832  14.248   8.568  0.00  0.00    -0.271 OA
HETATM   13  N   UNK N   1      33.734  13.576   8.991  0.00  0.00    -0.346 N 
HETATM   14  C   UNK N   1      33.914  12.275   8.401  0.00  0.00     0.176 C 
HETATM   15  C   UNK N   1      33.296  11.237   9.308  0.00  0.00     0.241 C 
HETATM   16  O   UNK N   1      32.082  11.201   9.451  0.00  0.00    -0.271 OA
HETATM   17  N   UNK N   1      34.096  10.371   9.994  0.00  0.00    -0.346 N 
HETATM   18  C   UNK N   1      33.553   9.321  10.837  0.00  0.00     0.178 C 
HETATM   19  C   UNK N   1      33.790   9.558  12.352  0.00  0.00     0.061 C 
HETATM   20  C   UNK N   1      35.239   9.658  12.846  0.00  0.00     0.178 C 
HETATM   21  O   UNK N   1      35.694  10.929  12.599  0.00  0.00    -0.350 OA
HETATM   22  H   UNK N   1      35.750  15.632  12.101  0.00  0.00     0.163 HD
HETATM   23  H   UNK N   1      32.837  13.848   9.290  0.00  0.00     0.163 HD
HETATM   24  H   UNK N   1      35.073  10.461   9.915  0.00  0.00     0.163 HD
ENDROOT
BRANCH  18  25
HETATM   25  C   UNK N   1      33.983   7.955  10.338  0.00  0.00     0.240 C 
HETATM   26  O   UNK N   1      35.166   7.654  10.335  0.00  0.00    -0.271 OA
HETATM   27  N   UNK N   1      33.071   7.037   9.923  0.00  0.00    -0.349 N 
HETATM   28  H   UNK N   1      33.392   6.158   9.618  0.00  0.00     0.163 HD
BRANCH  27  29
HETATM   29  C   UNK N   1      31.650   7.295   9.911  0.00  0.00     0.232 C 
BRANCH  29  30
HETATM   30  C   UNK N   1      31.222   7.751   8.557  0.00  0.00     0.158 C 
HETATM   31  O   UNK N   1      31.386   7.029   7.589  0.00  0.00    -0.649 OA
BRANCH  30  32
HETATM   32  O   UNK N   1      30.676   8.971   8.398  0.00  0.00    -0.775 OA
HETATM   33  H   UNK N   1      31.118   9.696   8.003  0.00  0.00     0.167 HD
ENDBRANCH  30  32
ENDBRANCH  29  30
ENDBRANCH  27  29
ENDBRANCH  18  25
BRANCH  14  34
HETATM   34  C   UNK N   1      33.364  12.246   6.988  0.00  0.00     0.035 C 
BRANCH  34  35
HETATM   35  C   UNK N   1      34.543  12.273   6.028  0.00  0.00     0.004 C 
BRANCH  35  36
HETATM   36  C   UNK N   1      34.208  13.034   4.763  0.00  0.00     0.019 C 
BRANCH  36  37
HETATM   37  C   UNK N   1      35.165  14.189   4.569  0.00  0.00     0.111 C 
BRANCH  37  38
HETATM   38  N   UNK N   1      35.043  15.101   5.691  0.00  0.00    -0.430 N 
HETATM   39  H   UNK N   1      35.085  14.787   6.660  0.00  0.00     0.149 HD
HETATM   40  H   UNK N   1      34.909  16.094   5.502  0.00  0.00     0.149 HD
ENDBRANCH  37  38
ENDBRANCH  36  37
ENDBRANCH  35  36
ENDBRANCH  34  35
ENDBRANCH  14  34
BRANCH  10  41
HETATM   41  C   UNK N   1      34.918  16.866   9.957  0.00  0.00     0.045 C 
BRANCH  41  42
HETATM   42  C   UNK N   1      33.891  17.411   8.983  0.00  0.00     0.112 C 
BRANCH  42  43
HETATM   43  C   UNK N   1      34.588  18.284   7.997  0.00  0.00     0.139 C 
HETATM   44  O   UNK N   1      35.233  19.244   8.380  0.00  0.00    -0.650 OA
BRANCH  43  45
HETATM   45  O   UNK N   1      34.501  18.014   6.680  0.00  0.00    -0.776 OA
HETATM   46  H   UNK N   1      34.729  18.640   6.022  0.00  0.00     0.167 HD
ENDBRANCH  43  45
ENDBRANCH  42  43
ENDBRANCH  41  42
ENDBRANCH  10  41
BRANCH   6  47
HETATM   47  N   UNK N   1      36.936  14.909  16.338  0.00  0.00    -0.116 N 
HETATM   48  O   UNK N   1      37.795  15.708  16.121  0.00  0.00    -0.532 OA
HETATM   49  O   UNK N   1      36.268  14.968  17.472  0.00  0.00    -0.532 OA
ENDBRANCH   6  47
TORSDOF 14
ENDMDL
MODEL 2
REMARK VINA RESULT:      -6.9     16.536     21.070
REMARK  14 active torsions:
REMARK  status: ('A' for Active; 'I' for Inactive)
REMARK    1  A    between atoms: C_6  and  N_7 
REMARK    2  A    between atoms: C_13  and  C_37 
REMARK    3  A    between atoms: C_17  and  C_32 
REMARK    4  A    between atoms: C_21  and  C_25 
REMARK       I    between atoms: C_25  and  N_27 
REMARK    5  A    between atoms: N_27  and  C_28 
REMARK    6  A    between atoms: C_28  and  C_29 
REMARK    7  A    between atoms: C_29  and  O_31 
REMARK    8  A    between atoms: C_32  and  C_33 
REMARK    9  A    between atoms: C_33  and  C_34 
REMARK   10  A    between atoms: C_34  and  C_35 
REMARK   11  A    between atoms: C_35  and  N_36 
REMARK   12  A    between atoms: C_37  and  C_38 
REMARK   13  A    between atoms: C_38  and  C_39 
REMARK   14  A    between atoms: C_39  and  O_41 
ROOT
HETATM    1  C   UNK N   1      33.304  20.941  -2.909  0.00  0.00     0.039 A 
HETATM    2  C   UNK N   1      32.084  21.625  -2.797  0.00  0.00     0.040 A 
HETATM    3  C   UNK N   1      31.127  21.528  -3.820  0.00  0.00     0.084 A 
HETATM    4  C   UNK N   1      31.412  20.736  -4.960  0.00  0.00     0.067 A 
HETATM    5  C   UNK N   1      32.628  20.065  -5.058  0.00  0.00     0.056 A 
HETATM    6  C   UNK N   1      33.579  20.156  -4.045  0.00  0.00     0.104 A 
HETATM    7  C   UNK N   1      30.478  20.705  -6.098  0.00  0.00     0.255 C 
HETATM    8  O   UNK N   1      29.422  21.298  -5.991  0.00  0.00    -0.268 OA
HETATM    9  N   UNK N   1      30.826  20.110  -7.281  0.00  0.00    -0.344 N 
HETATM   10  C   UNK N   1      30.089  20.294  -8.531  0.00  0.00     0.177 C 
HETATM   11  C   UNK N   1      28.640  20.612  -8.335  0.00  0.00     0.241 C 
HETATM   12  O   UNK N   1      27.878  19.762  -7.897  0.00  0.00    -0.271 OA
HETATM   13  N   UNK N   1      28.287  21.919  -8.355  0.00  0.00    -0.346 N 
HETATM   14  C   UNK N   1      27.153  22.406  -7.612  0.00  0.00     0.176 C 
HETATM   15  C   UNK N   1      27.583  23.600  -6.793  0.00  0.00     0.241 C 
HETATM   16  O   UNK N   1      27.889  24.643  -7.354  0.00  0.00    -0.271 OA
HETATM   17  N   UNK N   1      27.666  23.499  -5.436  0.00  0.00    -0.346 N 
HETATM   18  C   UNK N   1      28.022  24.631  -4.597  0.00  0.00     0.178 C 
HETATM   19  C   UNK N   1      29.421  24.498  -3.939  0.00  0.00     0.061 C 
HETATM   20  C   UNK N   1      29.666  23.307  -3.003  0.00  0.00     0.178 C 
HETATM   21  O   UNK N   1      29.947  22.205  -3.770  0.00  0.00    -0.350 OA
HETATM   22  H   UNK N   1      31.617  19.525  -7.291  0.00  0.00     0.163 HD
HETATM   23  H   UNK N   1      28.816  22.552  -8.892  0.00  0.00     0.163 HD
HETATM   24  H   UNK N   1      27.480  22.631  -5.010  0.00  0.00     0.163 HD
ENDROOT
BRANCH  18  25
HETATM   25  C   UNK N   1      26.900  24.958  -3.631  0.00  0.00     0.240 C 
HETATM   26  O   UNK N   1      26.479  24.096  -2.875  0.00  0.00    -0.271 OA
HETATM   27  N   UNK N   1      26.370  26.208  -3.562  0.00  0.00    -0.349 N 
HETATM   28  H   UNK N   1      25.651  26.380  -2.913  0.00  0.00     0.163 HD
BRANCH  27  29
HETATM   29  C   UNK N   1      26.819  27.295  -4.401  0.00  0.00     0.232 C 
BRANCH  29  30
HETATM   30  C   UNK N   1      26.070  27.290  -5.691  0.00  0.00     0.158 C 
HETATM   31  O   UNK N   1      24.852  27.236  -5.691  0.00  0.00    -0.649 OA
BRANCH  30  32
HETATM   32  O   UNK N   1      26.739  27.323  -6.858  0.00  0.00    -0.775 OA
HETATM   33  H   UNK N   1      26.697  28.035  -7.467  0.00  0.00     0.167 HD
ENDBRANCH  30  32
ENDBRANCH  29  30
ENDBRANCH  27  29
ENDBRANCH  18  25
BRANCH  14  34
HETATM   34  C   UNK N   1      25.988  22.697  -8.538  0.00  0.00     0.035 C 
BRANCH  34  35
HETATM   35  C   UNK N   1      26.525  22.751  -9.959  0.00  0.00     0.004 C 
BRANCH  35  36
HETATM   36  C   UNK N   1      26.148  24.047 -10.643  0.00  0.00     0.019 C 
BRANCH  36  37
HETATM   37  C   UNK N   1      25.313  24.911  -9.723  0.00  0.00     0.111 C 
BRANCH  37  38
HETATM   38  N   UNK N   1      26.043  26.128  -9.423  0.00  0.00    -0.430 N 
HETATM   39  H   UNK N   1      26.047  26.551  -8.495  0.00  0.00     0.149 HD
HETATM   40  H   UNK N   1      26.572  26.578 -10.169  0.00  0.00     0.149 HD
ENDBRANCH  37  38
ENDBRANCH  36  37
ENDBRANCH  35  36
ENDBRANCH  34  35
ENDBRANCH  14  34
BRANCH  10  41
HETATM   41  C   UNK N   1      30.424  19.265  -9.597  0.00  0.00     0.045 C 
BRANCH  41  42
HETATM   42  C   UNK N   1      30.568  17.864  -9.033  0.00  0.00     0.112 C 
BRANCH  42  43
HETATM   43  C   UNK N   1      31.875  17.304  -9.481  0.00  0.00     0.139 C 
HETATM   44  O   UNK N   1      32.700  18.028 -10.011  0.00  0.00    -0.650 OA
BRANCH  43  45
HETATM   45  O   UNK N   1      32.142  15.996  -9.305  0.00  0.00    -0.776 OA
HETATM   46  H   UNK N   1      32.468  15.451  -9.995  0.00  0.00     0.167 HD
ENDBRANCH  43  45
ENDBRANCH  42  43
ENDBRANCH  41  42
ENDBRANCH  10  41
BRANCH   6  47
HETATM   47  N   UNK N   1      34.821  19.479  -4.191  0.00  0.00    -0.116 N 
HETATM   48  O   UNK N   1      35.826  20.091  -4.387  0.00  0.00    -0.532 OA
HETATM   49  O   UNK N   1      34.864  18.163  -4.143  0.00  0.00    -0.532 OA
ENDBRANCH   6  47
TORSDOF 14
ENDMDL
MODEL 3
REMARK VINA RESULT:      -6.8     12.465     15.400
REMARK  14 active torsions:
REMARK  status: ('A' for Active; 'I' for Inactive)
REMARK    1  A    between atoms: C_6  and  N_7 
REMARK    2  A    between atoms: C_13  and  C_37 
REMARK    3  A    between atoms: C_17  and  C_32 
REMARK    4  A    between atoms: C_21  and  C_25 
REMARK       I    between atoms: C_25  and  N_27 
REMARK    5  A    between atoms: N_27  and  C_28 
REMARK    6  A    between atoms: C_28  and  C_29 
REMARK    7  A    between atoms: C_29  and  O_31 
REMARK    8  A    between atoms: C_32  and  C_33 
REMARK    9  A    between atoms: C_33  and  C_34 
REMARK   10  A    between atoms: C_34  and  C_35 
REMARK   11  A    between atoms: C_35  and  N_36 
REMARK   12  A    between atoms: C_37  and  C_38 
REMARK   13  A    between atoms: C_38  and  C_39 
REMARK   14  A    between atoms: C_39  and  O_41 
ROOT
HETATM    1  C   UNK N   1      20.512  14.154   9.902  0.00  0.00     0.039 A 
HETATM    2  C   UNK N   1      20.360  14.772   8.651  0.00  0.00     0.040 A 
HETATM    3  C   UNK N   1      20.878  14.161   7.498  0.00  0.00     0.084 A 
HETATM    4  C   UNK N   1      21.552  12.920   7.616  0.00  0.00     0.067 A 
HETATM    5  C   UNK N   1      21.697  12.321   8.864  0.00  0.00     0.056 A 
HETATM    6  C   UNK N   1      21.182  12.921  10.010  0.00  0.00     0.104 A 
HETATM    7  C   UNK N   1      22.203  12.312   6.444  0.00  0.00     0.255 C 
HETATM    8  O   UNK N   1      22.064  12.853   5.363  0.00  0.00    -0.268 OA
HETATM    9  N   UNK N   1      23.023  11.223   6.577  0.00  0.00    -0.344 N 
HETATM   10  C   UNK N   1      23.925  10.752   5.528  0.00  0.00     0.177 C 
HETATM   11  C   UNK N   1      23.467  11.086   4.143  0.00  0.00     0.241 C 
HETATM   12  O   UNK N   1      22.478  10.539   3.674  0.00  0.00    -0.271 OA
HETATM   13  N   UNK N   1      23.976  12.206   3.577  0.00  0.00    -0.346 N 
HETATM   14  C   UNK N   1      23.234  12.965   2.603  0.00  0.00     0.176 C 
HETATM   15  C   UNK N   1      23.230  14.418   3.015  0.00  0.00     0.241 C 
HETATM   16  O   UNK N   1      24.271  15.060   2.985  0.00  0.00    -0.271 OA
HETATM   17  N   UNK N   1      22.077  14.997   3.455  0.00  0.00    -0.346 N 
HETATM   18  C   UNK N   1      22.005  16.403   3.812  0.00  0.00     0.178 C 
HETATM   19  C   UNK N   1      21.822  16.646   5.334  0.00  0.00     0.061 C 
HETATM   20  C   UNK N   1      20.568  16.073   6.008  0.00  0.00     0.178 C 
HETATM   21  O   UNK N   1      20.787  14.744   6.270  0.00  0.00    -0.350 OA
HETATM   22  H   UNK N   1      23.003  10.729   7.428  0.00  0.00     0.163 HD
HETATM   23  H   UNK N   1      24.876  12.509   3.837  0.00  0.00     0.163 HD
HETATM   24  H   UNK N   1      21.266  14.443   3.535  0.00  0.00     0.163 HD
ENDROOT
BRANCH  18  25
HETATM   25  C   UNK N   1      21.008  17.131   2.933  0.00  0.00     0.240 C 
HETATM   26  O   UNK N   1      20.134  16.502   2.357  0.00  0.00    -0.271 OA
HETATM   27  N   UNK N   1      21.042  18.483   2.797  0.00  0.00    -0.349 N 
HETATM   28  H   UNK N   1      20.370  18.916   2.225  0.00  0.00     0.163 HD
BRANCH  27  29
HETATM   29  C   UNK N   1      22.025  19.310   3.456  0.00  0.00     0.232 C 
BRANCH  29  30
HETATM   30  C   UNK N   1      22.329  20.510   2.622  0.00  0.00     0.158 C 
HETATM   31  O   UNK N   1      23.251  21.247   2.925  0.00  0.00    -0.649 OA
BRANCH  30  32
HETATM   32  O   UNK N   1      21.570  20.793   1.548  0.00  0.00    -0.775 OA
HETATM   33  H   UNK N   1      20.733  21.214   1.593  0.00  0.00     0.167 HD
ENDBRANCH  30  32
ENDBRANCH  29  30
ENDBRANCH  27  29
ENDBRANCH  18  25
BRANCH  14  34
HETATM   34  C   UNK N   1      23.786  12.734   1.209  0.00  0.00     0.035 C 
BRANCH  34  35
HETATM   35  C   UNK N   1      22.629  12.838   0.228  0.00  0.00     0.004 C 
BRANCH  35  36
HETATM   36  C   UNK N   1      21.328  12.389   0.858  0.00  0.00     0.019 C 
BRANCH  36  37
HETATM   37  C   UNK N   1      20.224  13.379   0.559  0.00  0.00     0.111 C 
BRANCH  37  38
HETATM   38  N   UNK N   1      19.394  13.534   1.738  0.00  0.00    -0.430 N 
HETATM   39  H   UNK N   1      19.196  12.763   2.375  0.00  0.00     0.149 HD
HETATM   40  H   UNK N   1      18.993  14.451   1.937  0.00  0.00     0.149 HD
ENDBRANCH  37  38
ENDBRANCH  36  37
ENDBRANCH  35  36
ENDBRANCH  34  35
ENDBRANCH  14  34
BRANCH  10  41
HETATM   41  C   UNK N   1      24.445   9.342   5.753  0.00  0.00     0.045 C 
BRANCH  41  42
HETATM   42  C   UNK N   1      23.779   8.655   6.930  0.00  0.00     0.112 C 
BRANCH  42  43
HETATM   43  C   UNK N   1      22.804   7.656   6.407  0.00  0.00     0.139 C 
HETATM   44  O   UNK N   1      22.624   6.609   7.004  0.00  0.00    -0.650 OA
BRANCH  43  45
HETATM   45  O   UNK N   1      22.124   7.910   5.272  0.00  0.00    -0.776 OA
HETATM   46  H   UNK N   1      22.478   8.432   4.580  0.00  0.00     0.167 HD
ENDBRANCH  43  45
ENDBRANCH  42  43
ENDBRANCH  41  42
ENDBRANCH  10  41
BRANCH   6  47
HETATM   47  N   UNK N   1      21.371  12.293  11.272  0.00  0.00    -0.116 N 
HETATM   48  O   UNK N   1      20.434  11.949  11.925  0.00  0.00    -0.532 OA
HETATM   49  O   UNK N   1      22.589  12.117  11.744  0.00  0.00    -0.532 OA
ENDBRANCH   6  47
TORSDOF 14
ENDMDL
MODEL 4
REMARK VINA RESULT:      -6.8     11.346     13.849
REMARK  14 active torsions:
REMARK  status: ('A' for Active; 'I' for Inactive)
REMARK    1  A    between atoms: C_6  and  N_7 
REMARK    2  A    between atoms: C_13  and  C_37 
REMARK    3  A    between atoms: C_17  and  C_32 
REMARK    4  A    between atoms: C_21  and  C_25 
REMARK       I    between atoms: C_25  and  N_27 
REMARK    5  A    between atoms: N_27  and  C_28 
REMARK    6  A    between atoms: C_28  and  C_29 
REMARK    7  A    between atoms: C_29  and  O_31 
REMARK    8  A    between atoms: C_32  and  C_33 
REMARK    9  A    between atoms: C_33  and  C_34 
REMARK   10  A    between atoms: C_34  and  C_35 
REMARK   11  A    between atoms: C_35  and  N_36 
REMARK   12  A    between atoms: C_37  and  C_38 
REMARK   13  A    between atoms: C_38  and  C_39 
REMARK   14  A    between atoms: C_39  and  O_41 
ROOT
HETATM    1  C   UNK N   1      27.417  17.668   5.999  0.00  0.00     0.039 A 
HETATM    2  C   UNK N   1      26.859  16.444   6.398  0.00  0.00     0.040 A 
HETATM    3  C   UNK N   1      25.619  16.035   5.881  0.00  0.00     0.084 A 
HETATM    4  C   UNK N   1      24.944  16.873   4.960  0.00  0.00     0.067 A 
HETATM    5  C   UNK N   1      25.508  18.087   4.577  0.00  0.00     0.056 A 
HETATM    6  C   UNK N   1      26.739  18.495   5.083  0.00  0.00     0.104 A 
HETATM    7  C   UNK N   1      23.593  16.526   4.489  0.00  0.00     0.255 C 
HETATM    8  O   UNK N   1      23.118  15.461   4.837  0.00  0.00    -0.268 OA
HETATM    9  N   UNK N   1      22.848  17.415   3.760  0.00  0.00    -0.344 N 
HETATM   10  C   UNK N   1      21.414  17.266   3.516  0.00  0.00     0.177 C 
HETATM   11  C   UNK N   1      20.945  15.845   3.531  0.00  0.00     0.241 C 
HETATM   12  O   UNK N   1      21.276  15.078   2.637  0.00  0.00    -0.271 OA
HETATM   13  N   UNK N   1      20.428  15.377   4.692  0.00  0.00    -0.346 N 
HETATM   14  C   UNK N   1      20.515  13.984   5.050  0.00  0.00     0.176 C 
HETATM   15  C   UNK N   1      21.069  13.874   6.451  0.00  0.00     0.241 C 
HETATM   16  O   UNK N   1      20.401  14.261   7.400  0.00  0.00    -0.271 OA
HETATM   17  N   UNK N   1      22.325  13.382   6.649  0.00  0.00    -0.346 N 
HETATM   18  C   UNK N   1      22.885  13.205   7.977  0.00  0.00     0.178 C 
HETATM   19  C   UNK N   1      24.036  14.194   8.301  0.00  0.00     0.061 C 
HETATM   20  C   UNK N   1      25.286  14.159   7.411  0.00  0.00     0.178 C 
HETATM   21  O   UNK N   1      25.024  14.873   6.269  0.00  0.00    -0.350 OA
HETATM   22  H   UNK N   1      23.304  18.200   3.380  0.00  0.00     0.163 HD
HETATM   23  H   UNK N   1      19.981  16.003   5.305  0.00  0.00     0.163 HD
HETATM   24  H   UNK N   1      22.871  13.139   5.866  0.00  0.00     0.163 HD
ENDROOT
BRANCH  18  25
HETATM   25  C   UNK N   1      23.217  11.747   8.231  0.00  0.00     0.240 C 
HETATM   26  O   UNK N   1      23.656  11.057   7.324  0.00  0.00    -0.271 OA
HETATM   27  N   UNK N   1      23.069  11.194   9.464  0.00  0.00    -0.349 N 
HETATM   28  H   UNK N   1      23.307  10.248   9.587  0.00  0.00     0.163 HD
BRANCH  27  29
HETATM   29  C   UNK N   1      22.578  11.937  10.601  0.00  0.00     0.232 C 
BRANCH  29  30
HETATM   30  C   UNK N   1      23.628  12.012  11.657  0.00  0.00     0.158 C 
HETATM   31  O   UNK N   1      23.327  11.871  12.830  0.00  0.00    -0.649 OA
BRANCH  30  32
HETATM   32  O   UNK N   1      24.907  12.259  11.320  0.00  0.00    -0.775 OA
HETATM   33  H   UNK N   1      25.625  12.224  11.922  0.00  0.00     0.167 HD
ENDBRANCH  30  32
ENDBRANCH  29  30
ENDBRANCH  27  29
ENDBRANCH  18  25
BRANCH  14  34
HETATM   34  C   UNK N   1      19.173  13.300   4.876  0.00  0.00     0.035 C 
BRANCH  34  35
HETATM   35  C   UNK N   1      19.434  11.867   4.441  0.00  0.00     0.004 C 
BRANCH  35  36
HETATM   36  C   UNK N   1      20.111  11.816   3.088  0.00  0.00     0.019 C 
BRANCH  36  37
HETATM   37  C   UNK N   1      19.157  12.254   1.999  0.00  0.00     0.111 C 
BRANCH  37  38
HETATM   38  N   UNK N   1      19.895  12.986   0.987  0.00  0.00    -0.430 N 
HETATM   39  H   UNK N   1      20.863  12.771   0.751  0.00  0.00     0.149 HD
HETATM   40  H   UNK N   1      19.426  13.745   0.493  0.00  0.00     0.149 HD
ENDBRANCH  37  38
ENDBRANCH  36  37
ENDBRANCH  35  36
ENDBRANCH  34  35
ENDBRANCH  14  34
BRANCH  10  41
HETATM   41  C   UNK N   1      20.889  18.147   2.395  0.00  0.00     0.045 C 
BRANCH  41  42
HETATM   42  C   UNK N   1      20.465  19.520   2.880  0.00  0.00     0.112 C 
BRANCH  42  43
HETATM   43  C   UNK N   1      21.232  20.548   2.121  0.00  0.00     0.139 C 
HETATM   44  O   UNK N   1      21.389  20.429   0.919  0.00  0.00    -0.650 OA
BRANCH  43  45
HETATM   45  O   UNK N   1      21.756  21.608   2.766  0.00  0.00    -0.776 OA
HETATM   46  H   UNK N   1      21.736  22.475   2.410  0.00  0.00     0.167 HD
ENDBRANCH  43  45
ENDBRANCH  42  43
ENDBRANCH  41  42
ENDBRANCH  10  41
BRANCH   6  47
HETATM   47  N   UNK N   1      27.273  19.753   4.690  0.00  0.00    -0.116 N 
HETATM   48  O   UNK N   1      27.844  20.442   5.479  0.00  0.00    -0.532 OA
HETATM   49  O   UNK N   1      27.109  20.181   3.454  0.00  0.00    -0.532 OA
ENDBRANCH   6  47
TORSDOF 14
ENDMDL
MODEL 5
REMARK VINA RESULT:      -6.8      8.911     12.225
REMARK  14 active torsions:
REMARK  status: ('A' for Active; 'I' for Inactive)
REMARK    1  A    between atoms: C_6  and  N_7 
REMARK    2  A    between atoms: C_13  and  C_37 
REMARK    3  A    between atoms: C_17  and  C_32 
REMARK    4  A    between atoms: C_21  and  C_25 
REMARK       I    between atoms: C_25  and  N_27 
REMARK    5  A    between atoms: N_27  and  C_28 
REMARK    6  A    between atoms: C_28  and  C_29 
REMARK    7  A    between atoms: C_29  and  O_31 
REMARK    8  A    between atoms: C_32  and  C_33 
REMARK    9  A    between atoms: C_33  and  C_34 
REMARK   10  A    between atoms: C_34  and  C_35 
REMARK   11  A    between atoms: C_35  and  N_36 
REMARK   12  A    between atoms: C_37  and  C_38 
REMARK   13  A    between atoms: C_38  and  C_39 
REMARK   14  A    between atoms: C_39  and  O_41 
ROOT
HETATM    1  C   UNK N   1      21.881  17.079   3.315  0.00  0.00     0.039 A 
HETATM    2  C   UNK N   1      22.833  16.048   3.352  0.00  0.00     0.040 A 
HETATM    3  C   UNK N   1      24.124  16.301   3.844  0.00  0.00     0.084 A 
HETATM    4  C   UNK N   1      24.448  17.604   4.297  0.00  0.00     0.067 A 
HETATM    5  C   UNK N   1      23.494  18.617   4.250  0.00  0.00     0.056 A 
HETATM    6  C   UNK N   1      22.212  18.370   3.767  0.00  0.00     0.104 A 
HETATM    7  C   UNK N   1      25.823  17.928   4.711  0.00  0.00     0.255 C 
HETATM    8  O   UNK N   1      26.641  17.028   4.744  0.00  0.00    -0.268 OA
HETATM    9  N   UNK N   1      26.200  19.221   4.959  0.00  0.00    -0.344 N 
HETATM   10  C   UNK N   1      27.592  19.652   5.081  0.00  0.00     0.177 C 
HETATM   11  C   UNK N   1      28.518  18.576   5.555  0.00  0.00     0.241 C 
HETATM   12  O   UNK N   1      28.443  18.162   6.704  0.00  0.00    -0.271 OA
HETATM   13  N   UNK N   1      29.194  17.882   4.609  0.00  0.00    -0.346 N 
HETATM   14  C   UNK N   1      29.596  16.514   4.819  0.00  0.00     0.176 C 
HETATM   15  C   UNK N   1      29.151  15.688   3.636  0.00  0.00     0.241 C 
HETATM   16  O   UNK N   1      29.673  15.861   2.543  0.00  0.00    -0.271 OA
HETATM   17  N   UNK N   1      28.144  14.781   3.781  0.00  0.00    -0.346 N 
HETATM   18  C   UNK N   1      27.714  13.922   2.691  0.00  0.00     0.178 C 
HETATM   19  C   UNK N   1      26.304  14.274   2.145  0.00  0.00     0.061 C 
HETATM   20  C   UNK N   1      25.117  14.191   3.115  0.00  0.00     0.178 C 
HETATM   21  O   UNK N   1      25.089  15.341   3.863  0.00  0.00    -0.350 OA
HETATM   22  H   UNK N   1      25.494  19.899   5.061  0.00  0.00     0.163 HD
HETATM   23  H   UNK N   1      29.417  18.322   3.758  0.00  0.00     0.163 HD
HETATM   24  H   UNK N   1      27.692  14.705   4.653  0.00  0.00     0.163 HD
ENDROOT
BRANCH  18  25
HETATM   25  C   UNK N   1      27.905  12.462   3.049  0.00  0.00     0.240 C 
HETATM   26  O   UNK N   1      27.411  12.017   4.073  0.00  0.00    -0.271 OA
HETATM   27  N   UNK N   1      28.591  11.619   2.231  0.00  0.00    -0.349 N 
HETATM   28  H   UNK N   1      28.682  10.676   2.496  0.00  0.00     0.163 HD
BRANCH  27  29
HETATM   29  C   UNK N   1      29.191  12.049   0.991  0.00  0.00     0.232 C 
BRANCH  29  30
HETATM   30  C   UNK N   1      30.668  12.182   1.154  0.00  0.00     0.158 C 
HETATM   31  O   UNK N   1      31.420  11.739   0.303  0.00  0.00    -0.649 OA
BRANCH  30  32
HETATM   32  O   UNK N   1      31.174  12.772   2.252  0.00  0.00    -0.775 OA
HETATM   33  H   UNK N   1      31.606  12.310   2.944  0.00  0.00     0.167 HD
ENDBRANCH  30  32
ENDBRANCH  29  30
ENDBRANCH  27  29
ENDBRANCH  18  25
BRANCH  14  34
HETATM   34  C   UNK N   1      31.086  16.428   5.090  0.00  0.00     0.035 C 
BRANCH  34  35
HETATM   35  C   UNK N   1      31.749  17.628   4.432  0.00  0.00     0.004 C 
BRANCH  35  36
HETATM   36  C   UNK N   1      32.908  17.206   3.555  0.00  0.00     0.019 C 
BRANCH  36  37
HETATM   37  C   UNK N   1      33.220  15.739   3.756  0.00  0.00     0.111 C 
BRANCH  37  38
HETATM   38  N   UNK N   1      32.906  15.017   2.538  0.00  0.00    -0.430 N 
HETATM   39  H   UNK N   1      32.635  14.034   2.538  0.00  0.00     0.149 HD
HETATM   40  H   UNK N   1      32.960  15.511   1.648  0.00  0.00     0.149 HD
ENDBRANCH  37  38
ENDBRANCH  36  37
ENDBRANCH  35  36
ENDBRANCH  34  35
ENDBRANCH  14  34
BRANCH  10  41
HETATM   41  C   UNK N   1      27.756  21.022   5.718  0.00  0.00     0.045 C 
BRANCH  41  42
HETATM   42  C   UNK N   1      26.435  21.626   6.153  0.00  0.00     0.112 C 
BRANCH  42  43
HETATM   43  C   UNK N   1      26.224  21.317   7.595  0.00  0.00     0.139 C 
HETATM   44  O   UNK N   1      25.592  22.086   8.298  0.00  0.00    -0.650 OA
BRANCH  43  45
HETATM   45  O   UNK N   1      26.736  20.189   8.123  0.00  0.00    -0.776 OA
HETATM   46  H   UNK N   1      27.611  20.140   8.454  0.00  0.00     0.167 HD
ENDBRANCH  43  45
ENDBRANCH  42  43
ENDBRANCH  41  42
ENDBRANCH  10  41
BRANCH   6  47
HETATM   47  N   UNK N   1      21.271  19.435   3.709  0.00  0.00    -0.116 N 
HETATM   48  O   UNK N   1      20.685  19.780   4.690  0.00  0.00    -0.532 OA
HETATM   49  O   UNK N   1      21.014  20.026   2.560  0.00  0.00    -0.532 OA
ENDBRANCH   6  47
TORSDOF 14
ENDMDL
MODEL 6
REMARK VINA RESULT:      -6.8      4.335      8.387
REMARK  14 active torsions:
REMARK  status: ('A' for Active; 'I' for Inactive)
REMARK    1  A    between atoms: C_6  and  N_7 
REMARK    2  A    between atoms: C_13  and  C_37 
REMARK    3  A    between atoms: C_17  and  C_32 
REMARK    4  A    between atoms: C_21  and  C_25 
REMARK       I    between atoms: C_25  and  N_27 
REMARK    5  A    between atoms: N_27  and  C_28 
REMARK    6  A    between atoms: C_28  and  C_29 
REMARK    7  A    between atoms: C_29  and  O_31 
REMARK    8  A    between atoms: C_32  and  C_33 
REMARK    9  A    between atoms: C_33  and  C_34 
REMARK   10  A    between atoms: C_34  and  C_35 
REMARK   11  A    between atoms: C_35  and  N_36 
REMARK   12  A    between atoms: C_37  and  C_38 
REMARK   13  A    between atoms: C_38  and  C_39 
REMARK   14  A    between atoms: C_39  and  O_41 
ROOT
HETATM    1  C   UNK N   1      37.379  12.399   5.062  0.00  0.00     0.039 A 
HETATM    2  C   UNK N   1      36.405  13.236   4.494  0.00  0.00     0.040 A 
HETATM    3  C   UNK N   1      35.732  14.174   5.295  0.00  0.00     0.084 A 
HETATM    4  C   UNK N   1      36.049  14.261   6.673  0.00  0.00     0.067 A 
HETATM    5  C   UNK N   1      37.016  13.422   7.221  0.00  0.00     0.056 A 
HETATM    6  C   UNK N   1      37.688  12.493   6.432  0.00  0.00     0.104 A 
HETATM    7  C   UNK N   1      35.283  15.154   7.558  0.00  0.00     0.255 C 
HETATM    8  O   UNK N   1      34.443  15.877   7.058  0.00  0.00    -0.268 OA
HETATM    9  N   UNK N   1      35.440  15.104   8.918  0.00  0.00    -0.344 N 
HETATM   10  C   UNK N   1      34.520  15.733   9.865  0.00  0.00     0.177 C 
HETATM   11  C   UNK N   1      33.804  16.924   9.311  0.00  0.00     0.241 C 
HETATM   12  O   UNK N   1      34.419  17.955   9.073  0.00  0.00    -0.271 OA
HETATM   13  N   UNK N   1      32.567  16.719   8.800  0.00  0.00    -0.346 N 
HETATM   14  C   UNK N   1      32.041  17.541   7.740  0.00  0.00     0.176 C 
HETATM   15  C   UNK N   1      31.517  16.646   6.642  0.00  0.00     0.241 C 
HETATM   16  O   UNK N   1      30.526  15.958   6.842  0.00  0.00    -0.271 OA
HETATM   17  N   UNK N   1      32.173  16.579   5.449  0.00  0.00    -0.346 N 
HETATM   18  C   UNK N   1      31.682  15.776   4.342  0.00  0.00     0.178 C 
HETATM   19  C   UNK N   1      32.563  14.535   4.039  0.00  0.00     0.061 C 
HETATM   20  C   UNK N   1      34.029  14.771   3.648  0.00  0.00     0.178 C 
HETATM   21  O   UNK N   1      34.754  14.978   4.794  0.00  0.00    -0.350 OA
HETATM   22  H   UNK N   1      36.216  14.618   9.278  0.00  0.00     0.163 HD
HETATM   23  H   UNK N   1      32.012  15.992   9.163  0.00  0.00     0.163 HD
HETATM   24  H   UNK N   1      33.006  17.090   5.333  0.00  0.00     0.163 HD
ENDROOT
BRANCH  18  25
HETATM   25  C   UNK N   1      31.385  16.647   3.137  0.00  0.00     0.240 C 
HETATM   26  O   UNK N   1      32.300  17.189   2.538  0.00  0.00    -0.271 OA
HETATM   27  N   UNK N   1      30.115  16.812   2.683  0.00  0.00    -0.349 N 
HETATM   28  H   UNK N   1      29.967  17.377   1.891  0.00  0.00     0.163 HD
BRANCH  27  29
HETATM   29  C   UNK N   1      28.972  16.193   3.312  0.00  0.00     0.232 C 
BRANCH  29  30
HETATM   30  C   UNK N   1      28.052  17.239   3.848  0.00  0.00     0.158 C 
HETATM   31  O   UNK N   1      28.471  18.084   4.619  0.00  0.00    -0.649 OA
BRANCH  30  32
HETATM   32  O   UNK N   1      26.753  17.237   3.498  0.00  0.00    -0.775 OA
HETATM   33  H   UNK N   1      26.442  17.049   2.634  0.00  0.00     0.167 HD
ENDBRANCH  30  32
ENDBRANCH  29  30
ENDBRANCH  27  29
ENDBRANCH  18  25
BRANCH  14  34
HETATM   34  C   UNK N   1      31.005  18.511   8.275  0.00  0.00     0.035 C 
BRANCH  34  35
HETATM   35  C   UNK N   1      30.289  17.834   9.433  0.00  0.00     0.004 C 
BRANCH  35  36
HETATM   36  C   UNK N   1      28.811  18.160   9.435  0.00  0.00     0.019 C 
BRANCH  36  37
HETATM   37  C   UNK N   1      28.344  18.516   8.041  0.00  0.00     0.111 C 
BRANCH  37  38
HETATM   38  N   UNK N   1      27.668  17.373   7.460  0.00  0.00    -0.430 N 
HETATM   39  H   UNK N   1      27.376  16.568   8.014  0.00  0.00     0.149 HD
HETATM   40  H   UNK N   1      27.477  17.374   6.458  0.00  0.00     0.149 HD
ENDBRANCH  37  38
ENDBRANCH  36  37
ENDBRANCH  35  36
ENDBRANCH  34  35
ENDBRANCH  14  34
BRANCH  10  41
HETATM   41  C   UNK N   1      35.084  15.868  11.270  0.00  0.00     0.045 C 
BRANCH  41  42
HETATM   42  C   UNK N   1      36.113  14.801  11.592  0.00  0.00     0.112 C 
BRANCH  42  43
HETATM   43  C   UNK N   1      35.914  14.360  13.002  0.00  0.00     0.139 C 
HETATM   44  O   UNK N   1      34.938  13.696  13.301  0.00  0.00    -0.650 OA
BRANCH  43  45
HETATM   45  O   UNK N   1      36.812  14.701  13.946  0.00  0.00    -0.776 OA
HETATM   46  H   UNK N   1      37.065  15.590  14.102  0.00  0.00     0.167 HD
ENDBRANCH  43  45
ENDBRANCH  42  43
ENDBRANCH  41  42
ENDBRANCH  10  41
BRANCH   6  47
HETATM   47  N   UNK N   1      38.650  11.634   7.031  0.00  0.00    -0.116 N 
HETATM   48  O   UNK N   1      39.618  11.291   6.424  0.00  0.00    -0.532 OA
HETATM   49  O   UNK N   1      38.460  11.183   8.254  0.00  0.00    -0.532 OA
ENDBRANCH   6  47
TORSDOF 14
ENDMDL
MODEL 7
REMARK VINA RESULT:      -6.5      7.939     12.264
REMARK  14 active torsions:
REMARK  status: ('A' for Active; 'I' for Inactive)
REMARK    1  A    between atoms: C_6  and  N_7 
REMARK    2  A    between atoms: C_13  and  C_37 
REMARK    3  A    between atoms: C_17  and  C_32 
REMARK    4  A    between atoms: C_21  and  C_25 
REMARK       I    between atoms: C_25  and  N_27 
REMARK    5  A    between atoms: N_27  and  C_28 
REMARK    6  A    between atoms: C_28  and  C_29 
REMARK    7  A    between atoms: C_29  and  O_31 
REMARK    8  A    between atoms: C_32  and  C_33 
REMARK    9  A    between atoms: C_33  and  C_34 
REMARK   10  A    between atoms: C_34  and  C_35 
REMARK   11  A    between atoms: C_35  and  N_36 
REMARK   12  A    between atoms: C_37  and  C_38 
REMARK   13  A    between atoms: C_38  and  C_39 
REMARK   14  A    between atoms: C_39  and  O_41 
ROOT
HETATM    1  C   UNK N   1      24.702  12.573   1.168  0.00  0.00     0.039 A 
HETATM    2  C   UNK N   1      25.939  12.387   1.804  0.00  0.00     0.040 A 
HETATM    3  C   UNK N   1      26.437  13.371   2.674  0.00  0.00     0.084 A 
HETATM    4  C   UNK N   1      25.678  14.546   2.896  0.00  0.00     0.067 A 
HETATM    5  C   UNK N   1      24.454  14.718   2.255  0.00  0.00     0.056 A 
HETATM    6  C   UNK N   1      23.954  13.744   1.395  0.00  0.00     0.104 A 
HETATM    7  C   UNK N   1      26.224  15.643   3.712  0.00  0.00     0.255 C 
HETATM    8  O   UNK N   1      27.296  15.472   4.262  0.00  0.00    -0.268 OA
HETATM    9  N   UNK N   1      25.595  16.858   3.773  0.00  0.00    -0.344 N 
HETATM   10  C   UNK N   1      26.218  18.069   4.308  0.00  0.00     0.177 C 
HETATM   11  C   UNK N   1      27.272  17.802   5.336  0.00  0.00     0.241 C 
HETATM   12  O   UNK N   1      26.963  17.358   6.433  0.00  0.00    -0.271 OA
HETATM   13  N   UNK N   1      28.556  17.766   4.908  0.00  0.00    -0.346 N 
HETATM   14  C   UNK N   1      29.550  16.959   5.569  0.00  0.00     0.176 C 
HETATM   15  C   UNK N   1      30.266  16.122   4.536  0.00  0.00     0.241 C 
HETATM   16  O   UNK N   1      30.994  16.663   3.714  0.00  0.00    -0.271 OA
HETATM   17  N   UNK N   1      30.069  14.774   4.497  0.00  0.00    -0.346 N 
HETATM   18  C   UNK N   1      30.773  13.916   3.559  0.00  0.00     0.178 C 
HETATM   19  C   UNK N   1      29.858  13.324   2.455  0.00  0.00     0.061 C 
HETATM   20  C   UNK N   1      28.684  12.437   2.893  0.00  0.00     0.178 C 
HETATM   21  O   UNK N   1      27.650  13.249   3.282  0.00  0.00    -0.350 OA
HETATM   22  H   UNK N   1      24.672  16.921   3.438  0.00  0.00     0.163 HD
HETATM   23  H   UNK N   1      28.818  18.304   4.127  0.00  0.00     0.163 HD
HETATM   24  H   UNK N   1      29.427  14.368   5.124  0.00  0.00     0.163 HD
ENDROOT
BRANCH  18  25
HETATM   25  C   UNK N   1      31.616  12.893   4.295  0.00  0.00     0.240 C 
HETATM   26  O   UNK N   1      31.080  11.930   4.821  0.00  0.00    -0.271 OA
HETATM   27  N   UNK N   1      32.969  13.006   4.355  0.00  0.00    -0.349 N 
HETATM   28  H   UNK N   1      33.479  12.314   4.833  0.00  0.00     0.163 HD
BRANCH  27  29
HETATM   29  C   UNK N   1      33.691  14.098   3.746  0.00  0.00     0.232 C 
BRANCH  29  30
HETATM   30  C   UNK N   1      34.243  15.000   4.799  0.00  0.00     0.158 C 
HETATM   31  O   UNK N   1      35.178  14.633   5.488  0.00  0.00    -0.649 OA
BRANCH  30  32
HETATM   32  O   UNK N   1      33.694  16.211   5.004  0.00  0.00    -0.775 OA
HETATM   33  H   UNK N   1      33.239  16.699   4.345  0.00  0.00     0.167 HD
ENDBRANCH  30  32
ENDBRANCH  29  30
ENDBRANCH  27  29
ENDBRANCH  18  25
BRANCH  14  34
HETATM   34  C   UNK N   1      30.481  17.825   6.396  0.00  0.00     0.035 C 
BRANCH  34  35
HETATM   35  C   UNK N   1      30.547  17.233   7.795  0.00  0.00     0.004 C 
BRANCH  35  36
HETATM   36  C   UNK N   1      30.121  18.240   8.841  0.00  0.00     0.019 C 
BRANCH  36  37
HETATM   37  C   UNK N   1      28.844  17.794   9.519  0.00  0.00     0.111 C 
BRANCH  37  38
HETATM   38  N   UNK N   1      27.731  18.555   8.985  0.00  0.00    -0.430 N 
HETATM   39  H   UNK N   1      26.849  18.662   9.485  0.00  0.00     0.149 HD
HETATM   40  H   UNK N   1      27.836  19.001   8.074  0.00  0.00     0.149 HD
ENDBRANCH  37  38
ENDBRANCH  36  37
ENDBRANCH  35  36
ENDBRANCH  34  35
ENDBRANCH  14  34
BRANCH  10  41
HETATM   41  C   UNK N   1      25.229  19.181   4.618  0.00  0.00     0.045 C 
BRANCH  41  42
HETATM   42  C   UNK N   1      24.076  19.229   3.634  0.00  0.00     0.112 C 
BRANCH  42  43
HETATM   43  C   UNK N   1      24.141  20.519   2.889  0.00  0.00     0.139 C 
HETATM   44  O   UNK N   1      23.207  21.299   2.939  0.00  0.00    -0.650 OA
BRANCH  43  45
HETATM   45  O   UNK N   1      25.231  20.819   2.158  0.00  0.00    -0.776 OA
HETATM   46  H   UNK N   1      25.673  21.641   2.228  0.00  0.00     0.167 HD
ENDBRANCH  43  45
ENDBRANCH  42  43
ENDBRANCH  41  42
ENDBRANCH  10  41
BRANCH   6  47
HETATM   47  N   UNK N   1      22.712  13.964   0.737  0.00  0.00    -0.116 N 
HETATM   48  O   UNK N   1      22.182  13.083   0.132  0.00  0.00    -0.532 OA
HETATM   49  O   UNK N   1      22.155  15.158   0.764  0.00  0.00    -0.532 OA
ENDBRANCH   6  47
TORSDOF 14
ENDMDL
MODEL 8
REMARK VINA RESULT:      -6.5     10.571     13.520
REMARK  14 active torsions:
REMARK  status: ('A' for Active; 'I' for Inactive)
REMARK    1  A    between atoms: C_6  and  N_7 
REMARK    2  A    between atoms: C_13  and  C_37 
REMARK    3  A    between atoms: C_17  and  C_32 
REMARK    4  A    between atoms: C_21  and  C_25 
REMARK       I    between atoms: C_25  and  N_27 
REMARK    5  A    between atoms: N_27  and  C_28 
REMARK    6  A    between atoms: C_28  and  C_29 
REMARK    7  A    between atoms: C_29  and  O_31 
REMARK    8  A    between atoms: C_32  and  C_33 
REMARK    9  A    between atoms: C_33  and  C_34 
REMARK   10  A    between atoms: C_34  and  C_35 
REMARK   11  A    between atoms: C_35  and  N_36 
REMARK   12  A    between atoms: C_37  and  C_38 
REMARK   13  A    between atoms: C_38  and  C_39 
REMARK   14  A    between atoms: C_39  and  O_41 
ROOT
HETATM    1  C   UNK N   1      29.441  13.260   2.126  0.00  0.00     0.039 A 
HETATM    2  C   UNK N   1      28.071  13.299   1.824  0.00  0.00     0.040 A 
HETATM    3  C   UNK N   1      27.303  14.418   2.186  0.00  0.00     0.084 A 
HETATM    4  C   UNK N   1      27.928  15.497   2.858  0.00  0.00     0.067 A 
HETATM    5  C   UNK N   1      29.287  15.443   3.154  0.00  0.00     0.056 A 
HETATM    6  C   UNK N   1      30.054  14.337   2.794  0.00  0.00     0.104 A 
HETATM    7  C   UNK N   1      27.129  16.632   3.349  0.00  0.00     0.255 C 
HETATM    8  O   UNK N   1      25.943  16.659   3.080  0.00  0.00    -0.268 OA
HETATM    9  N   UNK N   1      27.679  17.581   4.169  0.00  0.00    -0.344 N 
HETATM   10  C   UNK N   1      26.893  18.553   4.928  0.00  0.00     0.177 C 
HETATM   11  C   UNK N   1      25.576  18.885   4.301  0.00  0.00     0.241 C 
HETATM   12  O   UNK N   1      25.534  19.520   3.256  0.00  0.00    -0.271 OA
HETATM   13  N   UNK N   1      24.492  18.205   4.745  0.00  0.00    -0.346 N 
HETATM   14  C   UNK N   1      23.359  17.950   3.893  0.00  0.00     0.176 C 
HETATM   15  C   UNK N   1      23.023  16.479   3.954  0.00  0.00     0.241 C 
HETATM   16  O   UNK N   1      22.579  16.000   4.989  0.00  0.00    -0.271 OA
HETATM   17  N   UNK N   1      23.253  15.683   2.872  0.00  0.00    -0.346 N 
HETATM   18  C   UNK N   1      22.898  14.274   2.859  0.00  0.00     0.178 C 
HETATM   19  C   UNK N   1      24.127  13.326   2.872  0.00  0.00     0.061 C 
HETATM   20  C   UNK N   1      25.123  13.424   1.708  0.00  0.00     0.178 C 
HETATM   21  O   UNK N   1      25.964  14.481   1.946  0.00  0.00    -0.350 OA
HETATM   22  H   UNK N   1      28.659  17.610   4.253  0.00  0.00     0.163 HD
HETATM   23  H   UNK N   1      24.477  17.878   5.673  0.00  0.00     0.163 HD
HETATM   24  H   UNK N   1      23.673  16.075   2.072  0.00  0.00     0.163 HD
ENDROOT
BRANCH  18  25
HETATM   25  C   UNK N   1      21.889  13.983   1.764  0.00  0.00     0.240 C 
HETATM   26  O   UNK N   1      22.031  14.483   0.659  0.00  0.00    -0.271 OA
HETATM   27  N   UNK N   1      20.841  13.145   1.977  0.00  0.00    -0.349 N 
HETATM   28  H   UNK N   1      20.216  12.975   1.236  0.00  0.00     0.163 HD
BRANCH  27  29
HETATM   29  C   UNK N   1      20.604  12.493   3.243  0.00  0.00     0.232 C 
BRANCH  29  30
HETATM   30  C   UNK N   1      19.284  12.911   3.798  0.00  0.00     0.158 C 
HETATM   31  O   UNK N   1      18.811  13.993   3.498  0.00  0.00    -0.649 OA
BRANCH  30  32
HETATM   32  O   UNK N   1      18.625  12.104   4.650  0.00  0.00    -0.775 OA
HETATM   33  H   UNK N   1      17.710  12.177   4.839  0.00  0.00     0.167 HD
ENDBRANCH  30  32
ENDBRANCH  29  30
ENDBRANCH  27  29
ENDBRANCH  18  25
BRANCH  14  34
HETATM   34  C   UNK N   1      22.196  18.851   4.261  0.00  0.00     0.035 C 
BRANCH  34  35
HETATM   35  C   UNK N   1      21.142  18.719   3.174  0.00  0.00     0.004 C 
BRANCH  35  36
HETATM   36  C   UNK N   1      20.710  20.074   2.656  0.00  0.00     0.019 C 
BRANCH  36  37
HETATM   37  C   UNK N   1      21.030  20.206   1.183  0.00  0.00     0.111 C 
BRANCH  37  38
HETATM   38  N   UNK N   1      20.273  21.312   0.630  0.00  0.00    -0.430 N 
HETATM   39  H   UNK N   1      19.867  21.286  -0.305  0.00  0.00     0.149 HD
HETATM   40  H   UNK N   1      20.142  22.148   1.199  0.00  0.00     0.149 HD
ENDBRANCH  37  38
ENDBRANCH  36  37
ENDBRANCH  35  36
ENDBRANCH  34  35
ENDBRANCH  14  34
BRANCH  10  41
HETATM   41  C   UNK N   1      27.710  19.721   5.458  0.00  0.00     0.045 C 
BRANCH  41  42
HETATM   42  C   UNK N   1      27.490  19.962   6.939  0.00  0.00     0.112 C 
BRANCH  42  43
HETATM   43  C   UNK N   1      26.486  21.052   7.098  0.00  0.00     0.139 C 
HETATM   44  O   UNK N   1      26.295  21.843   6.191  0.00  0.00    -0.650 OA
BRANCH  43  45
HETATM   45  O   UNK N   1      25.793  21.166   8.248  0.00  0.00    -0.776 OA
HETATM   46  H   UNK N   1      24.974  20.733   8.387  0.00  0.00     0.167 HD
ENDBRANCH  43  45
ENDBRANCH  42  43
ENDBRANCH  41  42
ENDBRANCH  10  41
BRANCH   6  47
HETATM   47  N   UNK N   1      31.434  14.303   3.135  0.00  0.00    -0.116 N 
HETATM   48  O   UNK N   1      31.859  13.455   3.858  0.00  0.00    -0.532 OA
HETATM   49  O   UNK N   1      32.248  15.234   2.680  0.00  0.00    -0.532 OA
ENDBRANCH   6  47
TORSDOF 14
ENDMDL
MODEL 9
REMARK VINA RESULT:      -6.4      7.545     11.705
REMARK  14 active torsions:
REMARK  status: ('A' for Active; 'I' for Inactive)
REMARK    1  A    between atoms: C_6  and  N_7 
REMARK    2  A    between atoms: C_13  and  C_37 
REMARK    3  A    between atoms: C_17  and  C_32 
REMARK    4  A    between atoms: C_21  and  C_25 
REMARK       I    between atoms: C_25  and  N_27 
REMARK    5  A    between atoms: N_27  and  C_28 
REMARK    6  A    between atoms: C_28  and  C_29 
REMARK    7  A    between atoms: C_29  and  O_31 
REMARK    8  A    between atoms: C_32  and  C_33 
REMARK    9  A    between atoms: C_33  and  C_34 
REMARK   10  A    between atoms: C_34  and  C_35 
REMARK   11  A    between atoms: C_35  and  N_36 
REMARK   12  A    between atoms: C_37  and  C_38 
REMARK   13  A    between atoms: C_38  and  C_39 
REMARK   14  A    between atoms: C_39  and  O_41 
ROOT
HETATM    1  C   UNK N   1      24.478  13.112   1.635  0.00  0.00     0.039 A 
HETATM    2  C   UNK N   1      25.777  12.745   2.016  0.00  0.00     0.040 A 
HETATM    3  C   UNK N   1      26.573  13.639   2.751  0.00  0.00     0.084 A 
HETATM    4  C   UNK N   1      26.048  14.909   3.096  0.00  0.00     0.067 A 
HETATM    5  C   UNK N   1      24.758  15.260   2.707  0.00  0.00     0.056 A 
HETATM    6  C   UNK N   1      23.964  14.376   1.982  0.00  0.00     0.104 A 
HETATM    7  C   UNK N   1      26.896  15.909   3.766  0.00  0.00     0.255 C 
HETATM    8  O   UNK N   1      28.020  15.581   4.096  0.00  0.00    -0.268 OA
HETATM    9  N   UNK N   1      26.472  17.201   3.926  0.00  0.00    -0.344 N 
HETATM   10  C   UNK N   1      27.354  18.305   4.303  0.00  0.00     0.177 C 
HETATM   11  C   UNK N   1      28.542  17.880   5.107  0.00  0.00     0.241 C 
HETATM   12  O   UNK N   1      28.398  17.475   6.252  0.00  0.00    -0.271 OA
HETATM   13  N   UNK N   1      29.697  17.664   4.434  0.00  0.00    -0.346 N 
HETATM   14  C   UNK N   1      30.678  16.717   4.901  0.00  0.00     0.176 C 
HETATM   15  C   UNK N   1      31.048  15.796   3.763  0.00  0.00     0.241 C 
HETATM   16  O   UNK N   1      31.667  16.234   2.803  0.00  0.00    -0.271 OA
HETATM   17  N   UNK N   1      30.656  14.490   3.790  0.00  0.00    -0.346 N 
HETATM   18  C   UNK N   1      31.031  13.549   2.749  0.00  0.00     0.178 C 
HETATM   19  C   UNK N   1      29.840  13.104   1.859  0.00  0.00     0.061 C 
HETATM   20  C   UNK N   1      28.663  12.390   2.538  0.00  0.00     0.178 C 
HETATM   21  O   UNK N   1      27.853  13.339   3.109  0.00  0.00    -0.350 OA
HETATM   22  H   UNK N   1      25.519  17.398   3.779  0.00  0.00     0.163 HD
HETATM   23  H   UNK N   1      29.873  18.167   3.607  0.00  0.00     0.163 HD
HETATM   24  H   UNK N   1      30.102  14.174   4.540  0.00  0.00     0.163 HD
ENDROOT
BRANCH  18  25
HETATM   25  C   UNK N   1      31.849  12.409   3.324  0.00  0.00     0.240 C 
HETATM   26  O   UNK N   1      31.411  11.758   4.259  0.00  0.00    -0.271 OA
HETATM   27  N   UNK N   1      33.054  12.069   2.795  0.00  0.00    -0.349 N 
HETATM   28  H   UNK N   1      33.547  11.316   3.191  0.00  0.00     0.163 HD
BRANCH  27  29
HETATM   29  C   UNK N   1      33.642  12.768   1.676  0.00  0.00     0.232 C 
BRANCH  29  30
HETATM   30  C   UNK N   1      34.505  13.883   2.162  0.00  0.00     0.158 C 
HETATM   31  O   UNK N   1      35.494  13.642   2.834  0.00  0.00    -0.649 OA
BRANCH  30  32
HETATM   32  O   UNK N   1      34.182  15.158   1.880  0.00  0.00    -0.775 OA
HETATM   33  H   UNK N   1      33.311  15.448   1.688  0.00  0.00     0.167 HD
ENDBRANCH  30  32
ENDBRANCH  29  30
ENDBRANCH  27  29
ENDBRANCH  18  25
BRANCH  14  34
HETATM   34  C   UNK N   1      31.868  17.433   5.510  0.00  0.00     0.035 C 
BRANCH  34  35
HETATM   35  C   UNK N   1      32.147  16.803   6.865  0.00  0.00     0.004 C 
BRANCH  35  36
HETATM   36  C   UNK N   1      31.820  17.755   7.995  0.00  0.00     0.019 C 
BRANCH  36  37
HETATM   37  C   UNK N   1      30.631  17.253   8.785  0.00  0.00     0.111 C 
BRANCH  37  38
HETATM   38  N   UNK N   1      29.638  18.306   8.869  0.00  0.00    -0.430 N 
HETATM   39  H   UNK N   1      28.779  18.296   8.319  0.00  0.00     0.149 HD
HETATM   40  H   UNK N   1      29.805  19.087   9.503  0.00  0.00     0.149 HD
ENDBRANCH  37  38
ENDBRANCH  36  37
ENDBRANCH  35  36
ENDBRANCH  34  35
ENDBRANCH  14  34
BRANCH  10  41
HETATM   41  C   UNK N   1      26.615  19.544   4.781  0.00  0.00     0.045 C 
BRANCH  41  42
HETATM   42  C   UNK N   1      27.513  20.506   5.536  0.00  0.00     0.112 C 
BRANCH  42  43
HETATM   43  C   UNK N   1      26.948  20.711   6.900  0.00  0.00     0.139 C 
HETATM   44  O   UNK N   1      26.324  21.726   7.156  0.00  0.00    -0.650 OA
BRANCH  43  45
HETATM   45  O   UNK N   1      27.131  19.776   7.852  0.00  0.00    -0.776 OA
HETATM   46  H   UNK N   1      26.677  18.957   7.848  0.00  0.00     0.167 HD
ENDBRANCH  43  45
ENDBRANCH  42  43
ENDBRANCH  41  42
ENDBRANCH  10  41
BRANCH   6  47
HETATM   47  N   UNK N   1      22.661  14.778   1.579  0.00  0.00    -0.116 N 
HETATM   48  O   UNK N   1      22.029  15.541   2.243  0.00  0.00    -0.532 OA
HETATM   49  O   UNK N   1      22.128  14.280   0.481  0.00  0.00    -0.532 OA
ENDBRANCH   6  47
TORSDOF 14
ENDMDL
