MODEL 1
REMARK VINA RESULT:      -6.7      0.000      0.000
REMARK  21 active torsions:
REMARK  status: ('A' for Active; 'I' for Inactive)
REMARK    1  A    between atoms: C_2  and  C_3 
REMARK    2  A    between atoms: C_3  and  C_4 
REMARK    3  A    between atoms: C_4  and  C_5 
REMARK    4  A    between atoms: C_5  and  C_6 
REMARK    5  A    between atoms: C_6  and  C_7 
REMARK    6  A    between atoms: C_7  and  C_8 
REMARK    7  A    between atoms: C_8  and  C_9 
REMARK    8  A    between atoms: C_10  and  C_11 
REMARK    9  A    between atoms: C_11  and  C_12 
REMARK   10  A    between atoms: C_12  and  C_13 
REMARK   11  A    between atoms: C_13  and  C_14 
REMARK   12  A    between atoms: C_14  and  C_15 
REMARK   13  A    between atoms: C_15  and  C_16 
REMARK   14  A    between atoms: C_16  and  C_17 
REMARK   15  A    between atoms: C_17  and  C_18 
REMARK   16  A    between atoms: C_18  and  O_20 
REMARK   17  A    between atoms: O_20  and  C_21 
REMARK   18  A    between atoms: C_22  and  C_21 
REMARK   19  A    between atoms: C_23  and  O_38 
REMARK   20  A    between atoms: C_25  and  N_27 
REMARK   21  A    between atoms: C_30  and  N_35 
ROOT
HETATM    1  C   UNK N   1      34.905  14.205  12.130  0.00  0.00     0.213 C 
ENDROOT
BRANCH   1   2
HETATM    2  O   UNK N   1      35.489  14.074  10.896  0.00  0.00    -0.319 OA
BRANCH   2   3
HETATM    3  C   UNK N   1      35.847  15.156  10.167  0.00  0.00     0.258 C 
HETATM    4  O   UNK N   1      36.895  15.725  10.426  0.00  0.00    -0.265 OA
BRANCH   3   5
HETATM    5  C   UNK N   1      34.975  15.669   9.045  0.00  0.00     0.111 C 
BRANCH   5   6
HETATM    6  C   UNK N   1      34.562  17.130   9.255  0.00  0.00     0.010 C 
BRANCH   6   7
HETATM    7  C   UNK N   1      34.368  17.940   7.978  0.00  0.00     0.000 C 
BRANCH   7   8
HETATM    8  C   UNK N   1      34.194  17.067   6.747  0.00  0.00     0.000 C 
BRANCH   8   9
HETATM    9  C   UNK N   1      33.046  17.584   5.888  0.00  0.00     0.000 C 
BRANCH   9  10
HETATM   10  C   UNK N   1      32.007  16.503   5.605  0.00  0.00     0.004 C 
BRANCH  10  11
HETATM   11  C   UNK N   1      31.322  16.053   6.890  0.00  0.00     0.027 C 
BRANCH  11  12
HETATM   12  C   UNK N   1      30.649  17.216   7.529  0.00  0.00    -0.031 C 
HETATM   13  C   UNK N   1      29.344  17.174   7.799  0.00  0.00    -0.031 C 
BRANCH  13  14
HETATM   14  C   UNK N   1      28.658  18.312   8.475  0.00  0.00     0.027 C 
BRANCH  14  15
HETATM   15  C   UNK N   1      28.183  19.336   7.459  0.00  0.00     0.004 C 
BRANCH  15  16
HETATM   16  C   UNK N   1      27.714  18.642   6.191  0.00  0.00     0.000 C 
BRANCH  16  17
HETATM   17  C   UNK N   1      28.100  19.459   4.976  0.00  0.00     0.000 C 
BRANCH  17  18
HETATM   18  C   UNK N   1      26.972  20.393   4.571  0.00  0.00     0.000 C 
BRANCH  18  19
HETATM   19  C   UNK N   1      25.631  19.679   4.655  0.00  0.00    -0.000 C 
BRANCH  19  20
HETATM   20  C   UNK N   1      24.626  20.254   3.669  0.00  0.00    -0.005 C 
HETATM   21  C   UNK N   1      25.298  20.563   2.344  0.00  0.00     0.005 C 
ENDBRANCH  19  20
ENDBRANCH  18  19
ENDBRANCH  17  18
ENDBRANCH  16  17
ENDBRANCH  15  16
ENDBRANCH  14  15
ENDBRANCH  13  14
ENDBRANCH  11  12
ENDBRANCH  10  11
ENDBRANCH   9  10
ENDBRANCH   8   9
ENDBRANCH   7   8
ENDBRANCH   6   7
ENDBRANCH   5   6
ENDBRANCH   3   5
ENDBRANCH   2   3
ENDBRANCH   1   2
BRANCH   1  22
HETATM   22  C   UNK N   1      35.125  12.914  12.870  0.00  0.00     0.183 C 
HETATM   23  C   UNK N   1      36.568  12.450  12.805  0.00  0.00     0.226 C 
HETATM   24  C   UNK N   1      36.839  12.014  14.225  0.00  0.00     0.314 C 
HETATM   25  C   UNK N   1      35.445  12.086  14.867  0.00  0.00     0.307 C 
HETATM   26  F   UNK N   1      37.395  10.749  14.321  0.00  0.00    -0.198 F 
HETATM   27  F   UNK N   1      37.702  12.959  14.753  0.00  0.00    -0.198 F 
HETATM   28  O   UNK N   1      34.781  13.116  14.202  0.00  0.00    -0.350 OA
BRANCH  23  29
HETATM   29  O   UNK N   1      36.675  11.394  11.899  0.00  0.00    -0.387 OA
HETATM   30  H   UNK N   1      36.986  10.486  12.035  0.00  0.00     0.210 HD
ENDBRANCH  23  29
BRANCH  25  31
HETATM   31  N   UNK N   1      35.410  12.355  16.317  0.00  0.00    -0.276 N 
HETATM   32  C   UNK N   1      35.356  13.632  16.799  0.00  0.00     0.102 A 
HETATM   33  C   UNK N   1      35.225  13.875  18.161  0.00  0.00     0.065 A 
HETATM   34  C   UNK N   1      35.145  12.796  19.030  0.00  0.00     0.103 A 
HETATM   35  N   UNK N   1      35.225  11.530  18.549  0.00  0.00    -0.295 N 
HETATM   36  C   UNK N   1      35.364  11.296  17.209  0.00  0.00     0.330 A 
ATOM     37  HN  UNK N   1      35.181  10.743  19.195  1.00  0.00     0.172 HD
HETATM   38  O   UNK N   1      35.412  10.142  16.808  0.00  0.00    -0.246 OA
BRANCH  34  39
HETATM   39  N   UNK N   1      34.968  13.012  20.409  0.00  0.00    -0.385 N 
HETATM   40  H   UNK N   1      35.622  13.545  20.917  0.00  0.00     0.157 HD
HETATM   41  H   UNK N   1      34.186  12.630  20.868  0.00  0.00     0.157 HD
ENDBRANCH  34  39
ENDBRANCH  25  31
ENDBRANCH   1  22
TORSDOF 21
ENDMDL
MODEL 2
REMARK VINA RESULT:      -6.5      9.938     13.534
REMARK  21 active torsions:
REMARK  status: ('A' for Active; 'I' for Inactive)
REMARK    1  A    between atoms: C_2  and  C_3 
REMARK    2  A    between atoms: C_3  and  C_4 
REMARK    3  A    between atoms: C_4  and  C_5 
REMARK    4  A    between atoms: C_5  and  C_6 
REMARK    5  A    between atoms: C_6  and  C_7 
REMARK    6  A    between atoms: C_7  and  C_8 
REMARK    7  A    between atoms: C_8  and  C_9 
REMARK    8  A    between atoms: C_10  and  C_11 
REMARK    9  A    between atoms: C_11  and  C_12 
REMARK   10  A    between atoms: C_12  and  C_13 
REMARK   11  A    between atoms: C_13  and  C_14 
REMARK   12  A    between atoms: C_14  and  C_15 
REMARK   13  A    between atoms: C_15  and  C_16 
REMARK   14  A    between atoms: C_16  and  C_17 
REMARK   15  A    between atoms: C_17  and  C_18 
REMARK   16  A    between atoms: C_18  and  O_20 
REMARK   17  A    between atoms: O_20  and  C_21 
REMARK   18  A    between atoms: C_22  and  C_21 
REMARK   19  A    between atoms: C_23  and  O_38 
REMARK   20  A    between atoms: C_25  and  N_27 
REMARK   21  A    between atoms: C_30  and  N_35 
ROOT
HETATM    1  C   UNK N   1      23.600  18.441   4.687  0.00  0.00     0.213 C 
ENDROOT
BRANCH   1   2
HETATM    2  O   UNK N   1      23.519  19.175   3.530  0.00  0.00    -0.319 OA
BRANCH   2   3
HETATM    3  C   UNK N   1      24.528  19.985   3.138  0.00  0.00     0.258 C 
HETATM    4  O   UNK N   1      24.274  20.963   2.454  0.00  0.00    -0.265 OA
BRANCH   3   5
HETATM    5  C   UNK N   1      25.959  19.699   3.530  0.00  0.00     0.111 C 
BRANCH   5   6
HETATM    6  C   UNK N   1      26.526  20.769   4.469  0.00  0.00     0.010 C 
BRANCH   6   7
HETATM    7  C   UNK N   1      27.758  20.349   5.264  0.00  0.00     0.000 C 
BRANCH   7   8
HETATM    8  C   UNK N   1      28.159  18.906   5.010  0.00  0.00     0.000 C 
BRANCH   8   9
HETATM    9  C   UNK N   1      27.770  18.032   6.197  0.00  0.00     0.000 C 
BRANCH   9  10
HETATM   10  C   UNK N   1      28.988  17.534   6.969  0.00  0.00     0.004 C 
BRANCH  10  11
HETATM   11  C   UNK N   1      29.102  18.229   8.319  0.00  0.00     0.027 C 
BRANCH  11  12
HETATM   12  C   UNK N   1      30.532  18.297   8.727  0.00  0.00    -0.031 C 
HETATM   13  C   UNK N   1      31.434  17.498   8.155  0.00  0.00    -0.031 C 
BRANCH  13  14
HETATM   14  C   UNK N   1      32.877  17.578   8.520  0.00  0.00     0.027 C 
BRANCH  14  15
HETATM   15  C   UNK N   1      33.718  17.970   7.318  0.00  0.00     0.004 C 
BRANCH  15  16
HETATM   16  C   UNK N   1      34.266  16.729   6.632  0.00  0.00     0.000 C 
BRANCH  16  17
HETATM   17  C   UNK N   1      33.412  16.376   5.432  0.00  0.00     0.000 C 
BRANCH  17  18
HETATM   18  C   UNK N   1      33.075  17.618   4.623  0.00  0.00     0.000 C 
BRANCH  18  19
HETATM   19  C   UNK N   1      32.106  17.277   3.501  0.00  0.00    -0.000 C 
BRANCH  19  20
HETATM   20  C   UNK N   1      30.975  16.384   3.987  0.00  0.00    -0.005 C 
HETATM   21  C   UNK N   1      29.866  16.319   2.953  0.00  0.00     0.005 C 
ENDBRANCH  19  20
ENDBRANCH  18  19
ENDBRANCH  17  18
ENDBRANCH  16  17
ENDBRANCH  15  16
ENDBRANCH  14  15
ENDBRANCH  13  14
ENDBRANCH  11  12
ENDBRANCH  10  11
ENDBRANCH   9  10
ENDBRANCH   8   9
ENDBRANCH   7   8
ENDBRANCH   6   7
ENDBRANCH   5   6
ENDBRANCH   3   5
ENDBRANCH   2   3
ENDBRANCH   1   2
BRANCH   1  22
HETATM   22  C   UNK N   1      22.197  18.230   5.185  0.00  0.00     0.183 C 
HETATM   23  C   UNK N   1      21.318  17.540   4.158  0.00  0.00     0.226 C 
HETATM   24  C   UNK N   1      20.573  16.523   4.990  0.00  0.00     0.314 C 
HETATM   25  C   UNK N   1      20.969  16.913   6.423  0.00  0.00     0.307 C 
HETATM   26  F   UNK N   1      19.201  16.549   4.801  0.00  0.00    -0.198 F 
HETATM   27  F   UNK N   1      21.085  15.289   4.628  0.00  0.00    -0.198 F 
HETATM   28  O   UNK N   1      22.257  17.437   6.324  0.00  0.00    -0.350 OA
BRANCH  23  29
HETATM   29  O   UNK N   1      20.461  18.476   3.577  0.00  0.00    -0.387 OA
HETATM   30  H   UNK N   1      19.669  18.342   3.033  0.00  0.00     0.210 HD
ENDBRANCH  23  29
BRANCH  25  31
HETATM   31  N   UNK N   1      20.974  15.822   7.416  0.00  0.00    -0.276 N 
HETATM   32  C   UNK N   1      22.040  14.977   7.534  0.00  0.00     0.102 A 
HETATM   33  C   UNK N   1      22.079  14.013   8.535  0.00  0.00     0.065 A 
HETATM   34  C   UNK N   1      21.014  13.924   9.421  0.00  0.00     0.103 A 
HETATM   35  N   UNK N   1      19.946  14.748   9.283  0.00  0.00    -0.295 N 
HETATM   36  C   UNK N   1      19.908  15.688   8.291  0.00  0.00     0.330 A 
ATOM     37  HN  UNK N   1      19.161  14.667   9.929  1.00  0.00     0.172 HD
HETATM   38  O   UNK N   1      18.939  16.428   8.209  0.00  0.00    -0.246 OA
BRANCH  34  39
HETATM   39  N   UNK N   1      21.047  12.987  10.470  0.00  0.00    -0.385 N 
HETATM   40  H   UNK N   1      20.710  13.228  11.364  0.00  0.00     0.157 HD
HETATM   41  H   UNK N   1      21.409  12.085  10.311  0.00  0.00     0.157 HD
ENDBRANCH  34  39
ENDBRANCH  25  31
ENDBRANCH   1  22
TORSDOF 21
ENDMDL
MODEL 3
REMARK VINA RESULT:      -6.5      5.156     13.034
REMARK  21 active torsions:
REMARK  status: ('A' for Active; 'I' for Inactive)
REMARK    1  A    between atoms: C_2  and  C_3 
REMARK    2  A    between atoms: C_3  and  C_4 
REMARK    3  A    between atoms: C_4  and  C_5 
REMARK    4  A    between atoms: C_5  and  C_6 
REMARK    5  A    between atoms: C_6  and  C_7 
REMARK    6  A    between atoms: C_7  and  C_8 
REMARK    7  A    between atoms: C_8  and  C_9 
REMARK    8  A    between atoms: C_10  and  C_11 
REMARK    9  A    between atoms: C_11  and  C_12 
REMARK   10  A    between atoms: C_12  and  C_13 
REMARK   11  A    between atoms: C_13  and  C_14 
REMARK   12  A    between atoms: C_14  and  C_15 
REMARK   13  A    between atoms: C_15  and  C_16 
REMARK   14  A    between atoms: C_16  and  C_17 
REMARK   15  A    between atoms: C_17  and  C_18 
REMARK   16  A    between atoms: C_18  and  O_20 
REMARK   17  A    between atoms: O_20  and  C_21 
REMARK   18  A    between atoms: C_22  and  C_21 
REMARK   19  A    between atoms: C_23  and  O_38 
REMARK   20  A    between atoms: C_25  and  N_27 
REMARK   21  A    between atoms: C_30  and  N_35 
ROOT
HETATM    1  C   UNK N   1      34.333  14.748   8.768  0.00  0.00     0.213 C 
ENDROOT
BRANCH   1   2
HETATM    2  O   UNK N   1      35.666  14.820   9.087  0.00  0.00    -0.319 OA
BRANCH   2   3
HETATM    3  C   UNK N   1      36.078  14.921  10.372  0.00  0.00     0.258 C 
HETATM    4  O   UNK N   1      36.820  15.837  10.686  0.00  0.00    -0.265 OA
BRANCH   3   5
HETATM    5  C   UNK N   1      35.635  13.925  11.417  0.00  0.00     0.111 C 
BRANCH   5   6
HETATM    6  C   UNK N   1      36.004  14.373  12.836  0.00  0.00     0.010 C 
BRANCH   6   7
HETATM    7  C   UNK N   1      36.745  13.336  13.673  0.00  0.00     0.000 C 
BRANCH   7   8
HETATM    8  C   UNK N   1      36.713  13.647  15.160  0.00  0.00     0.000 C 
BRANCH   8   9
HETATM    9  C   UNK N   1      35.896  12.596  15.903  0.00  0.00     0.000 C 
BRANCH   9  10
HETATM   10  C   UNK N   1      34.735  13.213  16.679  0.00  0.00     0.004 C 
BRANCH  10  11
HETATM   11  C   UNK N   1      35.057  13.303  18.165  0.00  0.00     0.027 C 
BRANCH  11  12
HETATM   12  C   UNK N   1      35.568  11.990  18.645  0.00  0.00    -0.031 C 
HETATM   13  C   UNK N   1      35.234  11.538  19.854  0.00  0.00    -0.031 C 
BRANCH  13  14
HETATM   14  C   UNK N   1      35.703  10.208  20.337  0.00  0.00     0.027 C 
BRANCH  14  15
HETATM   15  C   UNK N   1      35.297   9.108  19.372  0.00  0.00     0.004 C 
BRANCH  15  16
HETATM   16  C   UNK N   1      34.476   8.051  20.093  0.00  0.00     0.000 C 
BRANCH  16  17
HETATM   17  C   UNK N   1      33.058   8.040  19.561  0.00  0.00     0.000 C 
BRANCH  17  18
HETATM   18  C   UNK N   1      32.053   8.090  20.699  0.00  0.00     0.000 C 
BRANCH  18  19
HETATM   19  C   UNK N   1      31.697   9.532  21.035  0.00  0.00    -0.000 C 
BRANCH  19  20
HETATM   20  C   UNK N   1      32.525  10.058  22.196  0.00  0.00    -0.005 C 
HETATM   21  C   UNK N   1      32.204   9.294  23.468  0.00  0.00     0.005 C 
ENDBRANCH  19  20
ENDBRANCH  18  19
ENDBRANCH  17  18
ENDBRANCH  16  17
ENDBRANCH  15  16
ENDBRANCH  14  15
ENDBRANCH  13  14
ENDBRANCH  11  12
ENDBRANCH  10  11
ENDBRANCH   9  10
ENDBRANCH   8   9
ENDBRANCH   7   8
ENDBRANCH   6   7
ENDBRANCH   5   6
ENDBRANCH   3   5
ENDBRANCH   2   3
ENDBRANCH   1   2
BRANCH   1  22
HETATM   22  C   UNK N   1      33.715  16.073   9.124  0.00  0.00     0.183 C 
HETATM   23  C   UNK N   1      34.388  17.233   8.415  0.00  0.00     0.226 C 
HETATM   24  C   UNK N   1      33.216  18.070   7.964  0.00  0.00     0.314 C 
HETATM   25  C   UNK N   1      32.031  17.386   8.664  0.00  0.00     0.307 C 
HETATM   26  F   UNK N   1      33.324  19.408   8.306  0.00  0.00    -0.198 F 
HETATM   27  F   UNK N   1      33.156  17.930   6.588  0.00  0.00    -0.198 F 
HETATM   28  O   UNK N   1      32.377  16.039   8.751  0.00  0.00    -0.350 OA
BRANCH  23  29
HETATM   29  O   UNK N   1      35.208  17.915   9.315  0.00  0.00    -0.387 OA
HETATM   30  H   UNK N   1      35.158  18.828   9.635  0.00  0.00     0.210 HD
ENDBRANCH  23  29
BRANCH  25  31
HETATM   31  N   UNK N   1      30.724  17.500   7.989  0.00  0.00    -0.276 N 
HETATM   32  C   UNK N   1      30.459  16.812   6.839  0.00  0.00     0.102 A 
HETATM   33  C   UNK N   1      29.194  16.848   6.262  0.00  0.00     0.065 A 
HETATM   34  C   UNK N   1      28.198  17.592   6.877  0.00  0.00     0.103 A 
HETATM   35  N   UNK N   1      28.473  18.294   8.004  0.00  0.00    -0.295 N 
HETATM   36  C   UNK N   1      29.721  18.265   8.562  0.00  0.00     0.330 A 
ATOM     37  HN  UNK N   1      27.740  18.851   8.442  1.00  0.00     0.172 HD
HETATM   38  O   UNK N   1      29.929  18.892   9.591  0.00  0.00    -0.246 OA
BRANCH  34  39
HETATM   39  N   UNK N   1      26.898  17.610   6.339  0.00  0.00    -0.385 N 
HETATM   40  H   UNK N   1      26.475  18.463   6.087  0.00  0.00     0.157 HD
HETATM   41  H   UNK N   1      26.408  16.765   6.213  0.00  0.00     0.157 HD
ENDBRANCH  34  39
ENDBRANCH  25  31
ENDBRANCH   1  22
TORSDOF 21
ENDMDL
MODEL 4
REMARK VINA RESULT:      -6.5     16.804     20.264
REMARK  21 active torsions:
REMARK  status: ('A' for Active; 'I' for Inactive)
REMARK    1  A    between atoms: C_2  and  C_3 
REMARK    2  A    between atoms: C_3  and  C_4 
REMARK    3  A    between atoms: C_4  and  C_5 
REMARK    4  A    between atoms: C_5  and  C_6 
REMARK    5  A    between atoms: C_6  and  C_7 
REMARK    6  A    between atoms: C_7  and  C_8 
REMARK    7  A    between atoms: C_8  and  C_9 
REMARK    8  A    between atoms: C_10  and  C_11 
REMARK    9  A    between atoms: C_11  and  C_12 
REMARK   10  A    between atoms: C_12  and  C_13 
REMARK   11  A    between atoms: C_13  and  C_14 
REMARK   12  A    between atoms: C_14  and  C_15 
REMARK   13  A    between atoms: C_15  and  C_16 
REMARK   14  A    between atoms: C_16  and  C_17 
REMARK   15  A    between atoms: C_17  and  C_18 
REMARK   16  A    between atoms: C_18  and  O_20 
REMARK   17  A    between atoms: O_20  and  C_21 
REMARK   18  A    between atoms: C_22  and  C_21 
REMARK   19  A    between atoms: C_23  and  O_38 
REMARK   20  A    between atoms: C_25  and  N_27 
REMARK   21  A    between atoms: C_30  and  N_35 
ROOT
HETATM    1  C   UNK N   1      30.273  25.605  -6.652  0.00  0.00     0.213 C 
ENDROOT
BRANCH   1   2
HETATM    2  O   UNK N   1      29.065  26.256  -6.677  0.00  0.00    -0.319 OA
BRANCH   2   3
HETATM    3  C   UNK N   1      28.828  27.267  -7.545  0.00  0.00     0.258 C 
HETATM    4  O   UNK N   1      29.378  27.256  -8.634  0.00  0.00    -0.265 OA
BRANCH   3   5
HETATM    5  C   UNK N   1      27.898  28.403  -7.189  0.00  0.00     0.111 C 
BRANCH   5   6
HETATM    6  C   UNK N   1      28.638  29.569  -6.524  0.00  0.00     0.010 C 
BRANCH   6   7
HETATM    7  C   UNK N   1      28.375  29.739  -5.031  0.00  0.00     0.000 C 
BRANCH   7   8
HETATM    8  C   UNK N   1      26.897  29.691  -4.684  0.00  0.00     0.000 C 
BRANCH   8   9
HETATM    9  C   UNK N   1      26.667  28.796  -3.472  0.00  0.00     0.000 C 
BRANCH   9  10
HETATM   10  C   UNK N   1      25.888  27.533  -3.828  0.00  0.00     0.004 C 
BRANCH  10  11
HETATM   11  C   UNK N   1      24.861  27.813  -4.918  0.00  0.00     0.027 C 
BRANCH  11  12
HETATM   12  C   UNK N   1      24.969  26.779  -5.983  0.00  0.00    -0.031 C 
HETATM   13  C   UNK N   1      25.753  25.715  -5.811  0.00  0.00    -0.031 C 
BRANCH  13  14
HETATM   14  C   UNK N   1      25.843  24.648  -6.849  0.00  0.00     0.027 C 
BRANCH  14  15
HETATM   15  C   UNK N   1      25.917  23.274  -6.207  0.00  0.00     0.004 C 
BRANCH  15  16
HETATM   16  C   UNK N   1      26.600  22.291  -7.143  0.00  0.00     0.000 C 
BRANCH  16  17
HETATM   17  C   UNK N   1      27.720  22.979  -7.896  0.00  0.00     0.000 C 
BRANCH  17  18
HETATM   18  C   UNK N   1      28.867  22.018  -8.158  0.00  0.00     0.000 C 
BRANCH  18  19
HETATM   19  C   UNK N   1      28.417  20.579  -7.948  0.00  0.00    -0.000 C 
BRANCH  19  20
HETATM   20  C   UNK N   1      29.548  19.707  -7.427  0.00  0.00    -0.005 C 
HETATM   21  C   UNK N   1      29.918  18.648  -8.450  0.00  0.00     0.005 C 
ENDBRANCH  19  20
ENDBRANCH  18  19
ENDBRANCH  17  18
ENDBRANCH  16  17
ENDBRANCH  15  16
ENDBRANCH  14  15
ENDBRANCH  13  14
ENDBRANCH  11  12
ENDBRANCH  10  11
ENDBRANCH   9  10
ENDBRANCH   8   9
ENDBRANCH   7   8
ENDBRANCH   6   7
ENDBRANCH   5   6
ENDBRANCH   3   5
ENDBRANCH   2   3
ENDBRANCH   1   2
BRANCH   1  22
HETATM   22  C   UNK N   1      30.441  25.025  -5.274  0.00  0.00     0.183 C 
HETATM   23  C   UNK N   1      29.162  24.398  -4.752  0.00  0.00     0.226 C 
HETATM   24  C   UNK N   1      29.652  23.107  -4.141  0.00  0.00     0.314 C 
HETATM   25  C   UNK N   1      31.179  23.269  -4.204  0.00  0.00     0.307 C 
HETATM   26  F   UNK N   1      29.201  22.898  -2.848  0.00  0.00    -0.198 F 
HETATM   27  F   UNK N   1      29.202  22.097  -4.975  0.00  0.00    -0.198 F 
HETATM   28  O   UNK N   1      31.425  24.046  -5.335  0.00  0.00    -0.350 OA
BRANCH  23  29
HETATM   29  O   UNK N   1      28.583  25.244  -3.805  0.00  0.00    -0.387 OA
HETATM   30  H   UNK N   1      28.549  26.212  -3.774  0.00  0.00     0.210 HD
ENDBRANCH  23  29
BRANCH  25  31
HETATM   31  N   UNK N   1      31.961  22.022  -4.304  0.00  0.00    -0.276 N 
HETATM   32  C   UNK N   1      32.328  21.511  -5.516  0.00  0.00     0.102 A 
HETATM   33  C   UNK N   1      33.146  20.390  -5.600  0.00  0.00     0.065 A 
HETATM   34  C   UNK N   1      33.592  19.796  -4.427  0.00  0.00     0.103 A 
HETATM   35  N   UNK N   1      33.203  20.292  -3.226  0.00  0.00    -0.295 N 
HETATM   36  C   UNK N   1      32.390  21.388  -3.148  0.00  0.00     0.330 A 
ATOM     37  HN  UNK N   1      33.523  19.842  -2.369  1.00  0.00     0.172 HD
HETATM   38  O   UNK N   1      32.076  21.821  -2.049  0.00  0.00    -0.246 OA
BRANCH  34  39
HETATM   39  N   UNK N   1      34.456  18.688  -4.482  0.00  0.00    -0.385 N 
HETATM   40  H   UNK N   1      35.167  18.577  -3.810  0.00  0.00     0.157 HD
HETATM   41  H   UNK N   1      34.350  18.019  -5.197  0.00  0.00     0.157 HD
ENDBRANCH  34  39
ENDBRANCH  25  31
ENDBRANCH   1  22
TORSDOF 21
ENDMDL
MODEL 5
REMARK VINA RESULT:      -6.5     10.284     13.995
REMARK  21 active torsions:
REMARK  status: ('A' for Active; 'I' for Inactive)
REMARK    1  A    between atoms: C_2  and  C_3 
REMARK    2  A    between atoms: C_3  and  C_4 
REMARK    3  A    between atoms: C_4  and  C_5 
REMARK    4  A    between atoms: C_5  and  C_6 
REMARK    5  A    between atoms: C_6  and  C_7 
REMARK    6  A    between atoms: C_7  and  C_8 
REMARK    7  A    between atoms: C_8  and  C_9 
REMARK    8  A    between atoms: C_10  and  C_11 
REMARK    9  A    between atoms: C_11  and  C_12 
REMARK   10  A    between atoms: C_12  and  C_13 
REMARK   11  A    between atoms: C_13  and  C_14 
REMARK   12  A    between atoms: C_14  and  C_15 
REMARK   13  A    between atoms: C_15  and  C_16 
REMARK   14  A    between atoms: C_16  and  C_17 
REMARK   15  A    between atoms: C_17  and  C_18 
REMARK   16  A    between atoms: C_18  and  O_20 
REMARK   17  A    between atoms: O_20  and  C_21 
REMARK   18  A    between atoms: C_22  and  C_21 
REMARK   19  A    between atoms: C_23  and  O_38 
REMARK   20  A    between atoms: C_25  and  N_27 
REMARK   21  A    between atoms: C_30  and  N_35 
ROOT
HETATM    1  C   UNK N   1      22.657  12.688   8.433  0.00  0.00     0.213 C 
ENDROOT
BRANCH   1   2
HETATM    2  O   UNK N   1      23.218  12.328   7.233  0.00  0.00    -0.319 OA
BRANCH   2   3
HETATM    3  C   UNK N   1      24.462  12.730   6.889  0.00  0.00     0.258 C 
HETATM    4  O   UNK N   1      25.027  12.181   5.957  0.00  0.00    -0.265 OA
BRANCH   3   5
HETATM    5  C   UNK N   1      25.161  13.842   7.635  0.00  0.00     0.111 C 
BRANCH   5   6
HETATM    6  C   UNK N   1      25.118  15.169   6.869  0.00  0.00     0.010 C 
BRANCH   6   7
HETATM    7  C   UNK N   1      26.477  15.809   6.603  0.00  0.00     0.000 C 
BRANCH   7   8
HETATM    8  C   UNK N   1      27.357  14.969   5.694  0.00  0.00     0.000 C 
BRANCH   8   9
HETATM    9  C   UNK N   1      27.331  15.523   4.274  0.00  0.00     0.000 C 
BRANCH   9  10
HETATM   10  C   UNK N   1      26.219  14.901   3.434  0.00  0.00     0.004 C 
BRANCH  10  11
HETATM   11  C   UNK N   1      25.204  15.954   3.006  0.00  0.00     0.027 C 
BRANCH  11  12
HETATM   12  C   UNK N   1      25.754  17.312   3.265  0.00  0.00    -0.031 C 
HETATM   13  C   UNK N   1      25.056  18.197   3.977  0.00  0.00    -0.031 C 
BRANCH  13  14
HETATM   14  C   UNK N   1      25.607  19.549   4.280  0.00  0.00     0.027 C 
BRANCH  14  15
HETATM   15  C   UNK N   1      27.050  19.660   3.820  0.00  0.00     0.004 C 
BRANCH  15  16
HETATM   16  C   UNK N   1      27.995  19.346   4.968  0.00  0.00     0.000 C 
BRANCH  16  17
HETATM   17  C   UNK N   1      27.478  19.960   6.252  0.00  0.00     0.000 C 
BRANCH  17  18
HETATM   18  C   UNK N   1      28.062  19.253   7.464  0.00  0.00     0.000 C 
BRANCH  18  19
HETATM   19  C   UNK N   1      28.979  18.118   7.030  0.00  0.00    -0.000 C 
BRANCH  19  20
HETATM   20  C   UNK N   1      29.587  17.399   8.223  0.00  0.00    -0.005 C 
HETATM   21  C   UNK N   1      29.032  17.959   9.521  0.00  0.00     0.005 C 
ENDBRANCH  19  20
ENDBRANCH  18  19
ENDBRANCH  17  18
ENDBRANCH  16  17
ENDBRANCH  15  16
ENDBRANCH  14  15
ENDBRANCH  13  14
ENDBRANCH  11  12
ENDBRANCH  10  11
ENDBRANCH   9  10
ENDBRANCH   8   9
ENDBRANCH   7   8
ENDBRANCH   6   7
ENDBRANCH   5   6
ENDBRANCH   3   5
ENDBRANCH   2   3
ENDBRANCH   1   2
BRANCH   1  22
HETATM   22  C   UNK N   1      21.296  13.258   8.138  0.00  0.00     0.183 C 
HETATM   23  C   UNK N   1      20.903  14.349   9.117  0.00  0.00     0.226 C 
HETATM   24  C   UNK N   1      20.310  15.404   8.214  0.00  0.00     0.314 C 
HETATM   25  C   UNK N   1      20.246  14.683   6.858  0.00  0.00     0.307 C 
HETATM   26  F   UNK N   1      19.066  15.853   8.627  0.00  0.00    -0.198 F 
HETATM   27  F   UNK N   1      21.218  16.449   8.204  0.00  0.00    -0.198 F 
HETATM   28  O   UNK N   1      21.320  13.795   6.857  0.00  0.00    -0.350 OA
BRANCH  23  29
HETATM   29  O   UNK N   1      19.970  13.845  10.024  0.00  0.00    -0.387 OA
HETATM   30  H   UNK N   1      20.022  13.072  10.606  0.00  0.00     0.210 HD
ENDBRANCH  23  29
BRANCH  25  31
HETATM   31  N   UNK N   1      20.336  15.541   5.661  0.00  0.00    -0.276 N 
HETATM   32  C   UNK N   1      21.536  15.796   5.061  0.00  0.00     0.102 A 
HETATM   33  C   UNK N   1      21.602  16.524   3.879  0.00  0.00     0.065 A 
HETATM   34  C   UNK N   1      20.424  16.988   3.311  0.00  0.00     0.103 A 
HETATM   35  N   UNK N   1      19.237  16.755   3.925  0.00  0.00    -0.295 N 
HETATM   36  C   UNK N   1      19.178  16.047   5.093  0.00  0.00     0.330 A 
ATOM     37  HN  UNK N   1      18.377  17.112   3.509  1.00  0.00     0.172 HD
HETATM   38  O   UNK N   1      18.089  15.837   5.608  0.00  0.00    -0.246 OA
BRANCH  34  39
HETATM   39  N   UNK N   1      20.458  17.690   2.092  0.00  0.00    -0.385 N 
HETATM   40  H   UNK N   1      20.780  18.620   2.061  0.00  0.00     0.157 HD
HETATM   41  H   UNK N   1      20.158  17.248   1.265  0.00  0.00     0.157 HD
ENDBRANCH  34  39
ENDBRANCH  25  31
ENDBRANCH   1  22
TORSDOF 21
ENDMDL
MODEL 6
REMARK VINA RESULT:      -6.4      2.126      3.421
REMARK  21 active torsions:
REMARK  status: ('A' for Active; 'I' for Inactive)
REMARK    1  A    between atoms: C_2  and  C_3 
REMARK    2  A    between atoms: C_3  and  C_4 
REMARK    3  A    between atoms: C_4  and  C_5 
REMARK    4  A    between atoms: C_5  and  C_6 
REMARK    5  A    between atoms: C_6  and  C_7 
REMARK    6  A    between atoms: C_7  and  C_8 
REMARK    7  A    between atoms: C_8  and  C_9 
REMARK    8  A    between atoms: C_10  and  C_11 
REMARK    9  A    between atoms: C_11  and  C_12 
REMARK   10  A    between atoms: C_12  and  C_13 
REMARK   11  A    between atoms: C_13  and  C_14 
REMARK   12  A    between atoms: C_14  and  C_15 
REMARK   13  A    between atoms: C_15  and  C_16 
REMARK   14  A    between atoms: C_16  and  C_17 
REMARK   15  A    between atoms: C_17  and  C_18 
REMARK   16  A    between atoms: C_18  and  O_20 
REMARK   17  A    between atoms: O_20  and  C_21 
REMARK   18  A    between atoms: C_22  and  C_21 
REMARK   19  A    between atoms: C_23  and  O_38 
REMARK   20  A    between atoms: C_25  and  N_27 
REMARK   21  A    between atoms: C_30  and  N_35 
ROOT
HETATM    1  C   UNK N   1      35.325  16.821  10.160  0.00  0.00     0.213 C 
ENDROOT
BRANCH   1   2
HETATM    2  O   UNK N   1      34.200  17.433   9.666  0.00  0.00    -0.319 OA
BRANCH   2   3
HETATM    3  C   UNK N   1      34.175  17.960   8.420  0.00  0.00     0.258 C 
HETATM    4  O   UNK N   1      34.985  18.822   8.124  0.00  0.00    -0.265 OA
BRANCH   3   5
HETATM    5  C   UNK N   1      33.165  17.500   7.396  0.00  0.00     0.111 C 
BRANCH   5   6
HETATM    6  C   UNK N   1      33.697  17.623   5.963  0.00  0.00     0.010 C 
BRANCH   6   7
HETATM    7  C   UNK N   1      33.907  16.300   5.233  0.00  0.00     0.000 C 
BRANCH   7   8
HETATM    8  C   UNK N   1      32.776  15.970   4.275  0.00  0.00     0.000 C 
BRANCH   8   9
HETATM    9  C   UNK N   1      31.871  17.182   4.085  0.00  0.00     0.000 C 
BRANCH   9  10
HETATM   10  C   UNK N   1      30.392  16.815   4.172  0.00  0.00     0.004 C 
BRANCH  10  11
HETATM   11  C   UNK N   1      29.885  16.927   5.604  0.00  0.00     0.027 C 
BRANCH  11  12
HETATM   12  C   UNK N   1      29.136  18.202   5.770  0.00  0.00    -0.031 C 
HETATM   13  C   UNK N   1      28.375  18.401   6.846  0.00  0.00    -0.031 C 
BRANCH  13  14
HETATM   14  C   UNK N   1      27.649  19.688   7.050  0.00  0.00     0.027 C 
BRANCH  14  15
HETATM   15  C   UNK N   1      27.748  20.566   5.815  0.00  0.00     0.004 C 
BRANCH  15  16
HETATM   16  C   UNK N   1      26.389  20.689   5.145  0.00  0.00     0.000 C 
BRANCH  16  17
HETATM   17  C   UNK N   1      26.350  19.847   3.887  0.00  0.00     0.000 C 
BRANCH  17  18
HETATM   18  C   UNK N   1      25.652  18.522   4.144  0.00  0.00     0.000 C 
BRANCH  18  19
HETATM   19  C   UNK N   1      26.365  17.393   3.414  0.00  0.00    -0.000 C 
BRANCH  19  20
HETATM   20  C   UNK N   1      26.422  16.128   4.255  0.00  0.00    -0.005 C 
HETATM   21  C   UNK N   1      25.595  16.291   5.518  0.00  0.00     0.005 C 
ENDBRANCH  19  20
ENDBRANCH  18  19
ENDBRANCH  17  18
ENDBRANCH  16  17
ENDBRANCH  15  16
ENDBRANCH  14  15
ENDBRANCH  13  14
ENDBRANCH  11  12
ENDBRANCH  10  11
ENDBRANCH   9  10
ENDBRANCH   8   9
ENDBRANCH   7   8
ENDBRANCH   6   7
ENDBRANCH   5   6
ENDBRANCH   3   5
ENDBRANCH   2   3
ENDBRANCH   1   2
BRANCH   1  22
HETATM   22  C   UNK N   1      35.036  15.347  10.236  0.00  0.00     0.183 C 
HETATM   23  C   UNK N   1      36.136  14.510   9.611  0.00  0.00     0.226 C 
HETATM   24  C   UNK N   1      36.311  13.392  10.611  0.00  0.00     0.314 C 
HETATM   25  C   UNK N   1      35.134  13.622  11.574  0.00  0.00     0.307 C 
HETATM   26  F   UNK N   1      36.284  12.129  10.044  0.00  0.00    -0.198 F 
HETATM   27  F   UNK N   1      37.532  13.618  11.223  0.00  0.00    -0.198 F 
HETATM   28  O   UNK N   1      34.918  14.999  11.576  0.00  0.00    -0.350 OA
BRANCH  23  29
HETATM   29  O   UNK N   1      35.713  14.042   8.366  0.00  0.00    -0.387 OA
HETATM   30  H   UNK N   1      34.997  14.357   7.793  0.00  0.00     0.210 HD
ENDBRANCH  23  29
BRANCH  25  31
HETATM   31  N   UNK N   1      35.333  13.168  12.963  0.00  0.00    -0.276 N 
HETATM   32  C   UNK N   1      35.934  13.970  13.891  0.00  0.00     0.102 A 
HETATM   33  C   UNK N   1      36.031  13.575  15.220  0.00  0.00     0.065 A 
HETATM   34  C   UNK N   1      35.501  12.348  15.595  0.00  0.00     0.103 A 
HETATM   35  N   UNK N   1      34.929  11.544  14.665  0.00  0.00    -0.295 N 
HETATM   36  C   UNK N   1      34.845  11.932  13.357  0.00  0.00     0.330 A 
ATOM     37  HN  UNK N   1      34.555  10.638  14.945  1.00  0.00     0.172 HD
HETATM   38  O   UNK N   1      34.303  11.192  12.549  0.00  0.00    -0.246 OA
BRANCH  34  39
HETATM   39  N   UNK N   1      35.546  11.943  16.941  0.00  0.00    -0.385 N 
HETATM   40  H   UNK N   1      36.339  12.134  17.493  0.00  0.00     0.157 HD
HETATM   41  H   UNK N   1      34.780  11.466  17.335  0.00  0.00     0.157 HD
ENDBRANCH  34  39
ENDBRANCH  25  31
ENDBRANCH   1  22
TORSDOF 21
ENDMDL
MODEL 7
REMARK VINA RESULT:      -6.4     12.235     15.574
REMARK  21 active torsions:
REMARK  status: ('A' for Active; 'I' for Inactive)
REMARK    1  A    between atoms: C_2  and  C_3 
REMARK    2  A    between atoms: C_3  and  C_4 
REMARK    3  A    between atoms: C_4  and  C_5 
REMARK    4  A    between atoms: C_5  and  C_6 
REMARK    5  A    between atoms: C_6  and  C_7 
REMARK    6  A    between atoms: C_7  and  C_8 
REMARK    7  A    between atoms: C_8  and  C_9 
REMARK    8  A    between atoms: C_10  and  C_11 
REMARK    9  A    between atoms: C_11  and  C_12 
REMARK   10  A    between atoms: C_12  and  C_13 
REMARK   11  A    between atoms: C_13  and  C_14 
REMARK   12  A    between atoms: C_14  and  C_15 
REMARK   13  A    between atoms: C_15  and  C_16 
REMARK   14  A    between atoms: C_16  and  C_17 
REMARK   15  A    between atoms: C_17  and  C_18 
REMARK   16  A    between atoms: C_18  and  O_20 
REMARK   17  A    between atoms: O_20  and  C_21 
REMARK   18  A    between atoms: C_22  and  C_21 
REMARK   19  A    between atoms: C_23  and  O_38 
REMARK   20  A    between atoms: C_25  and  N_27 
REMARK   21  A    between atoms: C_30  and  N_35 
ROOT
HETATM    1  C   UNK N   1      19.995  15.915   3.941  0.00  0.00     0.213 C 
ENDROOT
BRANCH   1   2
HETATM    2  O   UNK N   1      19.503  16.439   5.111  0.00  0.00    -0.319 OA
BRANCH   2   3
HETATM    3  C   UNK N   1      20.195  16.348   6.269  0.00  0.00     0.258 C 
HETATM    4  O   UNK N   1      20.844  17.309   6.650  0.00  0.00    -0.265 OA
BRANCH   3   5
HETATM    5  C   UNK N   1      20.178  15.083   7.095  0.00  0.00     0.111 C 
BRANCH   5   6
HETATM    6  C   UNK N   1      20.425  15.360   8.582  0.00  0.00     0.010 C 
BRANCH   6   7
HETATM    7  C   UNK N   1      21.472  14.469   9.243  0.00  0.00     0.000 C 
BRANCH   7   8
HETATM    8  C   UNK N   1      20.870  13.235   9.893  0.00  0.00     0.000 C 
BRANCH   8   9
HETATM    9  C   UNK N   1      21.844  12.640  10.904  0.00  0.00     0.000 C 
BRANCH   9  10
HETATM   10  C   UNK N   1      22.768  11.604  10.271  0.00  0.00     0.004 C 
BRANCH  10  11
HETATM   11  C   UNK N   1      24.197  12.124  10.187  0.00  0.00     0.027 C 
BRANCH  11  12
HETATM   12  C   UNK N   1      24.559  12.360   8.763  0.00  0.00    -0.031 C 
HETATM   13  C   UNK N   1      24.976  13.562   8.365  0.00  0.00    -0.031 C 
BRANCH  13  14
HETATM   14  C   UNK N   1      25.381  13.809   6.952  0.00  0.00     0.027 C 
BRANCH  14  15
HETATM   15  C   UNK N   1      24.893  15.167   6.479  0.00  0.00     0.004 C 
BRANCH  15  16
HETATM   16  C   UNK N   1      23.615  15.016   5.670  0.00  0.00     0.000 C 
BRANCH  16  17
HETATM   17  C   UNK N   1      23.840  14.064   4.514  0.00  0.00     0.000 C 
BRANCH  17  18
HETATM   18  C   UNK N   1      23.943  14.821   3.201  0.00  0.00     0.000 C 
BRANCH  18  19
HETATM   19  C   UNK N   1      24.364  13.886   2.076  0.00  0.00    -0.000 C 
BRANCH  19  20
HETATM   20  C   UNK N   1      23.617  14.187   0.786  0.00  0.00    -0.005 C 
HETATM   21  C   UNK N   1      23.578  12.958  -0.104  0.00  0.00     0.005 C 
ENDBRANCH  19  20
ENDBRANCH  18  19
ENDBRANCH  17  18
ENDBRANCH  16  17
ENDBRANCH  15  16
ENDBRANCH  14  15
ENDBRANCH  13  14
ENDBRANCH  11  12
ENDBRANCH  10  11
ENDBRANCH   9  10
ENDBRANCH   8   9
ENDBRANCH   7   8
ENDBRANCH   6   7
ENDBRANCH   5   6
ENDBRANCH   3   5
ENDBRANCH   2   3
ENDBRANCH   1   2
BRANCH   1  22
HETATM   22  C   UNK N   1      20.479  17.066   3.103  0.00  0.00     0.183 C 
HETATM   23  C   UNK N   1      19.654  18.322   3.314  0.00  0.00     0.226 C 
HETATM   24  C   UNK N   1      20.708  19.399   3.406  0.00  0.00     0.314 C 
HETATM   25  C   UNK N   1      21.989  18.643   3.019  0.00  0.00     0.307 C 
HETATM   26  F   UNK N   1      20.469  20.482   2.576  0.00  0.00    -0.198 F 
HETATM   27  F   UNK N   1      20.724  19.802   4.730  0.00  0.00    -0.198 F 
HETATM   28  O   UNK N   1      21.796  17.334   3.456  0.00  0.00    -0.350 OA
BRANCH  23  29
HETATM   29  O   UNK N   1      18.803  18.507   2.223  0.00  0.00    -0.387 OA
HETATM   30  H   UNK N   1      18.423  19.322   1.862  0.00  0.00     0.210 HD
ENDBRANCH  23  29
BRANCH  25  31
HETATM   31  N   UNK N   1      23.246  19.157   3.594  0.00  0.00    -0.276 N 
HETATM   32  C   UNK N   1      23.825  18.560   4.678  0.00  0.00     0.102 A 
HETATM   33  C   UNK N   1      25.058  18.990   5.155  0.00  0.00     0.065 A 
HETATM   34  C   UNK N   1      25.699  20.037   4.509  0.00  0.00     0.103 A 
HETATM   35  N   UNK N   1      25.108  20.644   3.449  0.00  0.00    -0.295 N 
HETATM   36  C   UNK N   1      23.890  20.225   2.990  0.00  0.00     0.330 A 
ATOM     37  HN  UNK N   1      25.578  21.423   2.989  1.00  0.00     0.172 HD
HETATM   38  O   UNK N   1      23.396  20.781   2.020  0.00  0.00    -0.246 OA
BRANCH  34  39
HETATM   39  N   UNK N   1      26.967  20.463   4.943  0.00  0.00    -0.385 N 
HETATM   40  H   UNK N   1      27.769  19.929   4.739  0.00  0.00     0.157 HD
HETATM   41  H   UNK N   1      27.054  21.301   5.454  0.00  0.00     0.157 HD
ENDBRANCH  34  39
ENDBRANCH  25  31
ENDBRANCH   1  22
TORSDOF 21
ENDMDL
MODEL 8
REMARK VINA RESULT:      -6.4      8.773     12.027
REMARK  21 active torsions:
REMARK  status: ('A' for Active; 'I' for Inactive)
REMARK    1  A    between atoms: C_2  and  C_3 
REMARK    2  A    between atoms: C_3  and  C_4 
REMARK    3  A    between atoms: C_4  and  C_5 
REMARK    4  A    between atoms: C_5  and  C_6 
REMARK    5  A    between atoms: C_6  and  C_7 
REMARK    6  A    between atoms: C_7  and  C_8 
REMARK    7  A    between atoms: C_8  and  C_9 
REMARK    8  A    between atoms: C_10  and  C_11 
REMARK    9  A    between atoms: C_11  and  C_12 
REMARK   10  A    between atoms: C_12  and  C_13 
REMARK   11  A    between atoms: C_13  and  C_14 
REMARK   12  A    between atoms: C_14  and  C_15 
REMARK   13  A    between atoms: C_15  and  C_16 
REMARK   14  A    between atoms: C_16  and  C_17 
REMARK   15  A    between atoms: C_17  and  C_18 
REMARK   16  A    between atoms: C_18  and  O_20 
REMARK   17  A    between atoms: O_20  and  C_21 
REMARK   18  A    between atoms: C_22  and  C_21 
REMARK   19  A    between atoms: C_23  and  O_38 
REMARK   20  A    between atoms: C_25  and  N_27 
REMARK   21  A    between atoms: C_30  and  N_35 
ROOT
HETATM    1  C   UNK N   1      24.130  16.102   5.567  0.00  0.00     0.213 C 
ENDROOT
BRANCH   1   2
HETATM    2  O   UNK N   1      24.986  15.063   5.833  0.00  0.00    -0.319 OA
BRANCH   2   3
HETATM    3  C   UNK N   1      26.234  15.283   6.306  0.00  0.00     0.258 C 
HETATM    4  O   UNK N   1      26.372  15.730   7.433  0.00  0.00    -0.265 OA
BRANCH   3   5
HETATM    5  C   UNK N   1      27.454  14.984   5.467  0.00  0.00     0.111 C 
BRANCH   5   6
HETATM    6  C   UNK N   1      28.092  16.257   4.900  0.00  0.00     0.010 C 
BRANCH   6   7
HETATM    7  C   UNK N   1      27.362  16.876   3.713  0.00  0.00     0.000 C 
BRANCH   7   8
HETATM    8  C   UNK N   1      27.439  18.394   3.700  0.00  0.00     0.000 C 
BRANCH   8   9
HETATM    9  C   UNK N   1      26.051  18.996   3.881  0.00  0.00     0.000 C 
BRANCH   9  10
HETATM   10  C   UNK N   1      25.907  19.720   5.216  0.00  0.00     0.004 C 
BRANCH  10  11
HETATM   11  C   UNK N   1      27.074  20.670   5.451  0.00  0.00     0.027 C 
BRANCH  11  12
HETATM   12  C   UNK N   1      27.752  20.321   6.730  0.00  0.00    -0.031 C 
HETATM   13  C   UNK N   1      27.653  19.090   7.230  0.00  0.00    -0.031 C 
BRANCH  13  14
HETATM   14  C   UNK N   1      28.357  18.709   8.488  0.00  0.00     0.027 C 
BRANCH  14  15
HETATM   15  C   UNK N   1      29.382  17.619   8.226  0.00  0.00     0.004 C 
BRANCH  15  16
HETATM   16  C   UNK N   1      30.753  18.057   8.715  0.00  0.00     0.000 C 
BRANCH  16  17
HETATM   17  C   UNK N   1      31.834  17.462   7.837  0.00  0.00     0.000 C 
BRANCH  17  18
HETATM   18  C   UNK N   1      31.415  16.101   7.308  0.00  0.00     0.000 C 
BRANCH  18  19
HETATM   19  C   UNK N   1      31.690  16.000   5.815  0.00  0.00    -0.000 C 
BRANCH  19  20
HETATM   20  C   UNK N   1      31.605  17.358   5.135  0.00  0.00    -0.005 C 
HETATM   21  C   UNK N   1      32.728  17.518   4.126  0.00  0.00     0.005 C 
ENDBRANCH  19  20
ENDBRANCH  18  19
ENDBRANCH  17  18
ENDBRANCH  16  17
ENDBRANCH  15  16
ENDBRANCH  14  15
ENDBRANCH  13  14
ENDBRANCH  11  12
ENDBRANCH  10  11
ENDBRANCH   9  10
ENDBRANCH   8   9
ENDBRANCH   7   8
ENDBRANCH   6   7
ENDBRANCH   5   6
ENDBRANCH   3   5
ENDBRANCH   2   3
ENDBRANCH   1   2
BRANCH   1  22
HETATM   22  C   UNK N   1      22.787  15.734   6.136  0.00  0.00     0.183 C 
HETATM   23  C   UNK N   1      22.073  14.688   5.300  0.00  0.00     0.226 C 
HETATM   24  C   UNK N   1      21.528  13.744   6.345  0.00  0.00     0.314 C 
HETATM   25  C   UNK N   1      21.821  14.494   7.654  0.00  0.00     0.307 C 
HETATM   26  F   UNK N   1      20.180  13.465   6.193  0.00  0.00    -0.198 F 
HETATM   27  F   UNK N   1      22.275  12.584   6.234  0.00  0.00    -0.198 F 
HETATM   28  O   UNK N   1      22.984  15.224   7.414  0.00  0.00    -0.350 OA
BRANCH  23  29
HETATM   29  O   UNK N   1      21.059  15.299   4.560  0.00  0.00    -0.387 OA
HETATM   30  H   UNK N   1      20.998  16.203   4.215  0.00  0.00     0.210 HD
ENDBRANCH  23  29
BRANCH  25  31
HETATM   31  N   UNK N   1      22.024  13.656   8.852  0.00  0.00    -0.276 N 
HETATM   32  C   UNK N   1      23.264  13.197   9.193  0.00  0.00     0.102 A 
HETATM   33  C   UNK N   1      23.463  12.490  10.373  0.00  0.00     0.065 A 
HETATM   34  C   UNK N   1      22.378  12.260  11.208  0.00  0.00     0.103 A 
HETATM   35  N   UNK N   1      21.144  12.696  10.852  0.00  0.00    -0.295 N 
HETATM   36  C   UNK N   1      20.951  13.382   9.685  0.00  0.00     0.330 A 
ATOM     37  HN  UNK N   1      20.349  12.511  11.463  1.00  0.00     0.172 HD
HETATM   38  O   UNK N   1      19.829  13.778   9.405  0.00  0.00    -0.246 OA
BRANCH  34  39
HETATM   39  N   UNK N   1      22.559  11.587  12.429  0.00  0.00    -0.385 N 
HETATM   40  H   UNK N   1      21.928  11.725  13.173  0.00  0.00     0.157 HD
HETATM   41  H   UNK N   1      23.321  10.973  12.542  0.00  0.00     0.157 HD
ENDBRANCH  34  39
ENDBRANCH  25  31
ENDBRANCH   1  22
TORSDOF 21
ENDMDL
MODEL 9
REMARK VINA RESULT:      -6.4      4.855     13.133
REMARK  21 active torsions:
REMARK  status: ('A' for Active; 'I' for Inactive)
REMARK    1  A    between atoms: C_2  and  C_3 
REMARK    2  A    between atoms: C_3  and  C_4 
REMARK    3  A    between atoms: C_4  and  C_5 
REMARK    4  A    between atoms: C_5  and  C_6 
REMARK    5  A    between atoms: C_6  and  C_7 
REMARK    6  A    between atoms: C_7  and  C_8 
REMARK    7  A    between atoms: C_8  and  C_9 
REMARK    8  A    between atoms: C_10  and  C_11 
REMARK    9  A    between atoms: C_11  and  C_12 
REMARK   10  A    between atoms: C_12  and  C_13 
REMARK   11  A    between atoms: C_13  and  C_14 
REMARK   12  A    between atoms: C_14  and  C_15 
REMARK   13  A    between atoms: C_15  and  C_16 
REMARK   14  A    between atoms: C_16  and  C_17 
REMARK   15  A    between atoms: C_17  and  C_18 
REMARK   16  A    between atoms: C_18  and  O_20 
REMARK   17  A    between atoms: O_20  and  C_21 
REMARK   18  A    between atoms: C_22  and  C_21 
REMARK   19  A    between atoms: C_23  and  O_38 
REMARK   20  A    between atoms: C_25  and  N_27 
REMARK   21  A    between atoms: C_30  and  N_35 
ROOT
HETATM    1  C   UNK N   1      35.034  12.088  13.163  0.00  0.00     0.213 C 
ENDROOT
BRANCH   1   2
HETATM    2  O   UNK N   1      34.186  12.508  14.157  0.00  0.00    -0.319 OA
BRANCH   2   3
HETATM    3  C   UNK N   1      34.553  12.470  15.458  0.00  0.00     0.258 C 
HETATM    4  O   UNK N   1      34.179  13.358  16.207  0.00  0.00    -0.265 OA
BRANCH   3   5
HETATM    5  C   UNK N   1      35.413  11.351  15.997  0.00  0.00     0.111 C 
BRANCH   5   6
HETATM    6  C   UNK N   1      34.617  10.058  16.204  0.00  0.00     0.010 C 
BRANCH   6   7
HETATM    7  C   UNK N   1      34.683   9.473  17.612  0.00  0.00     0.000 C 
BRANCH   7   8
HETATM    8  C   UNK N   1      35.706   8.357  17.739  0.00  0.00     0.000 C 
BRANCH   8   9
HETATM    9  C   UNK N   1      36.936   8.849  18.491  0.00  0.00     0.000 C 
BRANCH   9  10
HETATM   10  C   UNK N   1      36.622  10.043  19.389  0.00  0.00     0.004 C 
BRANCH  10  11
HETATM   11  C   UNK N   1      36.362   9.596  20.822  0.00  0.00     0.027 C 
BRANCH  11  12
HETATM   12  C   UNK N   1      34.968   9.944  21.208  0.00  0.00    -0.031 C 
HETATM   13  C   UNK N   1      34.498   9.608  22.409  0.00  0.00    -0.031 C 
BRANCH  13  14
HETATM   14  C   UNK N   1      33.117   9.983  22.830  0.00  0.00     0.027 C 
BRANCH  14  15
HETATM   15  C   UNK N   1      32.146   9.857  21.669  0.00  0.00     0.004 C 
BRANCH  15  16
HETATM   16  C   UNK N   1      31.707   8.411  21.503  0.00  0.00     0.000 C 
BRANCH  16  17
HETATM   17  C   UNK N   1      31.342   8.139  20.059  0.00  0.00     0.000 C 
BRANCH  17  18
HETATM   18  C   UNK N   1      31.848   6.775  19.620  0.00  0.00     0.000 C 
BRANCH  18  19
HETATM   19  C   UNK N   1      32.802   6.200  20.657  0.00  0.00    -0.000 C 
BRANCH  19  20
HETATM   20  C   UNK N   1      34.239   6.200  20.160  0.00  0.00    -0.005 C 
HETATM   21  C   UNK N   1      35.205   6.084  21.324  0.00  0.00     0.005 C 
ENDBRANCH  19  20
ENDBRANCH  18  19
ENDBRANCH  17  18
ENDBRANCH  16  17
ENDBRANCH  15  16
ENDBRANCH  14  15
ENDBRANCH  13  14
ENDBRANCH  11  12
ENDBRANCH  10  11
ENDBRANCH   9  10
ENDBRANCH   8   9
ENDBRANCH   7   8
ENDBRANCH   6   7
ENDBRANCH   5   6
ENDBRANCH   3   5
ENDBRANCH   2   3
ENDBRANCH   1   2
BRANCH   1  22
HETATM   22  C   UNK N   1      35.680  13.314  12.577  0.00  0.00     0.183 C 
HETATM   23  C   UNK N   1      36.714  12.972  11.521  0.00  0.00     0.226 C 
HETATM   24  C   UNK N   1      36.416  13.972  10.430  0.00  0.00     0.314 C 
HETATM   25  C   UNK N   1      35.387  14.896  11.099  0.00  0.00     0.307 C 
HETATM   26  F   UNK N   1      37.533  14.665   9.991  0.00  0.00    -0.198 F 
HETATM   27  F   UNK N   1      35.862  13.246   9.390  0.00  0.00    -0.198 F 
HETATM   28  O   UNK N   1      34.685  14.088  11.992  0.00  0.00    -0.350 OA
BRANCH  23  29
HETATM   29  O   UNK N   1      37.994  13.138  12.054  0.00  0.00    -0.387 OA
HETATM   30  H   UNK N   1      38.780  13.553  11.668  0.00  0.00     0.210 HD
ENDBRANCH  23  29
BRANCH  25  31
HETATM   31  N   UNK N   1      34.424  15.558  10.198  0.00  0.00    -0.276 N 
HETATM   32  C   UNK N   1      33.310  14.907   9.752  0.00  0.00     0.102 A 
HETATM   33  C   UNK N   1      32.358  15.567   8.982  0.00  0.00     0.065 A 
HETATM   34  C   UNK N   1      32.556  16.906   8.675  0.00  0.00     0.103 A 
HETATM   35  N   UNK N   1      33.677  17.541   9.098  0.00  0.00    -0.295 N 
HETATM   36  C   UNK N   1      34.615  16.885   9.847  0.00  0.00     0.330 A 
ATOM     37  HN  UNK N   1      33.823  18.520   8.857  1.00  0.00     0.172 HD
HETATM   38  O   UNK N   1      35.604  17.493  10.230  0.00  0.00    -0.246 OA
BRANCH  34  39
HETATM   39  N   UNK N   1      31.588  17.610   7.935  0.00  0.00    -0.385 N 
HETATM   40  H   UNK N   1      31.058  17.150   7.245  0.00  0.00     0.157 HD
HETATM   41  H   UNK N   1      31.440  18.568   8.109  0.00  0.00     0.157 HD
ENDBRANCH  34  39
ENDBRANCH  25  31
ENDBRANCH   1  22
TORSDOF 21
ENDMDL
