REMARK  7 active torsions:
REMARK  status: ('A' for Active; 'I' for Inactive)
REMARK    1  A    between atoms: C_2  and  C_4 
REMARK    2  A    between atoms: C_7  and  N_11 
REMARK    3  A    between atoms: C_14  and  C_17 
REMARK    4  A    between atoms: C_17  and  O_18 
REMARK    5  A    between atoms: O_18  and  C_19 
REMARK    6  A    between atoms: C_22  and  C_26 
REMARK    7  A    between atoms: C_29  and  S_32 
ROOT
HETATM    1  O   UNK N   1       4.251 -10.804  -0.967  0.00  0.00    -0.349 OA
ENDROOT
BRANCH   1   2
HETATM    2  C   UNK N   1       2.884 -10.972  -0.920  0.00  0.00     0.180 C 
BRANCH   2   3
HETATM    3  C   UNK N   1       2.372 -10.592   0.469  0.00  0.00     0.013 C 
HETATM    4  C   UNK N   1       2.881  -9.200   0.850  0.00  0.00     0.027 C 
HETATM    5  C   UNK N   1       2.370  -8.197  -0.174  0.00  0.00     0.127 C 
HETATM    6  N   UNK N   1       0.929  -8.268  -0.206  0.00  0.00    -0.346 N 
HETATM    7  C   UNK N   1       0.276  -9.536  -0.450  0.00  0.00     0.127 C 
HETATM    8  C   UNK N   1       0.839 -10.603   0.494  0.00  0.00     0.027 C 
BRANCH   6   9
HETATM    9  C   UNK N   1       0.180  -7.095   0.014  0.00  0.00     0.246 A 
HETATM   10  N   UNK N   1       0.732  -5.881   0.171  0.00  0.00    -0.308 N 
HETATM   11  C   UNK N   1      -0.345  -5.088   0.316  0.00  0.00     0.108 A 
ATOM     12  HN  UNK N   1       1.720  -5.625   0.179  1.00  0.00     0.170 HD
HETATM   13  N   UNK N   1      -1.490  -5.799   0.253  0.00  0.00    -0.245 N 
HETATM   14  O   UNK N   1      -1.127  -7.033   0.063  0.00  0.00    -0.199 OA
ATOM     15  HN  UNK N   1      -2.442  -5.443   0.338  1.00  0.00     0.196 HD
BRANCH  11  16
HETATM   16  C   UNK N   1      -0.280  -3.604   0.503  0.00  0.00     0.047 C 
HETATM   17  C   UNK N   1      -1.005  -2.915  -0.635  0.00  0.00     0.017 C 
HETATM   18  C   UNK N   1       1.157  -3.109   0.541  0.00  0.00     0.017 C 
ENDBRANCH  11  16
ENDBRANCH   6   9
ENDBRANCH   2   3
ENDBRANCH   1   2
BRANCH   1  19
HETATM   19  C   UNK N   1       5.106 -11.777  -0.597  0.00  0.00     0.084 A 
HETATM   20  C   UNK N   1       6.480 -11.544  -0.642  0.00  0.00     0.040 A 
HETATM   21  C   UNK N   1       7.365 -12.575  -0.330  0.00  0.00     0.033 A 
HETATM   22  C   UNK N   1       6.857 -13.832   0.031  0.00  0.00     0.042 A 
HETATM   23  N   UNK N   1       5.511 -14.019   0.106  0.00  0.00    -0.363 N 
HETATM   24  C   UNK N   1       4.638 -13.031  -0.190  0.00  0.00     0.125 A 
ATOM     25  HN  UNK N   1       5.152 -14.930   0.392  1.00  0.00     0.165 HD
BRANCH  22  26
HETATM   26  C   UNK N   1       7.743 -14.991   0.188  0.00  0.00    -0.009 A 
HETATM   27  C   UNK N   1       9.130 -14.874   0.012  0.00  0.00     0.015 A 
HETATM   28  C   UNK N   1       9.932 -16.018   0.008  0.00  0.00     0.024 A 
HETATM   29  C   UNK N   1       9.350 -17.279   0.171  0.00  0.00     0.058 A 
HETATM   30  C   UNK N   1       7.974 -17.396   0.372  0.00  0.00     0.024 A 
HETATM   31  C   UNK N   1       7.175 -16.257   0.380  0.00  0.00     0.015 A 
BRANCH  29  32
HETATM   32  S   UNK N   1      10.353 -18.747   0.056  0.00  0.00     0.171 S 
HETATM   33  O   UNK N   1      10.507 -19.328   1.468  0.00  0.00    -0.223 OA
HETATM   34  O   UNK N   1       9.460 -19.837  -0.560  0.00  0.00    -0.223 OA
HETATM   35  C   UNK N   1      11.950 -18.851  -0.795  0.00  0.00     0.167 C 
ENDBRANCH  29  32
ENDBRANCH  22  26
ENDBRANCH   1  19
TORSDOF 7
