MODEL 1
REMARK VINA RESULT:      -8.0      0.000      0.000
REMARK  6 active torsions:
REMARK  status: ('A' for Active; 'I' for Inactive)
REMARK    1  A    between atoms: C_5  and  C_12 
REMARK    2  A    between atoms: C_12  and  N_13 
REMARK    3  A    between atoms: C_19  and  C_22 
REMARK    4  A    between atoms: N_26  and  C_28 
REMARK    5  A    between atoms: C_28  and  C_29 
REMARK    6  A    between atoms: C_29  and  O_30 
ROOT
HETATM    1  N   UNK N   1      36.005  10.839  12.526  0.00  0.00    -0.253 N 
HETATM    2  C   UNK N   1      36.466  11.806  11.763  0.00  0.00     0.167 A 
HETATM    3  C   UNK N   1      37.600  11.421  11.186  0.00  0.00     0.164 A 
HETATM    4  N   UNK N   1      38.286  12.238  10.343  0.00  0.00    -0.346 N 
ATOM      5  HN  UNK N   1      39.156  11.936   9.904  1.00  0.00     0.167 HD
HETATM    6  C   UNK N   1      37.761  13.496  10.102  0.00  0.00     0.120 A 
HETATM    7  C   UNK N   1      36.538  13.879  10.740  0.00  0.00     0.062 A 
HETATM    8  N   UNK N   1      35.919  13.000  11.566  0.00  0.00    -0.336 N 
ATOM      9  HN  UNK N   1      35.046  13.252  12.030  1.00  0.00     0.168 HD
HETATM   10  N   UNK N   1      37.873  10.166  11.596  0.00  0.00    -0.266 N 
ATOM     11  HN  UNK N   1      38.674   9.593  11.331  1.00  0.00     0.186 HD
HETATM   12  N   UNK N   1      36.873   9.828  12.422  0.00  0.00    -0.017 NA
ENDROOT
BRANCH   1  13
HETATM   13  C   UNK N   1      34.761  10.964  13.299  0.00  0.00     0.187 C 
BRANCH  13  14
HETATM   14  C   UNK N   1      34.884  11.014  14.779  0.00  0.00    -0.038 A 
HETATM   15  C   UNK N   1      34.939  12.227  15.454  0.00  0.00     0.022 A 
HETATM   16  C   UNK N   1      35.054  12.257  16.830  0.00  0.00    -0.009 A 
HETATM   17  C   UNK N   1      35.109  13.475  17.494  0.00  0.00     0.015 A 
HETATM   18  C   UNK N   1      35.114  11.054  17.562  0.00  0.00     0.042 A 
HETATM   19  C   UNK N   1      35.223  13.492  18.881  0.00  0.00     0.018 A 
HETATM   20  C   UNK N   1      35.281  12.282  19.582  0.00  0.00     0.088 A 
HETATM   21  N   UNK N   1      35.226  11.095  18.915  0.00  0.00    -0.365 N 
ATOM     22  HN  UNK N   1      35.270  10.222  19.441  1.00  0.00     0.165 HD
HETATM   23  C   UNK N   1      35.058   9.829  16.890  0.00  0.00     0.031 A 
HETATM   24  C   UNK N   1      34.944   9.810  15.495  0.00  0.00     0.011 A 
ENDBRANCH  13  14
ENDBRANCH   1  13
BRANCH   7  25
HETATM   25  C   UNK N   1      35.855  15.159  10.594  0.00  0.00     0.026 A 
HETATM   26  C   UNK N   1      35.828  16.325  11.338  0.00  0.00     0.122 A 
HETATM   27  N   UNK N   1      34.998  17.191  10.699  0.00  0.00    -0.309 N 
HETATM   28  N   UNK N   1      34.530  16.595   9.611  0.00  0.00    -0.301 N 
ATOM     29  HN  UNK N   1      34.773  18.138  11.006  1.00  0.00     0.186 HD
HETATM   30  C   UNK N   1      35.031  15.367   9.521  0.00  0.00     0.125 A 
BRANCH  28  31
HETATM   31  C   UNK N   1      33.603  17.180   8.641  0.00  0.00     0.174 C 
BRANCH  31  32
HETATM   32  C   UNK N   1      34.335  18.158   7.707  0.00  0.00     0.185 C 
BRANCH  32  33
HETATM   33  O   UNK N   1      35.063  19.097   8.433  0.00  0.00    -0.399 OA
HETATM   34  H   UNK N   1      35.573  18.820   9.209  0.00  0.00     0.209 HD
ENDBRANCH  32  33
ENDBRANCH  31  32
ENDBRANCH  28  31
ENDBRANCH   7  25
TORSDOF 6
ENDMDL
MODEL 2
REMARK VINA RESULT:      -7.8      1.381      2.141
REMARK  6 active torsions:
REMARK  status: ('A' for Active; 'I' for Inactive)
REMARK    1  A    between atoms: C_5  and  C_12 
REMARK    2  A    between atoms: C_12  and  N_13 
REMARK    3  A    between atoms: C_19  and  C_22 
REMARK    4  A    between atoms: N_26  and  C_28 
REMARK    5  A    between atoms: C_28  and  C_29 
REMARK    6  A    between atoms: C_29  and  O_30 
ROOT
HETATM    1  N   UNK N   1      36.291  12.407  14.058  0.00  0.00    -0.253 N 
HETATM    2  C   UNK N   1      36.580  12.932  12.887  0.00  0.00     0.167 A 
HETATM    3  C   UNK N   1      37.671  12.355  12.394  0.00  0.00     0.164 A 
HETATM    4  N   UNK N   1      38.187  12.716  11.189  0.00  0.00    -0.346 N 
ATOM      5  HN  UNK N   1      39.025  12.269  10.816  1.00  0.00     0.167 HD
HETATM    6  C   UNK N   1      37.534  13.713  10.485  0.00  0.00     0.120 A 
HETATM    7  C   UNK N   1      36.361  14.313  11.044  0.00  0.00     0.062 A 
HETATM    8  N   UNK N   1      35.915  13.891  12.254  0.00  0.00    -0.336 N 
ATOM      9  HN  UNK N   1      35.082  14.305  12.671  1.00  0.00     0.168 HD
HETATM   10  N   UNK N   1      38.093  11.431  13.280  0.00  0.00    -0.266 N 
ATOM     11  HN  UNK N   1      38.906  10.820  13.192  1.00  0.00     0.186 HD
HETATM   12  N   UNK N   1      37.225  11.481  14.299  0.00  0.00    -0.017 NA
ENDROOT
BRANCH   1  13
HETATM   13  C   UNK N   1      35.135  12.838  14.856  0.00  0.00     0.187 C 
BRANCH  13  14
HETATM   14  C   UNK N   1      35.145  12.501  16.303  0.00  0.00    -0.038 A 
HETATM   15  C   UNK N   1      35.055  11.184  16.735  0.00  0.00     0.022 A 
HETATM   16  C   UNK N   1      35.067  10.888  18.083  0.00  0.00    -0.009 A 
HETATM   17  C   UNK N   1      34.975   9.567  18.503  0.00  0.00     0.015 A 
HETATM   18  C   UNK N   1      35.170  11.922  19.035  0.00  0.00     0.042 A 
HETATM   19  C   UNK N   1      34.988   9.282  19.865  0.00  0.00     0.018 A 
HETATM   20  C   UNK N   1      35.093  10.329  20.787  0.00  0.00     0.088 A 
HETATM   21  N   UNK N   1      35.182  11.619  20.359  0.00  0.00    -0.365 N 
ATOM     22  HN  UNK N   1      35.257  12.371  21.044  1.00  0.00     0.165 HD
HETATM   23  C   UNK N   1      35.262  13.251  18.609  0.00  0.00     0.031 A 
HETATM   24  C   UNK N   1      35.249  13.540  17.240  0.00  0.00     0.011 A 
ENDBRANCH  13  14
ENDBRANCH   1  13
BRANCH   7  25
HETATM   25  C   UNK N   1      35.561  15.369  10.436  0.00  0.00     0.026 A 
HETATM   26  C   UNK N   1      35.364  16.709  10.716  0.00  0.00     0.122 A 
HETATM   27  N   UNK N   1      34.492  17.190   9.791  0.00  0.00    -0.309 N 
HETATM   28  N   UNK N   1      34.160  16.199   8.975  0.00  0.00    -0.301 N 
ATOM     29  HN  UNK N   1      34.151  18.150   9.735  1.00  0.00     0.186 HD
HETATM   30  C   UNK N   1      34.791  15.086   9.341  0.00  0.00     0.125 A 
BRANCH  28  31
HETATM   31  C   UNK N   1      33.242  16.290   7.839  0.00  0.00     0.174 C 
BRANCH  31  32
HETATM   32  C   UNK N   1      33.940  16.924   6.624  0.00  0.00     0.185 C 
BRANCH  32  33
HETATM   33  O   UNK N   1      34.515  18.147   6.957  0.00  0.00    -0.399 OA
HETATM   34  H   UNK N   1      35.467  18.204   7.130  0.00  0.00     0.209 HD
ENDBRANCH  32  33
ENDBRANCH  31  32
ENDBRANCH  28  31
ENDBRANCH   7  25
TORSDOF 6
ENDMDL
MODEL 3
REMARK VINA RESULT:      -7.5      4.126     10.401
REMARK  6 active torsions:
REMARK  status: ('A' for Active; 'I' for Inactive)
REMARK    1  A    between atoms: C_5  and  C_12 
REMARK    2  A    between atoms: C_12  and  N_13 
REMARK    3  A    between atoms: C_19  and  C_22 
REMARK    4  A    between atoms: N_26  and  C_28 
REMARK    5  A    between atoms: C_28  and  C_29 
REMARK    6  A    between atoms: C_29  and  O_30 
ROOT
HETATM    1  N   UNK N   1      34.466  16.941   7.158  0.00  0.00    -0.253 N 
HETATM    2  C   UNK N   1      34.624  16.430   8.360  0.00  0.00     0.167 A 
HETATM    3  C   UNK N   1      34.803  17.408   9.243  0.00  0.00     0.164 A 
HETATM    4  N   UNK N   1      34.990  17.152  10.565  0.00  0.00    -0.346 N 
ATOM      5  HN  UNK N   1      35.128  17.907  11.236  1.00  0.00     0.167 HD
HETATM    6  C   UNK N   1      34.988  15.827  10.966  0.00  0.00     0.120 A 
HETATM    7  C   UNK N   1      34.792  14.798   9.990  0.00  0.00     0.062 A 
HETATM    8  N   UNK N   1      34.612  15.145   8.692  0.00  0.00    -0.336 N 
ATOM      9  HN  UNK N   1      34.470  14.428   7.980  1.00  0.00     0.168 HD
HETATM   10  N   UNK N   1      34.760  18.582   8.581  0.00  0.00    -0.266 N 
ATOM     11  HN  UNK N   1      34.865  19.516   8.978  1.00  0.00     0.186 HD
HETATM   12  N   UNK N   1      34.550  18.267   7.296  0.00  0.00    -0.017 NA
ENDROOT
BRANCH   1  13
HETATM   13  C   UNK N   1      34.247  16.109   5.966  0.00  0.00     0.187 C 
BRANCH  13  14
HETATM   14  C   UNK N   1      33.000  16.344   5.194  0.00  0.00    -0.038 A 
HETATM   15  C   UNK N   1      31.762  16.392   5.824  0.00  0.00     0.022 A 
HETATM   16  C   UNK N   1      30.614  16.613   5.091  0.00  0.00    -0.009 A 
HETATM   17  C   UNK N   1      29.382  16.658   5.732  0.00  0.00     0.015 A 
HETATM   18  C   UNK N   1      30.687  16.792   3.695  0.00  0.00     0.042 A 
HETATM   19  C   UNK N   1      28.231  16.881   4.982  0.00  0.00     0.018 A 
HETATM   20  C   UNK N   1      28.333  17.056   3.597  0.00  0.00     0.088 A 
HETATM   21  N   UNK N   1      29.549  17.009   2.984  0.00  0.00    -0.365 N 
ATOM     22  HN  UNK N   1      29.607  17.138   1.974  1.00  0.00     0.165 HD
HETATM   23  C   UNK N   1      31.928  16.746   3.053  0.00  0.00     0.031 A 
HETATM   24  C   UNK N   1      33.087  16.521   3.805  0.00  0.00     0.011 A 
ENDBRANCH  13  14
ENDBRANCH   1  13
BRANCH   7  25
HETATM   25  C   UNK N   1      34.763  13.363  10.246  0.00  0.00     0.026 A 
HETATM   26  C   UNK N   1      34.274  12.272   9.551  0.00  0.00     0.122 A 
HETATM   27  N   UNK N   1      34.538  11.168  10.297  0.00  0.00    -0.309 N 
HETATM   28  N   UNK N   1      35.160  11.551  11.404  0.00  0.00    -0.301 N 
ATOM     29  HN  UNK N   1      34.297  10.208  10.048  1.00  0.00     0.186 HD
HETATM   30  C   UNK N   1      35.310  12.872  11.401  0.00  0.00     0.125 A 
BRANCH  28  31
HETATM   31  C   UNK N   1      35.621  10.672  12.480  0.00  0.00     0.174 C 
BRANCH  31  32
HETATM   32  C   UNK N   1      34.596  10.628  13.626  0.00  0.00     0.185 C 
BRANCH  32  33
HETATM   33  O   UNK N   1      33.299  10.501  13.135  0.00  0.00    -0.399 OA
HETATM   34  H   UNK N   1      32.716   9.809  13.481  0.00  0.00     0.209 HD
ENDBRANCH  32  33
ENDBRANCH  31  32
ENDBRANCH  28  31
ENDBRANCH   7  25
TORSDOF 6
ENDMDL
MODEL 4
REMARK VINA RESULT:      -7.5      1.667      2.390
REMARK  6 active torsions:
REMARK  status: ('A' for Active; 'I' for Inactive)
REMARK    1  A    between atoms: C_5  and  C_12 
REMARK    2  A    between atoms: C_12  and  N_13 
REMARK    3  A    between atoms: C_19  and  C_22 
REMARK    4  A    between atoms: N_26  and  C_28 
REMARK    5  A    between atoms: C_28  and  C_29 
REMARK    6  A    between atoms: C_29  and  O_30 
ROOT
HETATM    1  N   UNK N   1      35.834  11.590  13.826  0.00  0.00    -0.253 N 
HETATM    2  C   UNK N   1      35.340  12.054  12.698  0.00  0.00     0.167 A 
HETATM    3  C   UNK N   1      34.855  11.050  11.974  0.00  0.00     0.164 A 
HETATM    4  N   UNK N   1      34.284  11.256  10.758  0.00  0.00    -0.346 N 
ATOM      5  HN  UNK N   1      33.914  10.481  10.208  1.00  0.00     0.167 HD
HETATM    6  C   UNK N   1      34.223  12.559  10.292  0.00  0.00     0.120 A 
HETATM    7  C   UNK N   1      34.754  13.617  11.097  0.00  0.00     0.062 A 
HETATM    8  N   UNK N   1      35.306  13.320  12.300  0.00  0.00    -0.336 N 
ATOM      9  HN  UNK N   1      35.690  14.058  12.889  1.00  0.00     0.168 HD
HETATM   10  N   UNK N   1      35.048   9.907  12.663  0.00  0.00    -0.266 N 
ATOM     11  HN  UNK N   1      34.786   8.964  12.375  1.00  0.00     0.186 HD
HETATM   12  N   UNK N   1      35.653  10.267  13.803  0.00  0.00    -0.017 NA
ENDROOT
BRANCH   1  13
HETATM   13  C   UNK N   1      36.445  12.461  14.840  0.00  0.00     0.187 C 
BRANCH  13  14
HETATM   14  C   UNK N   1      36.063  12.224  16.256  0.00  0.00    -0.038 A 
HETATM   15  C   UNK N   1      36.254  10.984  16.854  0.00  0.00     0.022 A 
HETATM   16  C   UNK N   1      35.894  10.781  18.171  0.00  0.00    -0.009 A 
HETATM   17  C   UNK N   1      36.088   9.537  18.758  0.00  0.00     0.015 A 
HETATM   18  C   UNK N   1      35.330  11.831  18.922  0.00  0.00     0.042 A 
HETATM   19  C   UNK N   1      35.722   9.344  20.086  0.00  0.00     0.018 A 
HETATM   20  C   UNK N   1      35.164  10.406  20.808  0.00  0.00     0.088 A 
HETATM   21  N   UNK N   1      34.981  11.620  20.218  0.00  0.00    -0.365 N 
ATOM     22  HN  UNK N   1      34.572  12.383  20.758  1.00  0.00     0.165 HD
HETATM   23  C   UNK N   1      35.136  13.083  18.329  0.00  0.00     0.031 A 
HETATM   24  C   UNK N   1      35.503  13.278  16.993  0.00  0.00     0.011 A 
ENDBRANCH  13  14
ENDBRANCH   1  13
BRANCH   7  25
HETATM   25  C   UNK N   1      34.768  15.034  10.755  0.00  0.00     0.026 A 
HETATM   26  C   UNK N   1      35.444  16.135  11.247  0.00  0.00     0.122 A 
HETATM   27  N   UNK N   1      35.044  17.212  10.521  0.00  0.00    -0.309 N 
HETATM   28  N   UNK N   1      34.160  16.803   9.621  0.00  0.00    -0.301 N 
ATOM     29  HN  UNK N   1      35.367  18.171  10.648  1.00  0.00     0.186 HD
HETATM   30  C   UNK N   1      33.974  15.491   9.738  0.00  0.00     0.125 A 
BRANCH  28  31
HETATM   31  C   UNK N   1      33.480  17.647   8.637  0.00  0.00     0.174 C 
BRANCH  31  32
HETATM   32  C   UNK N   1      34.500  18.413   7.779  0.00  0.00     0.185 C 
BRANCH  32  33
HETATM   33  O   UNK N   1      35.311  19.225   8.566  0.00  0.00    -0.399 OA
HETATM   34  H   UNK N   1      35.410  20.165   8.352  0.00  0.00     0.209 HD
ENDBRANCH  32  33
ENDBRANCH  31  32
ENDBRANCH  28  31
ENDBRANCH   7  25
TORSDOF 6
ENDMDL
MODEL 5
REMARK VINA RESULT:      -7.5      1.563      1.808
REMARK  6 active torsions:
REMARK  status: ('A' for Active; 'I' for Inactive)
REMARK    1  A    between atoms: C_5  and  C_12 
REMARK    2  A    between atoms: C_12  and  N_13 
REMARK    3  A    between atoms: C_19  and  C_22 
REMARK    4  A    between atoms: N_26  and  C_28 
REMARK    5  A    between atoms: C_28  and  C_29 
REMARK    6  A    between atoms: C_29  and  O_30 
ROOT
HETATM    1  N   UNK N   1      36.178  12.558  13.040  0.00  0.00    -0.253 N 
HETATM    2  C   UNK N   1      36.392  13.297  11.974  0.00  0.00     0.167 A 
HETATM    3  C   UNK N   1      37.602  13.043  11.487  0.00  0.00     0.164 A 
HETATM    4  N   UNK N   1      38.075  13.676  10.380  0.00  0.00    -0.346 N 
ATOM      5  HN  UNK N   1      39.005  13.476  10.013  1.00  0.00     0.167 HD
HETATM    6  C   UNK N   1      37.247  14.604   9.771  0.00  0.00     0.120 A 
HETATM    7  C   UNK N   1      35.950  14.854  10.321  0.00  0.00     0.062 A 
HETATM    8  N   UNK N   1      35.559  14.175  11.428  0.00  0.00    -0.336 N 
ATOM      9  HN  UNK N   1      34.638  14.338  11.836  1.00  0.00     0.168 HD
HETATM   10  N   UNK N   1      38.181  12.110  12.270  0.00  0.00    -0.266 N 
ATOM     11  HN  UNK N   1      39.110  11.705  12.160  1.00  0.00     0.186 HD
HETATM   12  N   UNK N   1      37.281  11.826  13.222  0.00  0.00    -0.017 NA
ENDROOT
BRANCH   1  13
HETATM   13  C   UNK N   1      34.923  12.614  13.804  0.00  0.00     0.187 C 
BRANCH  13  14
HETATM   14  C   UNK N   1      34.934  12.030  15.170  0.00  0.00    -0.038 A 
HETATM   15  C   UNK N   1      35.106  12.830  16.293  0.00  0.00     0.022 A 
HETATM   16  C   UNK N   1      35.113  12.271  17.555  0.00  0.00    -0.009 A 
HETATM   17  C   UNK N   1      35.287  13.081  18.670  0.00  0.00     0.015 A 
HETATM   18  C   UNK N   1      34.946  10.881  17.716  0.00  0.00     0.042 A 
HETATM   19  C   UNK N   1      35.292  12.505  19.937  0.00  0.00     0.018 A 
HETATM   20  C   UNK N   1      35.123  11.122  20.066  0.00  0.00     0.088 A 
HETATM   21  N   UNK N   1      34.954  10.341  18.963  0.00  0.00    -0.365 N 
ATOM     22  HN  UNK N   1      34.833   9.335  19.074  1.00  0.00     0.165 HD
HETATM   23  C   UNK N   1      34.772  10.068  16.591  0.00  0.00     0.031 A 
HETATM   24  C   UNK N   1      34.766  10.645  15.316  0.00  0.00     0.011 A 
ENDBRANCH  13  14
ENDBRANCH   1  13
BRANCH   7  25
HETATM   25  C   UNK N   1      34.962  15.794   9.803  0.00  0.00     0.026 A 
HETATM   26  C   UNK N   1      34.878  17.174   9.759  0.00  0.00     0.122 A 
HETATM   27  N   UNK N   1      33.706  17.486   9.147  0.00  0.00    -0.309 N 
HETATM   28  N   UNK N   1      33.089  16.357   8.826  0.00  0.00    -0.301 N 
ATOM     29  HN  UNK N   1      33.360  18.429   8.966  1.00  0.00     0.186 HD
HETATM   30  C   UNK N   1      33.824  15.319   9.210  0.00  0.00     0.125 A 
BRANCH  28  31
HETATM   31  C   UNK N   1      31.794  16.247   8.152  0.00  0.00     0.174 C 
BRANCH  31  32
HETATM   32  C   UNK N   1      30.673  16.837   9.023  0.00  0.00     0.185 C 
BRANCH  32  33
HETATM   33  O   UNK N   1      30.879  18.193   9.257  0.00  0.00    -0.399 OA
HETATM   34  H   UNK N   1      31.721  18.605   9.010  0.00  0.00     0.209 HD
ENDBRANCH  32  33
ENDBRANCH  31  32
ENDBRANCH  28  31
ENDBRANCH   7  25
TORSDOF 6
ENDMDL
MODEL 6
REMARK VINA RESULT:      -7.4      9.689     13.964
REMARK  6 active torsions:
REMARK  status: ('A' for Active; 'I' for Inactive)
REMARK    1  A    between atoms: C_5  and  C_12 
REMARK    2  A    between atoms: C_12  and  N_13 
REMARK    3  A    between atoms: C_19  and  C_22 
REMARK    4  A    between atoms: N_26  and  C_28 
REMARK    5  A    between atoms: C_28  and  C_29 
REMARK    6  A    between atoms: C_29  and  O_30 
ROOT
HETATM    1  N   UNK N   1      27.514  18.710   5.396  0.00  0.00    -0.253 N 
HETATM    2  C   UNK N   1      26.382  18.992   4.788  0.00  0.00     0.167 A 
HETATM    3  C   UNK N   1      26.601  19.874   3.818  0.00  0.00     0.164 A 
HETATM    4  N   UNK N   1      25.593  20.337   3.031  0.00  0.00    -0.346 N 
ATOM      5  HN  UNK N   1      25.769  21.014   2.289  1.00  0.00     0.167 HD
HETATM    6  C   UNK N   1      24.319  19.855   3.275  0.00  0.00     0.120 A 
HETATM    7  C   UNK N   1      24.117  18.906   4.327  0.00  0.00     0.062 A 
HETATM    8  N   UNK N   1      25.181  18.498   5.063  0.00  0.00    -0.336 N 
ATOM      9  HN  UNK N   1      25.060  17.822   5.817  1.00  0.00     0.168 HD
HETATM   10  N   UNK N   1      27.918  20.166   3.807  0.00  0.00    -0.266 N 
ATOM     11  HN  UNK N   1      28.400  20.810   3.180  1.00  0.00     0.186 HD
HETATM   12  N   UNK N   1      28.460  19.434   4.790  0.00  0.00    -0.017 NA
ENDROOT
BRANCH   1  13
HETATM   13  C   UNK N   1      27.597  17.763   6.516  0.00  0.00     0.187 C 
BRANCH  13  14
HETATM   14  C   UNK N   1      28.917  17.610   7.179  0.00  0.00    -0.038 A 
HETATM   15  C   UNK N   1      29.848  16.684   6.723  0.00  0.00     0.022 A 
HETATM   16  C   UNK N   1      31.071  16.555   7.350  0.00  0.00    -0.009 A 
HETATM   17  C   UNK N   1      31.992  15.625   6.886  0.00  0.00     0.015 A 
HETATM   18  C   UNK N   1      31.386  17.362   8.461  0.00  0.00     0.042 A 
HETATM   19  C   UNK N   1      33.222  15.504   7.526  0.00  0.00     0.018 A 
HETATM   20  C   UNK N   1      33.508  16.320   8.627  0.00  0.00     0.088 A 
HETATM   21  N   UNK N   1      32.593  17.227   9.070  0.00  0.00    -0.365 N 
ATOM     22  HN  UNK N   1      32.817  17.814   9.874  1.00  0.00     0.165 HD
HETATM   23  C   UNK N   1      30.457  18.298   8.926  0.00  0.00     0.031 A 
HETATM   24  C   UNK N   1      29.219  18.420   8.283  0.00  0.00     0.011 A 
ENDBRANCH  13  14
ENDBRANCH   1  13
BRANCH   7  25
HETATM   25  C   UNK N   1      22.846  18.304   4.712  0.00  0.00     0.026 A 
HETATM   26  C   UNK N   1      22.323  17.841   5.906  0.00  0.00     0.122 A 
HETATM   27  N   UNK N   1      21.072  17.379   5.645  0.00  0.00    -0.309 N 
HETATM   28  N   UNK N   1      20.826  17.545   4.353  0.00  0.00    -0.301 N 
ATOM     29  HN  UNK N   1      20.432  16.973   6.329  1.00  0.00     0.186 HD
HETATM   30  C   UNK N   1      21.880  18.102   3.764  0.00  0.00     0.125 A 
BRANCH  28  31
HETATM   31  C   UNK N   1      19.591  17.180   3.658  0.00  0.00     0.174 C 
BRANCH  31  32
HETATM   32  C   UNK N   1      19.448  17.970   2.347  0.00  0.00     0.185 C 
BRANCH  32  33
HETATM   33  O   UNK N   1      18.328  18.795   2.377  0.00  0.00    -0.399 OA
HETATM   34  H   UNK N   1      17.963  19.147   1.551  0.00  0.00     0.209 HD
ENDBRANCH  32  33
ENDBRANCH  31  32
ENDBRANCH  28  31
ENDBRANCH   7  25
TORSDOF 6
ENDMDL
MODEL 7
REMARK VINA RESULT:      -7.4      3.575      8.780
REMARK  6 active torsions:
REMARK  status: ('A' for Active; 'I' for Inactive)
REMARK    1  A    between atoms: C_5  and  C_12 
REMARK    2  A    between atoms: C_12  and  N_13 
REMARK    3  A    between atoms: C_19  and  C_22 
REMARK    4  A    between atoms: N_26  and  C_28 
REMARK    5  A    between atoms: C_28  and  C_29 
REMARK    6  A    between atoms: C_29  and  O_30 
ROOT
HETATM    1  N   UNK N   1      34.826  16.087   6.673  0.00  0.00    -0.253 N 
HETATM    2  C   UNK N   1      35.415  15.215   7.463  0.00  0.00     0.167 A 
HETATM    3  C   UNK N   1      35.919  14.222   6.738  0.00  0.00     0.164 A 
HETATM    4  N   UNK N   1      36.583  13.184   7.313  0.00  0.00    -0.346 N 
ATOM      5  HN  UNK N   1      36.967  12.424   6.750  1.00  0.00     0.167 HD
HETATM    6  C   UNK N   1      36.719  13.195   8.690  0.00  0.00     0.120 A 
HETATM    7  C   UNK N   1      36.165  14.280   9.441  0.00  0.00     0.062 A 
HETATM    8  N   UNK N   1      35.518  15.275   8.785  0.00  0.00    -0.336 N 
ATOM      9  HN  UNK N   1      35.116  16.058   9.301  1.00  0.00     0.168 HD
HETATM   10  N   UNK N   1      35.641  14.467   5.442  0.00  0.00    -0.266 N 
ATOM     11  HN  UNK N   1      35.893  13.890   4.639  1.00  0.00     0.186 HD
HETATM   12  N   UNK N   1      34.966  15.624   5.427  0.00  0.00    -0.017 NA
ENDROOT
BRANCH   1  13
HETATM   13  C   UNK N   1      34.171  17.301   7.181  0.00  0.00     0.187 C 
BRANCH  13  14
HETATM   14  C   UNK N   1      32.686  17.304   7.223  0.00  0.00    -0.038 A 
HETATM   15  C   UNK N   1      31.999  17.732   8.352  0.00  0.00     0.022 A 
HETATM   16  C   UNK N   1      30.619  17.729   8.374  0.00  0.00    -0.009 A 
HETATM   17  C   UNK N   1      29.944  18.158   9.509  0.00  0.00     0.015 A 
HETATM   18  C   UNK N   1      29.894  17.291   7.248  0.00  0.00     0.042 A 
HETATM   19  C   UNK N   1      28.552  18.151   9.518  0.00  0.00     0.018 A 
HETATM   20  C   UNK N   1      27.858  17.711   8.386  0.00  0.00     0.088 A 
HETATM   21  N   UNK N   1      28.535  17.293   7.280  0.00  0.00    -0.365 N 
ATOM     22  HN  UNK N   1      28.014  16.974   6.463  1.00  0.00     0.165 HD
HETATM   23  C   UNK N   1      30.577  16.859   6.107  0.00  0.00     0.031 A 
HETATM   24  C   UNK N   1      31.976  16.865   6.095  0.00  0.00     0.011 A 
ENDBRANCH  13  14
ENDBRANCH   1  13
BRANCH   7  25
HETATM   25  C   UNK N   1      36.220  14.442  10.889  0.00  0.00     0.026 A 
HETATM   26  C   UNK N   1      36.063  15.518  11.743  0.00  0.00     0.122 A 
HETATM   27  N   UNK N   1      36.230  15.055  13.010  0.00  0.00    -0.309 N 
HETATM   28  N   UNK N   1      36.480  13.754  12.949  0.00  0.00    -0.301 N 
ATOM     29  HN  UNK N   1      36.174  15.614  13.862  1.00  0.00     0.186 HD
HETATM   30  C   UNK N   1      36.480  13.356  11.681  0.00  0.00     0.125 A 
BRANCH  28  31
HETATM   31  C   UNK N   1      36.722  12.870  14.091  0.00  0.00     0.174 C 
BRANCH  31  32
HETATM   32  C   UNK N   1      36.629  13.650  15.413  0.00  0.00     0.185 C 
BRANCH  32  33
HETATM   33  O   UNK N   1      37.562  14.682  15.454  0.00  0.00    -0.399 OA
HETATM   34  H   UNK N   1      38.319  14.675  14.850  0.00  0.00     0.209 HD
ENDBRANCH  32  33
ENDBRANCH  31  32
ENDBRANCH  28  31
ENDBRANCH   7  25
TORSDOF 6
ENDMDL
MODEL 8
REMARK VINA RESULT:      -7.4      5.385     10.917
REMARK  6 active torsions:
REMARK  status: ('A' for Active; 'I' for Inactive)
REMARK    1  A    between atoms: C_5  and  C_12 
REMARK    2  A    between atoms: C_12  and  N_13 
REMARK    3  A    between atoms: C_19  and  C_22 
REMARK    4  A    between atoms: N_26  and  C_28 
REMARK    5  A    between atoms: C_28  and  C_29 
REMARK    6  A    between atoms: C_29  and  O_30 
ROOT
HETATM    1  N   UNK N   1      30.602  15.115   4.694  0.00  0.00    -0.253 N 
HETATM    2  C   UNK N   1      31.838  15.328   5.091  0.00  0.00     0.167 A 
HETATM    3  C   UNK N   1      32.672  15.163   4.069  0.00  0.00     0.164 A 
HETATM    4  N   UNK N   1      34.015  15.325   4.208  0.00  0.00    -0.346 N 
ATOM      5  HN  UNK N   1      34.648  15.197   3.419  1.00  0.00     0.167 HD
HETATM    6  C   UNK N   1      34.491  15.671   5.461  0.00  0.00     0.120 A 
HETATM    7  C   UNK N   1      33.566  15.841   6.541  0.00  0.00     0.062 A 
HETATM    8  N   UNK N   1      32.242  15.660   6.311  0.00  0.00    -0.336 N 
ATOM      9  HN  UNK N   1      31.565  15.777   7.066  1.00  0.00     0.168 HD
HETATM   10  N   UNK N   1      31.943  14.832   2.984  0.00  0.00    -0.266 N 
ATOM     11  HN  UNK N   1      32.291  14.640   2.044  1.00  0.00     0.186 HD
HETATM   12  N   UNK N   1      30.668  14.810   3.395  0.00  0.00    -0.017 NA
ENDROOT
BRANCH   1  13
HETATM   13  C   UNK N   1      29.450  15.222   5.601  0.00  0.00     0.187 C 
BRANCH  13  14
HETATM   14  C   UNK N   1      28.914  16.583   5.860  0.00  0.00    -0.038 A 
HETATM   15  C   UNK N   1      28.357  17.343   4.838  0.00  0.00     0.022 A 
HETATM   16  C   UNK N   1      27.863  18.606   5.095  0.00  0.00    -0.009 A 
HETATM   17  C   UNK N   1      27.310  19.356   4.066  0.00  0.00     0.015 A 
HETATM   18  C   UNK N   1      27.920  19.136   6.399  0.00  0.00     0.042 A 
HETATM   19  C   UNK N   1      26.814  20.628   4.338  0.00  0.00     0.018 A 
HETATM   20  C   UNK N   1      26.884  21.129   5.643  0.00  0.00     0.088 A 
HETATM   21  N   UNK N   1      27.430  20.380   6.642  0.00  0.00    -0.365 N 
ATOM     22  HN  UNK N   1      27.474  20.761   7.587  1.00  0.00     0.165 HD
HETATM   23  C   UNK N   1      28.478  18.379   7.434  0.00  0.00     0.031 A 
HETATM   24  C   UNK N   1      28.977  17.100   7.162  0.00  0.00     0.011 A 
ENDBRANCH  13  14
ENDBRANCH   1  13
BRANCH   7  25
HETATM   25  C   UNK N   1      33.902  16.202   7.913  0.00  0.00     0.026 A 
HETATM   26  C   UNK N   1      34.073  17.403   8.577  0.00  0.00     0.122 A 
HETATM   27  N   UNK N   1      34.385  17.109   9.867  0.00  0.00    -0.309 N 
HETATM   28  N   UNK N   1      34.408  15.790  10.000  0.00  0.00    -0.301 N 
ATOM     29  HN  UNK N   1      34.570  17.788  10.605  1.00  0.00     0.186 HD
HETATM   30  C   UNK N   1      34.119  15.215   8.836  0.00  0.00     0.125 A 
BRANCH  28  31
HETATM   31  C   UNK N   1      34.703  15.055  11.231  0.00  0.00     0.174 C 
BRANCH  31  32
HETATM   32  C   UNK N   1      35.977  15.599  11.899  0.00  0.00     0.185 C 
BRANCH  32  33
HETATM   33  O   UNK N   1      36.895  16.035  10.949  0.00  0.00    -0.399 OA
HETATM   34  H   UNK N   1      36.602  16.234  10.047  0.00  0.00     0.209 HD
ENDBRANCH  32  33
ENDBRANCH  31  32
ENDBRANCH  28  31
ENDBRANCH   7  25
TORSDOF 6
ENDMDL
MODEL 9
REMARK VINA RESULT:      -7.2      9.137     13.633
REMARK  6 active torsions:
REMARK  status: ('A' for Active; 'I' for Inactive)
REMARK    1  A    between atoms: C_5  and  C_12 
REMARK    2  A    between atoms: C_12  and  N_13 
REMARK    3  A    between atoms: C_19  and  C_22 
REMARK    4  A    between atoms: N_26  and  C_28 
REMARK    5  A    between atoms: C_28  and  C_29 
REMARK    6  A    between atoms: C_29  and  O_30 
ROOT
HETATM    1  N   UNK N   1      27.635  18.380   5.370  0.00  0.00    -0.253 N 
HETATM    2  C   UNK N   1      26.405  18.598   4.958  0.00  0.00     0.167 A 
HETATM    3  C   UNK N   1      26.416  19.465   3.952  0.00  0.00     0.164 A 
HETATM    4  N   UNK N   1      25.270  19.865   3.339  0.00  0.00    -0.346 N 
ATOM      5  HN  UNK N   1      25.286  20.531   2.567  1.00  0.00     0.167 HD
HETATM    6  C   UNK N   1      24.078  19.334   3.803  0.00  0.00     0.120 A 
HETATM    7  C   UNK N   1      24.102  18.402   4.889  0.00  0.00     0.062 A 
HETATM    8  N   UNK N   1      25.292  18.058   5.440  0.00  0.00    -0.336 N 
ATOM      9  HN  UNK N   1      25.332  17.395   6.215  1.00  0.00     0.168 HD
HETATM   10  N   UNK N   1      27.697  19.814   3.714  0.00  0.00    -0.266 N 
ATOM     11  HN  UNK N   1      28.036  20.463   3.004  1.00  0.00     0.186 HD
HETATM   12  N   UNK N   1      28.431  19.130   4.602  0.00  0.00    -0.017 NA
ENDROOT
BRANCH   1  13
HETATM   13  C   UNK N   1      27.950  17.464   6.475  0.00  0.00     0.187 C 
BRANCH  13  14
HETATM   14  C   UNK N   1      29.286  17.600   7.111  0.00  0.00    -0.038 A 
HETATM   15  C   UNK N   1      30.435  17.147   6.474  0.00  0.00     0.022 A 
HETATM   16  C   UNK N   1      31.668  17.282   7.079  0.00  0.00    -0.009 A 
HETATM   17  C   UNK N   1      32.810  16.824   6.433  0.00  0.00     0.015 A 
HETATM   18  C   UNK N   1      31.773  17.883   8.349  0.00  0.00     0.042 A 
HETATM   19  C   UNK N   1      34.048  16.967   7.053  0.00  0.00     0.018 A 
HETATM   20  C   UNK N   1      34.122  17.568   8.314  0.00  0.00     0.088 A 
HETATM   21  N   UNK N   1      32.992  18.012   8.934  0.00  0.00    -0.365 N 
ATOM     22  HN  UNK N   1      33.063  18.447   9.854  1.00  0.00     0.165 HD
HETATM   23  C   UNK N   1      30.622  18.343   8.997  0.00  0.00     0.031 A 
HETATM   24  C   UNK N   1      29.376  18.201   8.376  0.00  0.00     0.011 A 
ENDBRANCH  13  14
ENDBRANCH   1  13
BRANCH   7  25
HETATM   25  C   UNK N   1      22.943  17.754   5.492  0.00  0.00     0.026 A 
HETATM   26  C   UNK N   1      21.654  18.164   5.782  0.00  0.00     0.122 A 
HETATM   27  N   UNK N   1      21.015  17.109   6.352  0.00  0.00    -0.309 N 
HETATM   28  N   UNK N   1      21.863  16.091   6.416  0.00  0.00    -0.301 N 
ATOM     29  HN  UNK N   1      20.047  17.102   6.677  1.00  0.00     0.186 HD
HETATM   30  C   UNK N   1      23.035  16.452   5.904  0.00  0.00     0.125 A 
BRANCH  28  31
HETATM   31  C   UNK N   1      21.575  14.765   6.963  0.00  0.00     0.174 C 
BRANCH  31  32
HETATM   32  C   UNK N   1      20.530  14.035   6.102  0.00  0.00     0.185 C 
BRANCH  32  33
HETATM   33  O   UNK N   1      19.338  14.752   6.044  0.00  0.00    -0.399 OA
HETATM   34  H   UNK N   1      19.040  15.261   6.813  0.00  0.00     0.209 HD
ENDBRANCH  32  33
ENDBRANCH  31  32
ENDBRANCH  28  31
ENDBRANCH   7  25
TORSDOF 6
ENDMDL
