MODEL 1
REMARK VINA RESULT:      -5.6      0.000      0.000
REMARK  19 active torsions:
REMARK  status: ('A' for Active; 'I' for Inactive)
REMARK    1  A    between atoms: C_10  and  C_3 
REMARK    2  A    between atoms: N_26  and  C_3 
REMARK    3  A    between atoms: C_11  and  C_4 
REMARK    4  A    between atoms: N_27  and  C_4 
REMARK    5  A    between atoms: C_9  and  C_5 
REMARK    6  A    between atoms: O_28  and  C_5 
REMARK    7  A    between atoms: C_9  and  C_6 
REMARK    8  A    between atoms: O_29  and  C_6 
REMARK    9  A    between atoms: C_10  and  C_7 
REMARK   10  A    between atoms: O_30  and  C_7 
REMARK   11  A    between atoms: C_11  and  C_8 
REMARK   12  A    between atoms: O_31  and  C_8 
REMARK   13  A    between atoms: C_18  and  C_9 
REMARK   14  A    between atoms: O_32  and  C_10 
REMARK   15  A    between atoms: O_33  and  C_11 
REMARK   16  A    between atoms: C_19  and  C_12 
REMARK   17  A    between atoms: C_20  and  C_13 
REMARK   18  A    between atoms: N_24  and  C_17 
REMARK   19  A    between atoms: O_34  and  C_18 
REMARK       I    between atoms: N_26  and  C_19 
REMARK       I    between atoms: N_27  and  C_20 
ROOT
HETATM    1  C   UNK N   1      24.632  16.811   5.236  0.00  0.00     0.068 A 
HETATM    2  C   UNK N   1      22.317  17.655   5.145  0.00  0.00     0.068 A 
HETATM    3  C   UNK N   1      23.697  17.785   4.796  0.00  0.00     0.040 A 
HETATM    4  C   UNK N   1      24.205  15.769   6.080  0.00  0.00     0.051 A 
HETATM    5  C   UNK N   1      21.904  16.520   5.900  0.00  0.00     0.051 A 
HETATM    6  C   UNK N   1      22.858  15.612   6.376  0.00  0.00     0.069 A 
HETATM    7  I   UNK N   1      24.375  19.416   3.579  0.00  0.00    -0.042 I 
HETATM    8  I   UNK N   1      25.584  14.395   6.994  0.00  0.00    -0.041 I 
HETATM    9  I   UNK N   1      19.842  16.012   6.213  0.00  0.00    -0.041 I 
ENDROOT
BRANCH   6  10
HETATM   10  N   UNK N   1      22.464  14.460   7.099  0.00  0.00    -0.338 N 
HETATM   11  C   UNK N   1      22.224  13.344   6.490  0.00  0.00     0.124 C 
ATOM     12  HN  UNK N   1      22.369  14.510   8.113  1.00  0.00     0.168 HD
BRANCH  11  13
HETATM   13  C   UNK N   1      21.904  12.106   7.272  0.00  0.00     0.107 C 
BRANCH  13  14
HETATM   14  C   UNK N   1      21.725  12.405   8.754  0.00  0.00     0.179 C 
BRANCH  14  15
HETATM   15  O   UNK N   1      20.559  13.141   8.969  0.00  0.00    -0.400 OA
HETATM   16  H   UNK N   1      20.092  13.730   8.356  0.00  0.00     0.209 HD
ENDBRANCH  14  15
ENDBRANCH  13  14
BRANCH  13  17
HETATM   17  C   UNK N   1      22.997  11.066   7.088  0.00  0.00     0.179 C 
BRANCH  17  18
HETATM   18  O   UNK N   1      22.832  10.412   5.864  0.00  0.00    -0.400 OA
HETATM   19  H   UNK N   1      23.272   9.632   5.492  0.00  0.00     0.209 HD
ENDBRANCH  17  18
ENDBRANCH  13  17
ENDBRANCH  11  13
BRANCH  11  20
HETATM   20  O   UNK N   1      22.288  13.267   5.143  0.00  0.00    -0.349 OA
HETATM   21  H   UNK N   1      22.317  12.837   4.311  0.00  0.00     0.219 HD
ENDBRANCH  11  20
ENDBRANCH   6  10
BRANCH   1  22
HETATM   22  C   UNK N   1      26.047  16.801   4.761  0.00  0.00     0.256 C 
HETATM   23  N   UNK N   1      26.386  16.093   3.631  0.00  0.00    -0.350 N 
HETATM   24  C   UNK N   1      25.363  15.503   2.790  0.00  0.00     0.153 C 
HETATM   25  O   UNK N   1      26.898  17.452   5.354  0.00  0.00    -0.267 OA
BRANCH  23  26
HETATM   26  C   UNK N   1      27.748  16.030   3.152  0.00  0.00     0.159 C 
BRANCH  26  27
HETATM   27  C   UNK N   1      28.367  14.644   3.386  0.00  0.00     0.159 C 
BRANCH  27  28
HETATM   28  C   UNK N   1      29.014  14.575   4.758  0.00  0.00     0.197 C 
BRANCH  28  29
HETATM   29  O   UNK N   1      29.441  15.843   5.160  0.00  0.00    -0.398 OA
HETATM   30  H   UNK N   1      29.992  16.634   5.043  0.00  0.00     0.209 HD
ENDBRANCH  28  29
ENDBRANCH  27  28
BRANCH  27  31
HETATM   31  O   UNK N   1      29.320  14.318   2.419  0.00  0.00    -0.392 OA
HETATM   32  H   UNK N   1      29.119  14.437   1.478  0.00  0.00     0.210 HD
ENDBRANCH  27  31
ENDBRANCH  26  27
ENDBRANCH  23  26
ENDBRANCH   1  22
BRANCH   2  33
HETATM   33  C   UNK N   1      21.291  18.628   4.637  0.00  0.00     0.256 C 
HETATM   34  N   UNK N   1      20.711  18.514   3.398  0.00  0.00    -0.350 N 
HETATM   35  C   UNK N   1      20.873  17.303   2.619  0.00  0.00     0.153 C 
HETATM   36  O   UNK N   1      20.945  19.549   5.372  0.00  0.00    -0.267 OA
BRANCH  34  37
HETATM   37  C   UNK N   1      19.771  19.523   2.938  0.00  0.00     0.159 C 
BRANCH  37  38
HETATM   38  C   UNK N   1      20.424  20.706   2.203  0.00  0.00     0.159 C 
BRANCH  38  39
HETATM   39  C   UNK N   1      21.131  20.226   0.945  0.00  0.00     0.197 C 
BRANCH  39  40
HETATM   40  O   UNK N   1      20.752  21.002  -0.151  0.00  0.00    -0.398 OA
HETATM   41  H   UNK N   1      21.390  21.190  -0.856  0.00  0.00     0.209 HD
ENDBRANCH  39  40
ENDBRANCH  38  39
BRANCH  38  42
HETATM   42  O   UNK N   1      21.308  21.406   3.029  0.00  0.00    -0.392 OA
HETATM   43  H   UNK N   1      21.253  22.367   3.148  0.00  0.00     0.210 HD
ENDBRANCH  38  42
ENDBRANCH  37  38
ENDBRANCH  34  37
ENDBRANCH   2  33
TORSDOF 19
ENDMDL
MODEL 2
REMARK VINA RESULT:      -5.6      1.532      7.744
REMARK  19 active torsions:
REMARK  status: ('A' for Active; 'I' for Inactive)
REMARK    1  A    between atoms: C_10  and  C_3 
REMARK    2  A    between atoms: N_26  and  C_3 
REMARK    3  A    between atoms: C_11  and  C_4 
REMARK    4  A    between atoms: N_27  and  C_4 
REMARK    5  A    between atoms: C_9  and  C_5 
REMARK    6  A    between atoms: O_28  and  C_5 
REMARK    7  A    between atoms: C_9  and  C_6 
REMARK    8  A    between atoms: O_29  and  C_6 
REMARK    9  A    between atoms: C_10  and  C_7 
REMARK   10  A    between atoms: O_30  and  C_7 
REMARK   11  A    between atoms: C_11  and  C_8 
REMARK   12  A    between atoms: O_31  and  C_8 
REMARK   13  A    between atoms: C_18  and  C_9 
REMARK   14  A    between atoms: O_32  and  C_10 
REMARK   15  A    between atoms: O_33  and  C_11 
REMARK   16  A    between atoms: C_19  and  C_12 
REMARK   17  A    between atoms: C_20  and  C_13 
REMARK   18  A    between atoms: N_24  and  C_17 
REMARK   19  A    between atoms: O_34  and  C_18 
REMARK       I    between atoms: N_26  and  C_19 
REMARK       I    between atoms: N_27  and  C_20 
ROOT
HETATM    1  C   UNK N   1      22.119  17.194   5.024  0.00  0.00     0.068 A 
HETATM    2  C   UNK N   1      22.473  15.142   6.345  0.00  0.00     0.068 A 
HETATM    3  C   UNK N   1      21.590  16.108   5.771  0.00  0.00     0.040 A 
HETATM    4  C   UNK N   1      23.514  17.354   4.923  0.00  0.00     0.051 A 
HETATM    5  C   UNK N   1      23.873  15.273   6.118  0.00  0.00     0.051 A 
HETATM    6  C   UNK N   1      24.370  16.389   5.435  0.00  0.00     0.069 A 
HETATM    7  I   UNK N   1      19.464  15.922   5.989  0.00  0.00    -0.042 I 
HETATM    8  I   UNK N   1      24.407  19.092   4.026  0.00  0.00    -0.041 I 
HETATM    9  I   UNK N   1      25.286  13.737   6.624  0.00  0.00    -0.041 I 
ENDROOT
BRANCH   6  10
HETATM   10  N   UNK N   1      25.756  16.519   5.170  0.00  0.00    -0.338 N 
HETATM   11  C   UNK N   1      26.263  16.083   4.063  0.00  0.00     0.124 C 
ATOM     12  HN  UNK N   1      26.360  16.962   5.860  1.00  0.00     0.168 HD
BRANCH  11  13
HETATM   13  C   UNK N   1      27.711  16.313   3.749  0.00  0.00     0.107 C 
BRANCH  13  14
HETATM   14  C   UNK N   1      28.583  15.164   4.236  0.00  0.00     0.179 C 
BRANCH  14  15
HETATM   15  O   UNK N   1      28.016  13.937   3.890  0.00  0.00    -0.400 OA
HETATM   16  H   UNK N   1      28.319  13.044   4.116  0.00  0.00     0.209 HD
ENDBRANCH  14  15
ENDBRANCH  13  14
BRANCH  13  17
HETATM   17  C   UNK N   1      28.187  17.616   4.372  0.00  0.00     0.179 C 
BRANCH  17  18
HETATM   18  O   UNK N   1      28.636  17.385   5.675  0.00  0.00    -0.400 OA
HETATM   19  H   UNK N   1      29.386  17.754   6.167  0.00  0.00     0.209 HD
ENDBRANCH  17  18
ENDBRANCH  13  17
ENDBRANCH  11  13
BRANCH  11  20
HETATM   20  O   UNK N   1      25.493  15.442   3.157  0.00  0.00    -0.349 OA
HETATM   21  H   UNK N   1      24.927  15.369   2.414  0.00  0.00     0.219 HD
ENDBRANCH  11  20
ENDBRANCH   6  10
BRANCH   1  22
HETATM   22  C   UNK N   1      21.243  18.131   4.259  0.00  0.00     0.256 C 
HETATM   23  N   UNK N   1      20.857  17.817   2.977  0.00  0.00    -0.350 N 
HETATM   24  C   UNK N   1      21.136  16.509   2.417  0.00  0.00     0.153 C 
HETATM   25  O   UNK N   1      20.838  19.159   4.787  0.00  0.00    -0.267 OA
BRANCH  23  26
HETATM   26  C   UNK N   1      20.035  18.707   2.190  0.00  0.00     0.159 C 
BRANCH  26  27
HETATM   27  C   UNK N   1      20.886  19.696   1.382  0.00  0.00     0.159 C 
BRANCH  27  28
HETATM   28  C   UNK N   1      20.676  21.114   1.882  0.00  0.00     0.197 C 
BRANCH  28  29
HETATM   29  O   UNK N   1      21.697  21.475   2.766  0.00  0.00    -0.398 OA
HETATM   30  H   UNK N   1      22.625  21.457   3.049  0.00  0.00     0.209 HD
ENDBRANCH  28  29
ENDBRANCH  27  28
BRANCH  27  31
HETATM   31  O   UNK N   1      20.599  19.652   0.015  0.00  0.00    -0.392 OA
HETATM   32  H   UNK N   1      19.887  19.081  -0.313  0.00  0.00     0.210 HD
ENDBRANCH  27  31
ENDBRANCH  26  27
ENDBRANCH  23  26
ENDBRANCH   1  22
BRANCH   2  33
HETATM   33  C   UNK N   1      21.943  13.944   7.081  0.00  0.00     0.256 C 
HETATM   34  N   UNK N   1      21.657  13.967   8.423  0.00  0.00    -0.350 N 
HETATM   35  C   UNK N   1      21.611  15.222   9.144  0.00  0.00     0.153 C 
HETATM   36  O   UNK N   1      21.740  12.913   6.447  0.00  0.00    -0.267 OA
BRANCH  34  37
HETATM   37  C   UNK N   1      21.205  12.757   9.091  0.00  0.00     0.159 C 
BRANCH  37  38
HETATM   38  C   UNK N   1      21.753  12.582  10.518  0.00  0.00     0.159 C 
BRANCH  38  39
HETATM   39  C   UNK N   1      23.137  11.952  10.483  0.00  0.00     0.197 C 
BRANCH  39  40
HETATM   40  O   UNK N   1      24.122  12.936  10.568  0.00  0.00    -0.398 OA
HETATM   41  H   UNK N   1      25.045  12.719  10.366  0.00  0.00     0.209 HD
ENDBRANCH  39  40
ENDBRANCH  38  39
BRANCH  38  42
HETATM   42  O   UNK N   1      20.889  11.830  11.317  0.00  0.00    -0.392 OA
HETATM   43  H   UNK N   1      21.095  11.612  12.240  0.00  0.00     0.210 HD
ENDBRANCH  38  42
ENDBRANCH  37  38
ENDBRANCH  34  37
ENDBRANCH   2  33
TORSDOF 19
ENDMDL
MODEL 3
REMARK VINA RESULT:      -5.6      6.507     10.849
REMARK  19 active torsions:
REMARK  status: ('A' for Active; 'I' for Inactive)
REMARK    1  A    between atoms: C_10  and  C_3 
REMARK    2  A    between atoms: N_26  and  C_3 
REMARK    3  A    between atoms: C_11  and  C_4 
REMARK    4  A    between atoms: N_27  and  C_4 
REMARK    5  A    between atoms: C_9  and  C_5 
REMARK    6  A    between atoms: O_28  and  C_5 
REMARK    7  A    between atoms: C_9  and  C_6 
REMARK    8  A    between atoms: O_29  and  C_6 
REMARK    9  A    between atoms: C_10  and  C_7 
REMARK   10  A    between atoms: O_30  and  C_7 
REMARK   11  A    between atoms: C_11  and  C_8 
REMARK   12  A    between atoms: O_31  and  C_8 
REMARK   13  A    between atoms: C_18  and  C_9 
REMARK   14  A    between atoms: O_32  and  C_10 
REMARK   15  A    between atoms: O_33  and  C_11 
REMARK   16  A    between atoms: C_19  and  C_12 
REMARK   17  A    between atoms: C_20  and  C_13 
REMARK   18  A    between atoms: N_24  and  C_17 
REMARK   19  A    between atoms: O_34  and  C_18 
REMARK       I    between atoms: N_26  and  C_19 
REMARK       I    between atoms: N_27  and  C_20 
ROOT
HETATM    1  C   UNK N   1      32.236  16.182   7.076  0.00  0.00     0.068 A 
HETATM    2  C   UNK N   1      32.136  15.689   4.662  0.00  0.00     0.068 A 
HETATM    3  C   UNK N   1      32.852  15.681   5.899  0.00  0.00     0.040 A 
HETATM    4  C   UNK N   1      30.954  16.758   6.998  0.00  0.00     0.051 A 
HETATM    5  C   UNK N   1      30.796  16.169   4.649  0.00  0.00     0.051 A 
HETATM    6  C   UNK N   1      30.238  16.719   5.810  0.00  0.00     0.069 A 
HETATM    7  I   UNK N   1      34.840  14.883   6.015  0.00  0.00    -0.042 I 
HETATM    8  I   UNK N   1      30.043  17.761   8.668  0.00  0.00    -0.041 I 
HETATM    9  I   UNK N   1      29.489  15.938   2.961  0.00  0.00    -0.041 I 
ENDROOT
BRANCH   6  10
HETATM   10  N   UNK N   1      28.895  17.170   5.824  0.00  0.00    -0.338 N 
HETATM   11  C   UNK N   1      28.567  18.295   5.275  0.00  0.00     0.124 C 
ATOM     12  HN  UNK N   1      28.178  16.601   6.272  1.00  0.00     0.168 HD
BRANCH  11  13
HETATM   13  C   UNK N   1      27.130  18.716   5.209  0.00  0.00     0.107 C 
BRANCH  13  14
HETATM   14  C   UNK N   1      26.714  19.080   3.790  0.00  0.00     0.179 C 
BRANCH  14  15
HETATM   15  O   UNK N   1      27.447  20.174   3.330  0.00  0.00    -0.400 OA
HETATM   16  H   UNK N   1      27.239  21.119   3.404  0.00  0.00     0.209 HD
ENDBRANCH  14  15
ENDBRANCH  13  14
BRANCH  13  17
HETATM   17  C   UNK N   1      26.880  19.895   6.134  0.00  0.00     0.179 C 
BRANCH  17  18
HETATM   18  O   UNK N   1      27.859  20.873   5.935  0.00  0.00    -0.400 OA
HETATM   19  H   UNK N   1      28.315  21.457   6.561  0.00  0.00     0.209 HD
ENDBRANCH  17  18
ENDBRANCH  13  17
ENDBRANCH  11  13
BRANCH  11  20
HETATM   20  O   UNK N   1      29.507  19.093   4.725  0.00  0.00    -0.349 OA
HETATM   21  H   UNK N   1      30.367  19.446   4.605  0.00  0.00     0.219 HD
ENDBRANCH  11  20
ENDBRANCH   6  10
BRANCH   1  22
HETATM   22  C   UNK N   1      32.866  16.041   8.423  0.00  0.00     0.256 C 
HETATM   23  N   UNK N   1      33.838  16.928   8.821  0.00  0.00    -0.350 N 
HETATM   24  C   UNK N   1      34.136  18.107   8.031  0.00  0.00     0.153 C 
HETATM   25  O   UNK N   1      32.490  15.159   9.186  0.00  0.00    -0.267 OA
BRANCH  23  26
HETATM   26  C   UNK N   1      34.495  16.812  10.103  0.00  0.00     0.159 C 
BRANCH  26  27
HETATM   27  C   UNK N   1      35.573  15.719  10.089  0.00  0.00     0.159 C 
BRANCH  27  28
HETATM   28  C   UNK N   1      35.165  14.556  10.975  0.00  0.00     0.197 C 
BRANCH  28  29
HETATM   29  O   UNK N   1      33.900  14.783  11.524  0.00  0.00    -0.398 OA
HETATM   30  H   UNK N   1      32.955  14.987  11.433  0.00  0.00     0.209 HD
ENDBRANCH  28  29
ENDBRANCH  27  28
BRANCH  27  31
HETATM   31  O   UNK N   1      36.817  16.194  10.510  0.00  0.00    -0.392 OA
HETATM   32  H   UNK N   1      37.023  17.140  10.449  0.00  0.00     0.210 HD
ENDBRANCH  27  31
ENDBRANCH  26  27
ENDBRANCH  23  26
ENDBRANCH   1  22
BRANCH   2  33
HETATM   33  C   UNK N   1      32.733  15.101   3.414  0.00  0.00     0.256 C 
HETATM   34  N   UNK N   1      32.716  13.755   3.149  0.00  0.00    -0.350 N 
HETATM   35  C   UNK N   1      31.895  12.860   3.939  0.00  0.00     0.153 C 
HETATM   36  O   UNK N   1      33.235  15.863   2.593  0.00  0.00    -0.267 OA
BRANCH  34  37
HETATM   37  C   UNK N   1      33.365  13.241   1.954  0.00  0.00     0.159 C 
BRANCH  37  38
HETATM   38  C   UNK N   1      34.792  12.716   2.187  0.00  0.00     0.159 C 
BRANCH  38  39
HETATM   39  C   UNK N   1      35.812  13.640   1.539  0.00  0.00     0.197 C 
BRANCH  39  40
HETATM   40  O   UNK N   1      35.168  14.610   0.771  0.00  0.00    -0.398 OA
HETATM   41  H   UNK N   1      35.229  15.545   1.019  0.00  0.00     0.209 HD
ENDBRANCH  39  40
ENDBRANCH  38  39
BRANCH  38  42
HETATM   42  O   UNK N   1      34.946  11.407   1.722  0.00  0.00    -0.392 OA
HETATM   43  H   UNK N   1      34.420  10.670   2.069  0.00  0.00     0.210 HD
ENDBRANCH  38  42
ENDBRANCH  37  38
ENDBRANCH  34  37
ENDBRANCH   2  33
TORSDOF 19
ENDMDL
MODEL 4
REMARK VINA RESULT:      -5.5      3.381      6.896
REMARK  19 active torsions:
REMARK  status: ('A' for Active; 'I' for Inactive)
REMARK    1  A    between atoms: C_10  and  C_3 
REMARK    2  A    between atoms: N_26  and  C_3 
REMARK    3  A    between atoms: C_11  and  C_4 
REMARK    4  A    between atoms: N_27  and  C_4 
REMARK    5  A    between atoms: C_9  and  C_5 
REMARK    6  A    between atoms: O_28  and  C_5 
REMARK    7  A    between atoms: C_9  and  C_6 
REMARK    8  A    between atoms: O_29  and  C_6 
REMARK    9  A    between atoms: C_10  and  C_7 
REMARK   10  A    between atoms: O_30  and  C_7 
REMARK   11  A    between atoms: C_11  and  C_8 
REMARK   12  A    between atoms: O_31  and  C_8 
REMARK   13  A    between atoms: C_18  and  C_9 
REMARK   14  A    between atoms: O_32  and  C_10 
REMARK   15  A    between atoms: O_33  and  C_11 
REMARK   16  A    between atoms: C_19  and  C_12 
REMARK   17  A    between atoms: C_20  and  C_13 
REMARK   18  A    between atoms: N_24  and  C_17 
REMARK   19  A    between atoms: O_34  and  C_18 
REMARK       I    between atoms: N_26  and  C_19 
REMARK       I    between atoms: N_27  and  C_20 
ROOT
HETATM    1  C   UNK N   1      21.157  15.388   4.661  0.00  0.00     0.068 A 
HETATM    2  C   UNK N   1      22.235  13.238   4.119  0.00  0.00     0.068 A 
HETATM    3  C   UNK N   1      21.517  14.403   3.704  0.00  0.00     0.040 A 
HETATM    4  C   UNK N   1      21.438  15.170   6.023  0.00  0.00     0.051 A 
HETATM    5  C   UNK N   1      22.607  13.113   5.487  0.00  0.00     0.051 A 
HETATM    6  C   UNK N   1      22.180  14.067   6.419  0.00  0.00     0.069 A 
HETATM    7  I   UNK N   1      21.007  14.706   1.643  0.00  0.00    -0.042 I 
HETATM    8  I   UNK N   1      20.717  16.482   7.567  0.00  0.00    -0.041 I 
HETATM    9  I   UNK N   1      23.961  11.605   6.195  0.00  0.00    -0.041 I 
ENDROOT
BRANCH   6  10
HETATM   10  N   UNK N   1      22.569  13.977   7.778  0.00  0.00    -0.338 N 
HETATM   11  C   UNK N   1      21.889  13.265   8.617  0.00  0.00     0.124 C 
ATOM     12  HN  UNK N   1      23.397  14.478   8.098  1.00  0.00     0.168 HD
BRANCH  11  13
HETATM   13  C   UNK N   1      22.365  13.096  10.029  0.00  0.00     0.107 C 
BRANCH  13  14
HETATM   14  C   UNK N   1      23.656  12.294  10.096  0.00  0.00     0.179 C 
BRANCH  14  15
HETATM   15  O   UNK N   1      24.475  12.766  11.123  0.00  0.00    -0.400 OA
HETATM   16  H   UNK N   1      24.503  12.489  12.052  0.00  0.00     0.209 HD
ENDBRANCH  14  15
ENDBRANCH  13  14
BRANCH  13  17
HETATM   17  C   UNK N   1      21.296  12.418  10.870  0.00  0.00     0.179 C 
BRANCH  17  18
HETATM   18  O   UNK N   1      21.889  11.742  11.940  0.00  0.00    -0.400 OA
HETATM   19  H   UNK N   1      21.535  11.478  12.804  0.00  0.00     0.209 HD
ENDBRANCH  17  18
ENDBRANCH  13  17
ENDBRANCH  11  13
BRANCH  11  20
HETATM   20  O   UNK N   1      20.758  12.637   8.230  0.00  0.00    -0.349 OA
HETATM   21  H   UNK N   1      20.246  11.935   7.879  0.00  0.00     0.219 HD
ENDBRANCH  11  20
ENDBRANCH   6  10
BRANCH   1  22
HETATM   22  C   UNK N   1      20.563  16.699   4.263  0.00  0.00     0.256 C 
HETATM   23  N   UNK N   1      21.384  17.764   3.972  0.00  0.00    -0.350 N 
HETATM   24  C   UNK N   1      22.820  17.587   3.870  0.00  0.00     0.153 C 
HETATM   25  O   UNK N   1      19.348  16.816   4.158  0.00  0.00    -0.267 OA
BRANCH  23  26
HETATM   26  C   UNK N   1      20.854  19.058   3.612  0.00  0.00     0.159 C 
BRANCH  26  27
HETATM   27  C   UNK N   1      20.409  19.099   2.143  0.00  0.00     0.159 C 
BRANCH  27  28
HETATM   28  C   UNK N   1      20.776  20.430   1.511  0.00  0.00     0.197 C 
BRANCH  28  29
HETATM   29  O   UNK N   1      20.600  20.375   0.125  0.00  0.00    -0.398 OA
HETATM   30  H   UNK N   1      20.170  20.674  -0.692  0.00  0.00     0.209 HD
ENDBRANCH  28  29
ENDBRANCH  27  28
BRANCH  27  31
HETATM   31  O   UNK N   1      19.035  18.893   1.998  0.00  0.00    -0.392 OA
HETATM   32  H   UNK N   1      18.625  18.085   2.344  0.00  0.00     0.210 HD
ENDBRANCH  27  31
ENDBRANCH  26  27
ENDBRANCH  23  26
ENDBRANCH   1  22
BRANCH   2  33
HETATM   33  C   UNK N   1      22.693  12.211   3.121  0.00  0.00     0.256 C 
HETATM   34  N   UNK N   1      23.821  12.374   2.356  0.00  0.00    -0.350 N 
HETATM   35  C   UNK N   1      24.766  13.431   2.655  0.00  0.00     0.153 C 
HETATM   36  O   UNK N   1      22.041  11.178   3.006  0.00  0.00    -0.267 OA
BRANCH  34  37
HETATM   37  C   UNK N   1      24.178  11.373   1.364  0.00  0.00     0.159 C 
BRANCH  37  38
HETATM   38  C   UNK N   1      23.356  11.450   0.066  0.00  0.00     0.159 C 
BRANCH  38  39
HETATM   39  C   UNK N   1      23.610  10.224  -0.798  0.00  0.00     0.197 C 
BRANCH  39  40
HETATM   40  O   UNK N   1      24.626   9.443  -0.246  0.00  0.00    -0.398 OA
HETATM   41  H   UNK N   1      25.051   9.714   0.582  0.00  0.00     0.209 HD
ENDBRANCH  39  40
ENDBRANCH  38  39
BRANCH  38  42
HETATM   42  O   UNK N   1      23.622  12.621  -0.648  0.00  0.00    -0.392 OA
HETATM   43  H   UNK N   1      23.399  13.500  -0.302  0.00  0.00     0.210 HD
ENDBRANCH  38  42
ENDBRANCH  37  38
ENDBRANCH  34  37
ENDBRANCH   2  33
TORSDOF 19
ENDMDL
MODEL 5
REMARK VINA RESULT:      -5.5      5.793     10.445
REMARK  19 active torsions:
REMARK  status: ('A' for Active; 'I' for Inactive)
REMARK    1  A    between atoms: C_10  and  C_3 
REMARK    2  A    between atoms: N_26  and  C_3 
REMARK    3  A    between atoms: C_11  and  C_4 
REMARK    4  A    between atoms: N_27  and  C_4 
REMARK    5  A    between atoms: C_9  and  C_5 
REMARK    6  A    between atoms: O_28  and  C_5 
REMARK    7  A    between atoms: C_9  and  C_6 
REMARK    8  A    between atoms: O_29  and  C_6 
REMARK    9  A    between atoms: C_10  and  C_7 
REMARK   10  A    between atoms: O_30  and  C_7 
REMARK   11  A    between atoms: C_11  and  C_8 
REMARK   12  A    between atoms: O_31  and  C_8 
REMARK   13  A    between atoms: C_18  and  C_9 
REMARK   14  A    between atoms: O_32  and  C_10 
REMARK   15  A    between atoms: O_33  and  C_11 
REMARK   16  A    between atoms: C_19  and  C_12 
REMARK   17  A    between atoms: C_20  and  C_13 
REMARK   18  A    between atoms: N_24  and  C_17 
REMARK   19  A    between atoms: O_34  and  C_18 
REMARK       I    between atoms: N_26  and  C_19 
REMARK       I    between atoms: N_27  and  C_20 
ROOT
HETATM    1  C   UNK N   1      32.142  15.429   7.481  0.00  0.00     0.068 A 
HETATM    2  C   UNK N   1      31.824  14.322   5.301  0.00  0.00     0.068 A 
HETATM    3  C   UNK N   1      32.569  14.486   6.509  0.00  0.00     0.040 A 
HETATM    4  C   UNK N   1      31.032  16.252   7.209  0.00  0.00     0.051 A 
HETATM    5  C   UNK N   1      30.637  15.088   5.118  0.00  0.00     0.051 A 
HETATM    6  C   UNK N   1      30.277  16.057   6.062  0.00  0.00     0.069 A 
HETATM    7  I   UNK N   1      34.312  13.298   6.897  0.00  0.00    -0.042 I 
HETATM    8  I   UNK N   1      30.459  17.870   8.506  0.00  0.00    -0.041 I 
HETATM    9  I   UNK N   1      29.242  14.717   3.528  0.00  0.00    -0.041 I 
ENDROOT
BRANCH   6  10
HETATM   10  N   UNK N   1      29.083  16.804   5.913  0.00  0.00    -0.338 N 
HETATM   11  C   UNK N   1      29.050  17.862   5.170  0.00  0.00     0.124 C 
ATOM     12  HN  UNK N   1      28.238  16.503   6.397  1.00  0.00     0.168 HD
BRANCH  11  13
HETATM   13  C   UNK N   1      27.759  18.588   4.940  0.00  0.00     0.107 C 
BRANCH  13  14
HETATM   14  C   UNK N   1      27.456  19.569   6.064  0.00  0.00     0.179 C 
BRANCH  14  15
HETATM   15  O   UNK N   1      26.109  19.934   6.048  0.00  0.00    -0.400 OA
HETATM   16  H   UNK N   1      25.698  20.720   5.655  0.00  0.00     0.209 HD
ENDBRANCH  14  15
ENDBRANCH  13  14
BRANCH  13  17
HETATM   17  C   UNK N   1      26.613  17.599   4.800  0.00  0.00     0.179 C 
BRANCH  17  18
HETATM   18  O   UNK N   1      26.225  17.138   6.062  0.00  0.00    -0.400 OA
HETATM   19  H   UNK N   1      26.177  17.589   6.920  0.00  0.00     0.209 HD
ENDBRANCH  17  18
ENDBRANCH  13  17
ENDBRANCH  11  13
BRANCH  11  20
HETATM   20  O   UNK N   1      30.169  18.312   4.562  0.00  0.00    -0.349 OA
HETATM   21  H   UNK N   1      31.092  18.429   4.445  0.00  0.00     0.219 HD
ENDBRANCH  11  20
ENDBRANCH   6  10
BRANCH   1  22
HETATM   22  C   UNK N   1      32.777  15.521   8.829  0.00  0.00     0.256 C 
HETATM   23  N   UNK N   1      33.902  16.293   9.006  0.00  0.00    -0.350 N 
HETATM   24  C   UNK N   1      34.379  17.162   7.948  0.00  0.00     0.153 C 
HETATM   25  O   UNK N   1      32.275  14.942   9.784  0.00  0.00    -0.267 OA
BRANCH  23  26
HETATM   26  C   UNK N   1      34.567  16.388  10.285  0.00  0.00     0.159 C 
BRANCH  26  27
HETATM   27  C   UNK N   1      35.778  15.447  10.364  0.00  0.00     0.159 C 
BRANCH  27  28
HETATM   28  C   UNK N   1      35.436  14.204  11.167  0.00  0.00     0.197 C 
BRANCH  28  29
HETATM   29  O   UNK N   1      34.190  14.350  11.784  0.00  0.00    -0.398 OA
HETATM   30  H   UNK N   1      33.390  13.978  12.187  0.00  0.00     0.209 HD
ENDBRANCH  28  29
ENDBRANCH  27  28
BRANCH  27  31
HETATM   31  O   UNK N   1      36.892  16.064  10.937  0.00  0.00    -0.392 OA
HETATM   32  H   UNK N   1      37.238  16.889  10.563  0.00  0.00     0.210 HD
ENDBRANCH  27  31
ENDBRANCH  26  27
ENDBRANCH  23  26
ENDBRANCH   1  22
BRANCH   2  33
HETATM   33  C   UNK N   1      32.209  13.284   4.285  0.00  0.00     0.256 C 
HETATM   34  N   UNK N   1      32.997  13.569   3.198  0.00  0.00    -0.350 N 
HETATM   35  C   UNK N   1      33.707  14.829   3.114  0.00  0.00     0.153 C 
HETATM   36  O   UNK N   1      31.818  12.132   4.450  0.00  0.00    -0.267 OA
BRANCH  34  37
HETATM   37  C   UNK N   1      33.283  12.535   2.216  0.00  0.00     0.159 C 
BRANCH  37  38
HETATM   38  C   UNK N   1      32.351  12.551   0.993  0.00  0.00     0.159 C 
BRANCH  38  39
HETATM   39  C   UNK N   1      31.488  11.298   0.965  0.00  0.00     0.197 C 
BRANCH  39  40
HETATM   40  O   UNK N   1      30.427  11.419   1.863  0.00  0.00    -0.398 OA
HETATM   41  H   UNK N   1      30.205  12.285   2.238  0.00  0.00     0.209 HD
ENDBRANCH  39  40
ENDBRANCH  38  39
BRANCH  38  42
HETATM   42  O   UNK N   1      33.063  12.685  -0.201  0.00  0.00    -0.392 OA
HETATM   43  H   UNK N   1      33.755  12.058  -0.464  0.00  0.00     0.210 HD
ENDBRANCH  38  42
ENDBRANCH  37  38
ENDBRANCH  34  37
ENDBRANCH   2  33
TORSDOF 19
ENDMDL
MODEL 6
REMARK VINA RESULT:      -5.4     13.221     15.440
REMARK  19 active torsions:
REMARK  status: ('A' for Active; 'I' for Inactive)
REMARK    1  A    between atoms: C_10  and  C_3 
REMARK    2  A    between atoms: N_26  and  C_3 
REMARK    3  A    between atoms: C_11  and  C_4 
REMARK    4  A    between atoms: N_27  and  C_4 
REMARK    5  A    between atoms: C_9  and  C_5 
REMARK    6  A    between atoms: O_28  and  C_5 
REMARK    7  A    between atoms: C_9  and  C_6 
REMARK    8  A    between atoms: O_29  and  C_6 
REMARK    9  A    between atoms: C_10  and  C_7 
REMARK   10  A    between atoms: O_30  and  C_7 
REMARK   11  A    between atoms: C_11  and  C_8 
REMARK   12  A    between atoms: O_31  and  C_8 
REMARK   13  A    between atoms: C_18  and  C_9 
REMARK   14  A    between atoms: O_32  and  C_10 
REMARK   15  A    between atoms: O_33  and  C_11 
REMARK   16  A    between atoms: C_19  and  C_12 
REMARK   17  A    between atoms: C_20  and  C_13 
REMARK   18  A    between atoms: N_24  and  C_17 
REMARK   19  A    between atoms: O_34  and  C_18 
REMARK       I    between atoms: N_26  and  C_19 
REMARK       I    between atoms: N_27  and  C_20 
ROOT
HETATM    1  C   UNK N   1      28.494  23.228  -5.417  0.00  0.00     0.068 A 
HETATM    2  C   UNK N   1      28.897  21.861  -7.429  0.00  0.00     0.068 A 
HETATM    3  C   UNK N   1      28.033  22.690  -6.647  0.00  0.00     0.040 A 
HETATM    4  C   UNK N   1      29.769  22.874  -4.938  0.00  0.00     0.051 A 
HETATM    5  C   UNK N   1      30.223  21.625  -6.968  0.00  0.00     0.051 A 
HETATM    6  C   UNK N   1      30.627  22.113  -5.719  0.00  0.00     0.069 A 
HETATM    7  I   UNK N   1      26.055  23.169  -7.326  0.00  0.00    -0.042 I 
HETATM    8  I   UNK N   1      30.456  23.437  -2.979  0.00  0.00    -0.041 I 
HETATM    9  I   UNK N   1      31.730  20.690  -8.178  0.00  0.00    -0.041 I 
ENDROOT
BRANCH   6  10
HETATM   10  N   UNK N   1      31.953  21.917  -5.260  0.00  0.00    -0.338 N 
HETATM   11  C   UNK N   1      32.290  20.826  -4.654  0.00  0.00     0.124 C 
ATOM     12  HN  UNK N   1      32.650  22.646  -5.410  1.00  0.00     0.168 HD
BRANCH  11  13
HETATM   13  C   UNK N   1      33.717  20.587  -4.260  0.00  0.00     0.107 C 
BRANCH  13  14
HETATM   14  C   UNK N   1      34.132  19.141  -4.497  0.00  0.00     0.179 C 
BRANCH  14  15
HETATM   15  O   UNK N   1      33.499  18.293  -3.588  0.00  0.00    -0.400 OA
HETATM   16  H   UNK N   1      33.466  17.323  -3.585  0.00  0.00     0.209 HD
ENDBRANCH  14  15
ENDBRANCH  13  14
BRANCH  13  17
HETATM   17  C   UNK N   1      33.931  20.948  -2.799  0.00  0.00     0.179 C 
BRANCH  17  18
HETATM   18  O   UNK N   1      32.715  20.894  -2.112  0.00  0.00    -0.400 OA
HETATM   19  H   UNK N   1      32.084  20.167  -1.984  0.00  0.00     0.209 HD
ENDBRANCH  17  18
ENDBRANCH  13  17
ENDBRANCH  11  13
BRANCH  11  20
HETATM   20  O   UNK N   1      31.372  19.870  -4.394  0.00  0.00    -0.349 OA
HETATM   21  H   UNK N   1      30.521  19.477  -4.395  0.00  0.00     0.219 HD
ENDBRANCH  11  20
ENDBRANCH   6  10
BRANCH   1  22
HETATM   22  C   UNK N   1      27.704  24.235  -4.647  0.00  0.00     0.256 C 
HETATM   23  N   UNK N   1      27.891  25.577  -4.880  0.00  0.00    -0.350 N 
HETATM   24  C   UNK N   1      28.711  26.031  -5.986  0.00  0.00     0.153 C 
HETATM   25  O   UNK N   1      26.864  23.865  -3.836  0.00  0.00    -0.267 OA
BRANCH  23  26
HETATM   26  C   UNK N   1      27.172  26.586  -4.138  0.00  0.00     0.159 C 
BRANCH  26  27
HETATM   27  C   UNK N   1      26.330  27.476  -5.063  0.00  0.00     0.159 C 
BRANCH  27  28
HETATM   28  C   UNK N   1      25.968  28.777  -4.368  0.00  0.00     0.197 C 
BRANCH  28  29
HETATM   29  O   UNK N   1      25.453  28.522  -3.094  0.00  0.00    -0.398 OA
HETATM   30  H   UNK N   1      25.385  27.973  -2.296  0.00  0.00     0.209 HD
ENDBRANCH  28  29
ENDBRANCH  27  28
BRANCH  27  31
HETATM   31  O   UNK N   1      25.156  26.846  -5.483  0.00  0.00    -0.392 OA
HETATM   32  H   UNK N   1      24.968  25.936  -5.208  0.00  0.00     0.210 HD
ENDBRANCH  27  31
ENDBRANCH  26  27
ENDBRANCH  23  26
ENDBRANCH   1  22
BRANCH   2  33
HETATM   33  C   UNK N   1      28.465  21.334  -8.769  0.00  0.00     0.256 C 
HETATM   34  N   UNK N   1      28.554  22.077  -9.920  0.00  0.00    -0.350 N 
HETATM   35  C   UNK N   1      29.305  23.315  -9.940  0.00  0.00     0.153 C 
HETATM   36  O   UNK N   1      28.037  20.186  -8.834  0.00  0.00    -0.267 OA
BRANCH  34  37
HETATM   37  C   UNK N   1      28.062  21.534 -11.175  0.00  0.00     0.159 C 
BRANCH  37  38
HETATM   38  C   UNK N   1      26.655  22.019 -11.565  0.00  0.00     0.159 C 
BRANCH  38  39
HETATM   39  C   UNK N   1      25.654  20.878 -11.473  0.00  0.00     0.197 C 
BRANCH  39  40
HETATM   40  O   UNK N   1      25.192  20.740 -10.163  0.00  0.00    -0.398 OA
HETATM   41  H   UNK N   1      24.788  19.908  -9.876  0.00  0.00     0.209 HD
ENDBRANCH  39  40
ENDBRANCH  38  39
BRANCH  38  42
HETATM   42  O   UNK N   1      26.637  22.589 -12.840  0.00  0.00    -0.392 OA
HETATM   43  H   UNK N   1      26.454  22.067 -13.638  0.00  0.00     0.210 HD
ENDBRANCH  38  42
ENDBRANCH  37  38
ENDBRANCH  34  37
ENDBRANCH   2  33
TORSDOF 19
ENDMDL
MODEL 7
REMARK VINA RESULT:      -5.4      6.527     10.907
REMARK  19 active torsions:
REMARK  status: ('A' for Active; 'I' for Inactive)
REMARK    1  A    between atoms: C_10  and  C_3 
REMARK    2  A    between atoms: N_26  and  C_3 
REMARK    3  A    between atoms: C_11  and  C_4 
REMARK    4  A    between atoms: N_27  and  C_4 
REMARK    5  A    between atoms: C_9  and  C_5 
REMARK    6  A    between atoms: O_28  and  C_5 
REMARK    7  A    between atoms: C_9  and  C_6 
REMARK    8  A    between atoms: O_29  and  C_6 
REMARK    9  A    between atoms: C_10  and  C_7 
REMARK   10  A    between atoms: O_30  and  C_7 
REMARK   11  A    between atoms: C_11  and  C_8 
REMARK   12  A    between atoms: O_31  and  C_8 
REMARK   13  A    between atoms: C_18  and  C_9 
REMARK   14  A    between atoms: O_32  and  C_10 
REMARK   15  A    between atoms: O_33  and  C_11 
REMARK   16  A    between atoms: C_19  and  C_12 
REMARK   17  A    between atoms: C_20  and  C_13 
REMARK   18  A    between atoms: N_24  and  C_17 
REMARK   19  A    between atoms: O_34  and  C_18 
REMARK       I    between atoms: N_26  and  C_19 
REMARK       I    between atoms: N_27  and  C_20 
ROOT
HETATM    1  C   UNK N   1      31.426  14.410   4.466  0.00  0.00     0.068 A 
HETATM    2  C   UNK N   1      32.035  14.801   6.823  0.00  0.00     0.068 A 
HETATM    3  C   UNK N   1      32.143  14.023   5.629  0.00  0.00     0.040 A 
HETATM    4  C   UNK N   1      30.552  15.512   4.523  0.00  0.00     0.051 A 
HETATM    5  C   UNK N   1      31.235  15.979   6.804  0.00  0.00     0.051 A 
HETATM    6  C   UNK N   1      30.487  16.299   5.664  0.00  0.00     0.069 A 
HETATM    7  I   UNK N   1      33.406  12.291   5.554  0.00  0.00    -0.042 I 
HETATM    8  I   UNK N   1      29.244  16.024   2.894  0.00  0.00    -0.041 I 
HETATM    9  I   UNK N   1      31.240  17.420   8.396  0.00  0.00    -0.041 I 
ENDROOT
BRANCH   6  10
HETATM   10  N   UNK N   1      29.712  17.484   5.615  0.00  0.00    -0.338 N 
HETATM   11  C   UNK N   1      28.514  17.513   6.102  0.00  0.00     0.124 C 
ATOM     12  HN  UNK N   1      30.105  18.324   5.192  1.00  0.00     0.168 HD
BRANCH  11  13
HETATM   13  C   UNK N   1      27.740  18.797   6.134  0.00  0.00     0.107 C 
BRANCH  13  14
HETATM   14  C   UNK N   1      28.127  19.718   4.985  0.00  0.00     0.179 C 
BRANCH  14  15
HETATM   15  O   UNK N   1      27.734  19.170   3.764  0.00  0.00    -0.400 OA
HETATM   16  H   UNK N   1      27.574  19.622   2.920  0.00  0.00     0.209 HD
ENDBRANCH  14  15
ENDBRANCH  13  14
BRANCH  13  17
HETATM   17  C   UNK N   1      27.957  19.512   7.458  0.00  0.00     0.179 C 
BRANCH  17  18
HETATM   18  O   UNK N   1      27.507  18.711   8.511  0.00  0.00    -0.400 OA
HETATM   19  H   UNK N   1      26.625  18.605   8.902  0.00  0.00     0.209 HD
ENDBRANCH  17  18
ENDBRANCH  13  17
ENDBRANCH  11  13
BRANCH  11  20
HETATM   20  O   UNK N   1      27.952  16.399   6.617  0.00  0.00    -0.349 OA
HETATM   21  H   UNK N   1      27.561  15.547   6.592  0.00  0.00     0.219 HD
ENDBRANCH  11  20
ENDBRANCH   6  10
BRANCH   1  22
HETATM   22  C   UNK N   1      31.633  13.740   3.148  0.00  0.00     0.256 C 
HETATM   23  N   UNK N   1      30.896  12.625   2.822  0.00  0.00    -0.350 N 
HETATM   24  C   UNK N   1      29.793  12.194   3.659  0.00  0.00     0.153 C 
HETATM   25  O   UNK N   1      32.430  14.204   2.342  0.00  0.00    -0.267 OA
BRANCH  23  26
HETATM   26  C   UNK N   1      31.083  11.927   1.571  0.00  0.00     0.159 C 
BRANCH  26  27
HETATM   27  C   UNK N   1      32.046  10.741   1.724  0.00  0.00     0.159 C 
BRANCH  27  28
HETATM   28  C   UNK N   1      33.225  10.886   0.777  0.00  0.00     0.197 C 
BRANCH  28  29
HETATM   29  O   UNK N   1      33.470   9.680   0.117  0.00  0.00    -0.398 OA
HETATM   30  H   UNK N   1      33.953   8.843   0.021  0.00  0.00     0.209 HD
ENDBRANCH  28  29
ENDBRANCH  27  28
BRANCH  27  31
HETATM   31  O   UNK N   1      31.422   9.515   1.484  0.00  0.00    -0.392 OA
HETATM   32  H   UNK N   1      30.877   9.104   2.172  0.00  0.00     0.210 HD
ENDBRANCH  27  31
ENDBRANCH  26  27
ENDBRANCH  23  26
ENDBRANCH   1  22
BRANCH   2  33
HETATM   33  C   UNK N   1      32.835  14.460   8.049  0.00  0.00     0.256 C 
HETATM   34  N   UNK N   1      34.124  14.892   8.235  0.00  0.00    -0.350 N 
HETATM   35  C   UNK N   1      34.690  15.911   7.376  0.00  0.00     0.153 C 
HETATM   36  O   UNK N   1      32.301  13.785   8.924  0.00  0.00    -0.267 OA
BRANCH  34  37
HETATM   37  C   UNK N   1      34.867  14.476   9.414  0.00  0.00     0.159 C 
BRANCH  37  38
HETATM   38  C   UNK N   1      34.632  15.357  10.653  0.00  0.00     0.159 C 
BRANCH  38  39
HETATM   39  C   UNK N   1      35.890  15.423  11.505  0.00  0.00     0.197 C 
BRANCH  39  40
HETATM   40  O   UNK N   1      36.900  16.109  10.829  0.00  0.00    -0.398 OA
HETATM   41  H   UNK N   1      37.715  16.354  11.293  0.00  0.00     0.209 HD
ENDBRANCH  39  40
ENDBRANCH  38  39
BRANCH  38  42
HETATM   42  O   UNK N   1      33.546  14.909  11.409  0.00  0.00    -0.392 OA
HETATM   43  H   UNK N   1      32.713  14.626  11.001  0.00  0.00     0.210 HD
ENDBRANCH  38  42
ENDBRANCH  37  38
ENDBRANCH  34  37
ENDBRANCH   2  33
TORSDOF 19
ENDMDL
MODEL 8
REMARK VINA RESULT:      -5.4      8.344     13.316
REMARK  19 active torsions:
REMARK  status: ('A' for Active; 'I' for Inactive)
REMARK    1  A    between atoms: C_10  and  C_3 
REMARK    2  A    between atoms: N_26  and  C_3 
REMARK    3  A    between atoms: C_11  and  C_4 
REMARK    4  A    between atoms: N_27  and  C_4 
REMARK    5  A    between atoms: C_9  and  C_5 
REMARK    6  A    between atoms: O_28  and  C_5 
REMARK    7  A    between atoms: C_9  and  C_6 
REMARK    8  A    between atoms: O_29  and  C_6 
REMARK    9  A    between atoms: C_10  and  C_7 
REMARK   10  A    between atoms: O_30  and  C_7 
REMARK   11  A    between atoms: C_11  and  C_8 
REMARK   12  A    between atoms: O_31  and  C_8 
REMARK   13  A    between atoms: C_18  and  C_9 
REMARK   14  A    between atoms: O_32  and  C_10 
REMARK   15  A    between atoms: O_33  and  C_11 
REMARK   16  A    between atoms: C_19  and  C_12 
REMARK   17  A    between atoms: C_20  and  C_13 
REMARK   18  A    between atoms: N_24  and  C_17 
REMARK   19  A    between atoms: O_34  and  C_18 
REMARK       I    between atoms: N_26  and  C_19 
REMARK       I    between atoms: N_27  and  C_20 
ROOT
HETATM    1  C   UNK N   1      34.086  16.495   7.445  0.00  0.00     0.068 A 
HETATM    2  C   UNK N   1      35.547  14.548   7.841  0.00  0.00     0.068 A 
HETATM    3  C   UNK N   1      34.892  15.723   8.324  0.00  0.00     0.040 A 
HETATM    4  C   UNK N   1      34.006  16.141   6.085  0.00  0.00     0.051 A 
HETATM    5  C   UNK N   1      35.342  14.156   6.488  0.00  0.00     0.051 A 
HETATM    6  C   UNK N   1      34.598  14.972   5.627  0.00  0.00     0.069 A 
HETATM    7  I   UNK N   1      35.075  16.322  10.376  0.00  0.00    -0.042 I 
HETATM    8  I   UNK N   1      33.017  17.381   4.633  0.00  0.00    -0.041 I 
HETATM    9  I   UNK N   1      35.978  12.257   5.714  0.00  0.00    -0.041 I 
ENDROOT
BRANCH   6  10
HETATM   10  N   UNK N   1      34.356  14.581   4.287  0.00  0.00    -0.338 N 
HETATM   11  C   UNK N   1      33.290  13.920   3.972  0.00  0.00     0.124 C 
ATOM     12  HN  UNK N   1      35.029  14.826   3.562  1.00  0.00     0.168 HD
BRANCH  11  13
HETATM   13  C   UNK N   1      32.993  13.598   2.538  0.00  0.00     0.107 C 
BRANCH  13  14
HETATM   14  C   UNK N   1      32.026  12.429   2.412  0.00  0.00     0.179 C 
BRANCH  14  15
HETATM   15  O   UNK N   1      32.598  11.261   2.919  0.00  0.00    -0.400 OA
HETATM   16  H   UNK N   1      32.300  10.344   2.812  0.00  0.00     0.209 HD
ENDBRANCH  14  15
ENDBRANCH  13  14
BRANCH  13  17
HETATM   17  C   UNK N   1      34.278  13.282   1.790  0.00  0.00     0.179 C 
BRANCH  17  18
HETATM   18  O   UNK N   1      33.983  12.636   0.586  0.00  0.00    -0.400 OA
HETATM   19  H   UNK N   1      33.710  11.723   0.402  0.00  0.00     0.209 HD
ENDBRANCH  17  18
ENDBRANCH  13  17
ENDBRANCH  11  13
BRANCH  11  20
HETATM   20  O   UNK N   1      32.410  13.536   4.923  0.00  0.00    -0.349 OA
HETATM   21  H   UNK N   1      32.142  13.222   5.764  0.00  0.00     0.219 HD
ENDBRANCH  11  20
ENDBRANCH   6  10
BRANCH   1  22
HETATM   22  C   UNK N   1      33.244  17.628   7.931  0.00  0.00     0.256 C 
HETATM   23  N   UNK N   1      31.936  17.403   8.294  0.00  0.00    -0.350 N 
HETATM   24  C   UNK N   1      31.413  16.054   8.385  0.00  0.00     0.153 C 
HETATM   25  O   UNK N   1      33.727  18.748   8.043  0.00  0.00    -0.267 OA
BRANCH  23  26
HETATM   26  C   UNK N   1      31.075  18.474   8.742  0.00  0.00     0.159 C 
BRANCH  26  27
HETATM   27  C   UNK N   1      29.771  17.935   9.348  0.00  0.00     0.159 C 
BRANCH  27  28
HETATM   28  C   UNK N   1      28.570  18.461   8.581  0.00  0.00     0.197 C 
BRANCH  28  29
HETATM   29  O   UNK N   1      27.402  18.284   9.327  0.00  0.00    -0.398 OA
HETATM   30  H   UNK N   1      26.845  18.479  10.098  0.00  0.00     0.209 HD
ENDBRANCH  28  29
ENDBRANCH  27  28
BRANCH  27  31
HETATM   31  O   UNK N   1      29.632  18.275  10.695  0.00  0.00    -0.392 OA
HETATM   32  H   UNK N   1      30.356  18.721  11.162  0.00  0.00     0.210 HD
ENDBRANCH  27  31
ENDBRANCH  26  27
ENDBRANCH  23  26
ENDBRANCH   1  22
BRANCH   2  33
HETATM   33  C   UNK N   1      36.348  13.671   8.762  0.00  0.00     0.256 C 
HETATM   34  N   UNK N   1      35.773  12.705   9.549  0.00  0.00    -0.350 N 
HETATM   35  C   UNK N   1      34.395  12.311   9.342  0.00  0.00     0.153 C 
HETATM   36  O   UNK N   1      37.567  13.814   8.790  0.00  0.00    -0.267 OA
BRANCH  34  37
HETATM   37  C   UNK N   1      36.594  11.930  10.466  0.00  0.00     0.159 C 
BRANCH  37  38
HETATM   38  C   UNK N   1      36.653  12.497  11.895  0.00  0.00     0.159 C 
BRANCH  38  39
HETATM   39  C   UNK N   1      35.252  12.622  12.475  0.00  0.00     0.197 C 
BRANCH  39  40
HETATM   40  O   UNK N   1      35.142  13.788  13.233  0.00  0.00    -0.398 OA
HETATM   41  H   UNK N   1      35.126  14.652  12.794  0.00  0.00     0.209 HD
ENDBRANCH  39  40
ENDBRANCH  38  39
BRANCH  38  42
HETATM   42  O   UNK N   1      37.316  13.727  11.938  0.00  0.00    -0.392 OA
HETATM   43  H   UNK N   1      37.962  13.941  12.629  0.00  0.00     0.210 HD
ENDBRANCH  38  42
ENDBRANCH  37  38
ENDBRANCH  34  37
ENDBRANCH   2  33
TORSDOF 19
ENDMDL
MODEL 9
REMARK VINA RESULT:      -5.4      2.090      8.190
REMARK  19 active torsions:
REMARK  status: ('A' for Active; 'I' for Inactive)
REMARK    1  A    between atoms: C_10  and  C_3 
REMARK    2  A    between atoms: N_26  and  C_3 
REMARK    3  A    between atoms: C_11  and  C_4 
REMARK    4  A    between atoms: N_27  and  C_4 
REMARK    5  A    between atoms: C_9  and  C_5 
REMARK    6  A    between atoms: O_28  and  C_5 
REMARK    7  A    between atoms: C_9  and  C_6 
REMARK    8  A    between atoms: O_29  and  C_6 
REMARK    9  A    between atoms: C_10  and  C_7 
REMARK   10  A    between atoms: O_30  and  C_7 
REMARK   11  A    between atoms: C_11  and  C_8 
REMARK   12  A    between atoms: O_31  and  C_8 
REMARK   13  A    between atoms: C_18  and  C_9 
REMARK   14  A    between atoms: O_32  and  C_10 
REMARK   15  A    between atoms: O_33  and  C_11 
REMARK   16  A    between atoms: C_19  and  C_12 
REMARK   17  A    between atoms: C_20  and  C_13 
REMARK   18  A    between atoms: N_24  and  C_17 
REMARK   19  A    between atoms: O_34  and  C_18 
REMARK       I    between atoms: N_26  and  C_19 
REMARK       I    between atoms: N_27  and  C_20 
ROOT
HETATM    1  C   UNK N   1      23.272  16.611   5.461  0.00  0.00     0.068 A 
HETATM    2  C   UNK N   1      23.709  14.401   6.463  0.00  0.00     0.068 A 
HETATM    3  C   UNK N   1      22.915  15.585   6.376  0.00  0.00     0.040 A 
HETATM    4  C   UNK N   1      24.453  16.486   4.705  0.00  0.00     0.051 A 
HETATM    5  C   UNK N   1      24.828  14.260   5.594  0.00  0.00     0.051 A 
HETATM    6  C   UNK N   1      25.196  15.315   4.750  0.00  0.00     0.069 A 
HETATM    7  I   UNK N   1      21.158  15.824   7.585  0.00  0.00    -0.042 I 
HETATM    8  I   UNK N   1      25.204  18.086   3.480  0.00  0.00    -0.041 I 
HETATM    9  I   UNK N   1      25.910  12.419   5.371  0.00  0.00    -0.041 I 
ENDROOT
BRANCH   6  10
HETATM   10  N   UNK N   1      26.285  15.180   3.854  0.00  0.00    -0.338 N 
HETATM   11  C   UNK N   1      27.499  15.381   4.252  0.00  0.00     0.124 C 
ATOM     12  HN  UNK N   1      26.109  14.920   2.885  1.00  0.00     0.168 HD
BRANCH  11  13
HETATM   13  C   UNK N   1      28.651  15.140   3.323  0.00  0.00     0.107 C 
BRANCH  13  14
HETATM   14  C   UNK N   1      29.537  16.371   3.192  0.00  0.00     0.179 C 
BRANCH  14  15
HETATM   15  O   UNK N   1      28.808  17.531   3.458  0.00  0.00    -0.400 OA
HETATM   16  H   UNK N   1      28.714  18.009   4.297  0.00  0.00     0.209 HD
ENDBRANCH  14  15
ENDBRANCH  13  14
BRANCH  13  17
HETATM   17  C   UNK N   1      28.147  14.723   1.952  0.00  0.00     0.179 C 
BRANCH  17  18
HETATM   18  O   UNK N   1      27.923  13.343   1.925  0.00  0.00    -0.400 OA
HETATM   19  H   UNK N   1      28.538  12.598   1.834  0.00  0.00     0.209 HD
ENDBRANCH  17  18
ENDBRANCH  13  17
ENDBRANCH  11  13
BRANCH  11  20
HETATM   20  O   UNK N   1      27.753  15.781   5.517  0.00  0.00    -0.349 OA
HETATM   21  H   UNK N   1      27.811  16.390   6.227  0.00  0.00     0.219 HD
ENDBRANCH  11  20
ENDBRANCH   6  10
BRANCH   1  22
HETATM   22  C   UNK N   1      22.388  17.786   5.203  0.00  0.00     0.256 C 
HETATM   23  N   UNK N   1      21.542  17.783   4.119  0.00  0.00    -0.350 N 
HETATM   24  C   UNK N   1      21.360  16.585   3.323  0.00  0.00     0.153 C 
HETATM   25  O   UNK N   1      22.389  18.735   5.977  0.00  0.00    -0.267 OA
BRANCH  23  26
HETATM   26  C   UNK N   1      20.691  18.910   3.813  0.00  0.00     0.159 C 
BRANCH  26  27
HETATM   27  C   UNK N   1      20.154  18.841   2.377  0.00  0.00     0.159 C 
BRANCH  27  28
HETATM   28  C   UNK N   1      20.630  20.036   1.571  0.00  0.00     0.197 C 
BRANCH  28  29
HETATM   29  O   UNK N   1      20.587  19.750   0.204  0.00  0.00    -0.398 OA
HETATM   30  H   UNK N   1      20.816  19.194  -0.559  0.00  0.00     0.209 HD
ENDBRANCH  28  29
ENDBRANCH  27  28
BRANCH  27  31
HETATM   31  O   UNK N   1      18.758  18.793   2.334  0.00  0.00    -0.392 OA
HETATM   32  H   UNK N   1      18.298  17.944   2.421  0.00  0.00     0.210 HD
ENDBRANCH  27  31
ENDBRANCH  26  27
ENDBRANCH  23  26
ENDBRANCH   1  22
BRANCH   2  33
HETATM   33  C   UNK N   1      23.319  13.267   7.370  0.00  0.00     0.256 C 
HETATM   34  N   UNK N   1      23.995  12.981   8.530  0.00  0.00    -0.350 N 
HETATM   35  C   UNK N   1      24.962  13.916   9.068  0.00  0.00     0.153 C 
HETATM   36  O   UNK N   1      22.343  12.587   7.067  0.00  0.00    -0.267 OA
BRANCH  34  37
HETATM   37  C   UNK N   1      23.607  11.833   9.333  0.00  0.00     0.159 C 
BRANCH  37  38
HETATM   38  C   UNK N   1      22.958  12.194  10.680  0.00  0.00     0.159 C 
BRANCH  38  39
HETATM   39  C   UNK N   1      23.816  11.700  11.835  0.00  0.00     0.197 C 
BRANCH  39  40
HETATM   40  O   UNK N   1      25.007  12.424  11.900  0.00  0.00    -0.398 OA
HETATM   41  H   UNK N   1      25.480  12.653  11.086  0.00  0.00     0.209 HD
ENDBRANCH  39  40
ENDBRANCH  38  39
BRANCH  38  42
HETATM   42  O   UNK N   1      21.658  11.692  10.781  0.00  0.00    -0.392 OA
HETATM   43  H   UNK N   1      21.033  11.723  10.039  0.00  0.00     0.210 HD
ENDBRANCH  38  42
ENDBRANCH  37  38
ENDBRANCH  34  37
ENDBRANCH   2  33
TORSDOF 19
ENDMDL
