MODEL 1
REMARK VINA RESULT:      -4.6      0.000      0.000
REMARK  5 active torsions:
REMARK  status: ('A' for Active; 'I' for Inactive)
REMARK    1  A    between atoms: C_2  and  C_3 
REMARK    2  A    between atoms: C_3  and  C_4 
REMARK    3  A    between atoms: C_4  and  O_5 
REMARK    4  A    between atoms: O_5  and  C_6 
REMARK    5  A    between atoms: C_6  and  C_8 
ROOT
HETATM    1  C   UNK N   1      28.944  23.534  -3.655  0.00  0.00     0.110 C 
HETATM    2  C   UNK N   1      29.352  23.189  -4.876  0.00  0.00     0.042 C 
HETATM    3  C   UNK N   1      29.758  23.247  -2.505  0.00  0.00     0.105 C 
HETATM    4  N   UNK N   1      30.374  23.040  -1.550  0.00  0.00    -0.191 NA
ENDROOT
BRANCH   1   5
HETATM    5  C   UNK N   1      27.662  24.212  -3.442  0.00  0.00     0.303 C 
HETATM    6  O   UNK N   1      26.972  23.901  -2.477  0.00  0.00    -0.259 OA
BRANCH   5   7
HETATM    7  O   UNK N   1      27.240  25.168  -4.296  0.00  0.00    -0.317 OA
BRANCH   7   8
HETATM    8  C   UNK N   1      25.936  25.168  -4.705  0.00  0.00     0.179 C 
BRANCH   8   9
HETATM    9  C   UNK N   1      25.767  25.933  -5.975  0.00  0.00     0.026 C 
BRANCH   9  10
HETATM   10  C   UNK N   1      24.790  27.028  -5.639  0.00  0.00    -0.002 C 
HETATM   11  C   UNK N   1      25.399  27.948  -4.619  0.00  0.00     0.005 C 
ENDBRANCH   9  10
ENDBRANCH   8   9
ENDBRANCH   7   8
ENDBRANCH   5   7
ENDBRANCH   1   5
TORSDOF 5
ENDMDL
MODEL 2
REMARK VINA RESULT:      -4.6     18.269     19.386
REMARK  5 active torsions:
REMARK  status: ('A' for Active; 'I' for Inactive)
REMARK    1  A    between atoms: C_2  and  C_3 
REMARK    2  A    between atoms: C_3  and  C_4 
REMARK    3  A    between atoms: C_4  and  O_5 
REMARK    4  A    between atoms: O_5  and  C_6 
REMARK    5  A    between atoms: C_6  and  C_8 
ROOT
HETATM    1  C   UNK N   1      22.625  12.022  11.221  0.00  0.00     0.110 C 
HETATM    2  C   UNK N   1      23.445  11.832  10.188  0.00  0.00     0.042 C 
HETATM    3  C   UNK N   1      23.127  11.987  12.568  0.00  0.00     0.105 C 
HETATM    4  N   UNK N   1      23.480  11.969  13.668  0.00  0.00    -0.191 NA
ENDROOT
BRANCH   1   5
HETATM    5  C   UNK N   1      21.193  12.271  11.024  0.00  0.00     0.303 C 
HETATM    6  O   UNK N   1      20.409  12.007  11.928  0.00  0.00    -0.259 OA
BRANCH   5   7
HETATM    7  O   UNK N   1      20.740  12.785   9.861  0.00  0.00    -0.317 OA
BRANCH   7   8
HETATM    8  C   UNK N   1      20.210  14.044   9.851  0.00  0.00     0.179 C 
BRANCH   8   9
HETATM    9  C   UNK N   1      21.048  14.978   9.042  0.00  0.00     0.026 C 
BRANCH   9  10
HETATM   10  C   UNK N   1      20.064  15.763   8.218  0.00  0.00    -0.002 C 
HETATM   11  C   UNK N   1      20.791  16.839   7.459  0.00  0.00     0.005 C 
ENDBRANCH   9  10
ENDBRANCH   8   9
ENDBRANCH   7   8
ENDBRANCH   5   7
ENDBRANCH   1   5
TORSDOF 5
ENDMDL
MODEL 3
REMARK VINA RESULT:      -4.5     12.454     14.127
REMARK  5 active torsions:
REMARK  status: ('A' for Active; 'I' for Inactive)
REMARK    1  A    between atoms: C_2  and  C_3 
REMARK    2  A    between atoms: C_3  and  C_4 
REMARK    3  A    between atoms: C_4  and  O_5 
REMARK    4  A    between atoms: O_5  and  C_6 
REMARK    5  A    between atoms: C_6  and  C_8 
ROOT
HETATM    1  C   UNK N   1      33.637  17.687   7.494  0.00  0.00     0.110 C 
HETATM    2  C   UNK N   1      32.527  17.285   8.112  0.00  0.00     0.042 C 
HETATM    3  C   UNK N   1      34.571  18.553   8.161  0.00  0.00     0.105 C 
HETATM    4  N   UNK N   1      35.352  19.248   8.653  0.00  0.00    -0.191 NA
ENDROOT
BRANCH   1   5
HETATM    5  C   UNK N   1      33.944  17.264   6.124  0.00  0.00     0.303 C 
HETATM    6  O   UNK N   1      34.672  16.293   5.946  0.00  0.00    -0.259 OA
BRANCH   5   7
HETATM    7  O   UNK N   1      33.434  17.932   5.068  0.00  0.00    -0.317 OA
BRANCH   7   8
HETATM    8  C   UNK N   1      32.276  17.488   4.496  0.00  0.00     0.179 C 
BRANCH   8   9
HETATM    9  C   UNK N   1      32.506  17.025   3.096  0.00  0.00     0.026 C 
BRANCH   9  10
HETATM   10  C   UNK N   1      32.447  15.523   3.171  0.00  0.00    -0.002 C 
HETATM   11  C   UNK N   1      33.777  14.948   2.771  0.00  0.00     0.005 C 
ENDBRANCH   9  10
ENDBRANCH   8   9
ENDBRANCH   7   8
ENDBRANCH   5   7
ENDBRANCH   1   5
TORSDOF 5
ENDMDL
MODEL 4
REMARK VINA RESULT:      -4.5     14.607     16.770
REMARK  5 active torsions:
REMARK  status: ('A' for Active; 'I' for Inactive)
REMARK    1  A    between atoms: C_2  and  C_3 
REMARK    2  A    between atoms: C_3  and  C_4 
REMARK    3  A    between atoms: C_4  and  O_5 
REMARK    4  A    between atoms: O_5  and  C_6 
REMARK    5  A    between atoms: C_6  and  C_8 
ROOT
HETATM    1  C   UNK N   1      33.452  17.903   7.861  0.00  0.00     0.110 C 
HETATM    2  C   UNK N   1      32.213  17.856   8.351  0.00  0.00     0.042 C 
HETATM    3  C   UNK N   1      33.694  17.661   6.465  0.00  0.00     0.105 C 
HETATM    4  N   UNK N   1      33.942  17.474   5.351  0.00  0.00    -0.191 NA
ENDROOT
BRANCH   1   5
HETATM    5  C   UNK N   1      34.602  18.200   8.720  0.00  0.00     0.303 C 
HETATM    6  O   UNK N   1      35.315  19.162   8.455  0.00  0.00    -0.259 OA
BRANCH   5   7
HETATM    7  O   UNK N   1      34.876  17.428   9.792  0.00  0.00    -0.317 OA
BRANCH   7   8
HETATM    8  C   UNK N   1      35.162  16.105   9.604  0.00  0.00     0.179 C 
BRANCH   8   9
HETATM    9  C   UNK N   1      34.196  15.233  10.335  0.00  0.00     0.026 C 
BRANCH   9  10
HETATM   10  C   UNK N   1      33.683  14.270   9.298  0.00  0.00    -0.002 C 
HETATM   11  C   UNK N   1      34.552  14.343   8.073  0.00  0.00     0.005 C 
ENDBRANCH   9  10
ENDBRANCH   8   9
ENDBRANCH   7   8
ENDBRANCH   5   7
ENDBRANCH   1   5
TORSDOF 5
ENDMDL
MODEL 5
REMARK VINA RESULT:      -4.4     13.930     15.019
REMARK  5 active torsions:
REMARK  status: ('A' for Active; 'I' for Inactive)
REMARK    1  A    between atoms: C_2  and  C_3 
REMARK    2  A    between atoms: C_3  and  C_4 
REMARK    3  A    between atoms: C_4  and  O_5 
REMARK    4  A    between atoms: O_5  and  C_6 
REMARK    5  A    between atoms: C_6  and  C_8 
ROOT
HETATM    1  C   UNK N   1      33.487  17.593   7.431  0.00  0.00     0.110 C 
HETATM    2  C   UNK N   1      33.396  17.508   6.105  0.00  0.00     0.042 C 
HETATM    3  C   UNK N   1      34.463  18.455   8.042  0.00  0.00     0.105 C 
HETATM    4  N   UNK N   1      35.229  19.132   8.582  0.00  0.00    -0.191 NA
ENDROOT
BRANCH   1   5
HETATM    5  C   UNK N   1      32.604  16.819   8.309  0.00  0.00     0.303 C 
HETATM    6  O   UNK N   1      33.095  16.124   9.191  0.00  0.00    -0.259 OA
BRANCH   5   7
HETATM    7  O   UNK N   1      31.264  16.868   8.151  0.00  0.00    -0.317 OA
BRANCH   7   8
HETATM    8  C   UNK N   1      30.577  17.949   8.625  0.00  0.00     0.179 C 
BRANCH   8   9
HETATM    9  C   UNK N   1      29.603  17.551   9.684  0.00  0.00     0.026 C 
BRANCH   9  10
HETATM   10  C   UNK N   1      28.263  17.992   9.161  0.00  0.00    -0.002 C 
HETATM   11  C   UNK N   1      28.458  18.867   7.954  0.00  0.00     0.005 C 
ENDBRANCH   9  10
ENDBRANCH   8   9
ENDBRANCH   7   8
ENDBRANCH   5   7
ENDBRANCH   1   5
TORSDOF 5
ENDMDL
MODEL 6
REMARK VINA RESULT:      -4.3     13.214     14.761
REMARK  5 active torsions:
REMARK  status: ('A' for Active; 'I' for Inactive)
REMARK    1  A    between atoms: C_2  and  C_3 
REMARK    2  A    between atoms: C_3  and  C_4 
REMARK    3  A    between atoms: C_4  and  O_5 
REMARK    4  A    between atoms: O_5  and  C_6 
REMARK    5  A    between atoms: C_6  and  C_8 
ROOT
HETATM    1  C   UNK N   1      33.141  17.431   8.431  0.00  0.00     0.110 C 
HETATM    2  C   UNK N   1      31.920  17.964   8.466  0.00  0.00     0.042 C 
HETATM    3  C   UNK N   1      33.409  16.179   9.084  0.00  0.00     0.105 C 
HETATM    4  N   UNK N   1      33.677  15.175   9.592  0.00  0.00    -0.191 NA
ENDROOT
BRANCH   1   5
HETATM    5  C   UNK N   1      34.244  18.096   7.732  0.00  0.00     0.303 C 
HETATM    6  O   UNK N   1      34.794  19.057   8.259  0.00  0.00    -0.259 OA
BRANCH   5   7
HETATM    7  O   UNK N   1      34.654  17.659   6.523  0.00  0.00    -0.317 OA
BRANCH   7   8
HETATM    8  C   UNK N   1      33.798  16.920   5.756  0.00  0.00     0.179 C 
BRANCH   8   9
HETATM    9  C   UNK N   1      33.107  17.771   4.743  0.00  0.00     0.026 C 
BRANCH   9  10
HETATM   10  C   UNK N   1      31.946  16.938   4.268  0.00  0.00    -0.002 C 
HETATM   11  C   UNK N   1      30.681  17.424   4.917  0.00  0.00     0.005 C 
ENDBRANCH   9  10
ENDBRANCH   8   9
ENDBRANCH   7   8
ENDBRANCH   5   7
ENDBRANCH   1   5
TORSDOF 5
ENDMDL
MODEL 7
REMARK VINA RESULT:      -4.3      3.400      4.501
REMARK  5 active torsions:
REMARK  status: ('A' for Active; 'I' for Inactive)
REMARK    1  A    between atoms: C_2  and  C_3 
REMARK    2  A    between atoms: C_3  and  C_4 
REMARK    3  A    between atoms: C_4  and  O_5 
REMARK    4  A    between atoms: O_5  and  C_6 
REMARK    5  A    between atoms: C_6  and  C_8 
ROOT
HETATM    1  C   UNK N   1      25.301  26.357  -5.058  0.00  0.00     0.110 C 
HETATM    2  C   UNK N   1      24.685  27.201  -5.886  0.00  0.00     0.042 C 
HETATM    3  C   UNK N   1      25.468  24.975  -5.416  0.00  0.00     0.105 C 
HETATM    4  N   UNK N   1      25.627  23.855  -5.655  0.00  0.00    -0.191 NA
ENDROOT
BRANCH   1   5
HETATM    5  C   UNK N   1      25.826  26.805  -3.765  0.00  0.00     0.303 C 
HETATM    6  O   UNK N   1      26.422  26.005  -3.051  0.00  0.00    -0.259 OA
BRANCH   5   7
HETATM    7  O   UNK N   1      25.659  28.081  -3.360  0.00  0.00    -0.317 OA
BRANCH   7   8
HETATM    8  C   UNK N   1      26.748  28.903  -3.281  0.00  0.00     0.179 C 
BRANCH   8   9
HETATM    9  C   UNK N   1      26.814  29.827  -4.452  0.00  0.00     0.026 C 
BRANCH   9  10
HETATM   10  C   UNK N   1      28.130  29.516  -5.114  0.00  0.00    -0.002 C 
HETATM   11  C   UNK N   1      27.885  29.021  -6.512  0.00  0.00     0.005 C 
ENDBRANCH   9  10
ENDBRANCH   8   9
ENDBRANCH   7   8
ENDBRANCH   5   7
ENDBRANCH   1   5
TORSDOF 5
ENDMDL
MODEL 8
REMARK VINA RESULT:      -4.3      1.894      2.381
REMARK  5 active torsions:
REMARK  status: ('A' for Active; 'I' for Inactive)
REMARK    1  A    between atoms: C_2  and  C_3 
REMARK    2  A    between atoms: C_3  and  C_4 
REMARK    3  A    between atoms: C_4  and  O_5 
REMARK    4  A    between atoms: O_5  and  C_6 
REMARK    5  A    between atoms: C_6  and  C_8 
ROOT
HETATM    1  C   UNK N   1      27.071  23.998  -4.849  0.00  0.00     0.110 C 
HETATM    2  C   UNK N   1      26.107  23.642  -5.697  0.00  0.00     0.042 C 
HETATM    3  C   UNK N   1      28.453  23.910  -5.236  0.00  0.00     0.105 C 
HETATM    4  N   UNK N   1      29.578  23.858  -5.497  0.00  0.00    -0.191 NA
ENDROOT
BRANCH   1   5
HETATM    5  C   UNK N   1      26.760  24.489  -3.503  0.00  0.00     0.303 C 
HETATM    6  O   UNK N   1      27.123  23.838  -2.529  0.00  0.00    -0.259 OA
BRANCH   5   7
HETATM    7  O   UNK N   1      26.083  25.643  -3.332  0.00  0.00    -0.317 OA
BRANCH   7   8
HETATM    8  C   UNK N   1      26.671  26.821  -3.698  0.00  0.00     0.179 C 
BRANCH   8   9
HETATM    9  C   UNK N   1      25.650  27.835  -4.097  0.00  0.00     0.026 C 
BRANCH   9  10
HETATM   10  C   UNK N   1      25.036  27.290  -5.358  0.00  0.00    -0.002 C 
HETATM   11  C   UNK N   1      26.073  27.256  -6.447  0.00  0.00     0.005 C 
ENDBRANCH   9  10
ENDBRANCH   8   9
ENDBRANCH   7   8
ENDBRANCH   5   7
ENDBRANCH   1   5
TORSDOF 5
ENDMDL
MODEL 9
REMARK VINA RESULT:      -4.1     14.488     16.995
REMARK  5 active torsions:
REMARK  status: ('A' for Active; 'I' for Inactive)
REMARK    1  A    between atoms: C_2  and  C_3 
REMARK    2  A    between atoms: C_3  and  C_4 
REMARK    3  A    between atoms: C_4  and  O_5 
REMARK    4  A    between atoms: O_5  and  C_6 
REMARK    5  A    between atoms: C_6  and  C_8 
ROOT
HETATM    1  C   UNK N   1      33.581  17.660   7.429  0.00  0.00     0.110 C 
HETATM    2  C   UNK N   1      33.606  17.462   6.111  0.00  0.00     0.042 C 
HETATM    3  C   UNK N   1      34.546  18.519   8.057  0.00  0.00     0.105 C 
HETATM    4  N   UNK N   1      35.299  19.200   8.610  0.00  0.00    -0.191 NA
ENDROOT
BRANCH   1   5
HETATM    5  C   UNK N   1      32.576  17.013   8.278  0.00  0.00     0.303 C 
HETATM    6  O   UNK N   1      31.664  17.685   8.746  0.00  0.00    -0.259 OA
BRANCH   5   7
HETATM    7  O   UNK N   1      32.649  15.692   8.544  0.00  0.00    -0.317 OA
BRANCH   7   8
HETATM    8  C   UNK N   1      33.840  15.159   8.951  0.00  0.00     0.179 C 
BRANCH   8   9
HETATM    9  C   UNK N   1      33.926  15.099  10.440  0.00  0.00     0.026 C 
BRANCH   9  10
HETATM   10  C   UNK N   1      35.105  15.966  10.794  0.00  0.00    -0.002 C 
HETATM   11  C   UNK N   1      35.846  15.357  11.951  0.00  0.00     0.005 C 
ENDBRANCH   9  10
ENDBRANCH   8   9
ENDBRANCH   7   8
ENDBRANCH   5   7
ENDBRANCH   1   5
TORSDOF 5
ENDMDL
