MODEL 1
REMARK VINA RESULT:      -5.9      0.000      0.000
REMARK  1 active torsions:
REMARK  status: ('A' for Active; 'I' for Inactive)
REMARK    1  A    between atoms: C_11  and  C_10 
ROOT
HETATM    1  C   UNK N   1      32.738  17.589   7.098  0.00  0.00     0.003 A 
HETATM    2  C   UNK N   1      32.094  16.363   7.285  0.00  0.00     0.003 A 
HETATM    3  C   UNK N   1      33.791  17.966   7.940  0.00  0.00     0.039 A 
HETATM    4  C   UNK N   1      32.500  15.512   8.314  0.00  0.00     0.040 A 
HETATM    5  C   UNK N   1      35.703  16.709  10.839  0.00  0.00     0.216 A 
HETATM    6  C   UNK N   1      34.201  17.115   8.972  0.00  0.00     0.102 A 
HETATM    7  C   UNK N   1      33.550  15.885   9.155  0.00  0.00     0.103 A 
HETATM    8  C   UNK N   1      34.960  15.372  11.001  0.00  0.00     0.220 A 
HETATM    9  O   UNK N   1      35.221  17.481   9.787  0.00  0.00    -0.345 OA
HETATM   10  O   UNK N   1      33.933  15.059  10.142  0.00  0.00    -0.333 OA
ENDROOT
BRANCH   8  11
HETATM   11  C   UNK N   1      35.271  14.354  12.047  0.00  0.00     0.105 A 
HETATM   12  N   UNK N   1      34.632  13.270  12.191  0.00  0.00    -0.376 N 
HETATM   13  C   UNK N   1      35.171  12.497  13.288  0.00  0.00     0.140 A 
ATOM     14  HN  UNK N   1      33.844  12.980  11.612  1.00  0.00     0.160 HD
HETATM   15  C   UNK N   1      36.337  13.367  13.826  0.00  0.00     0.140 A 
HETATM   16  N   UNK N   1      36.304  14.515  12.964  0.00  0.00    -0.376 N 
HETATM   17  H   UNK N   1      36.912  15.288  13.015  0.00  0.00     0.160 HD
ENDBRANCH   8  11
TORSDOF 1
ENDMDL
MODEL 2
REMARK VINA RESULT:      -5.8      3.714      7.907
REMARK  1 active torsions:
REMARK  status: ('A' for Active; 'I' for Inactive)
REMARK    1  A    between atoms: C_11  and  C_10 
ROOT
HETATM    1  C   UNK N   1      35.370  11.551  19.001  0.00  0.00     0.003 A 
HETATM    2  C   UNK N   1      35.180  12.936  18.953  0.00  0.00     0.003 A 
HETATM    3  C   UNK N   1      35.546  10.824  17.818  0.00  0.00     0.039 A 
HETATM    4  C   UNK N   1      35.166  13.595  17.723  0.00  0.00     0.040 A 
HETATM    5  C   UNK N   1      35.707  11.335  14.164  0.00  0.00     0.216 A 
HETATM    6  C   UNK N   1      35.533  11.482  16.583  0.00  0.00     0.102 A 
HETATM    7  C   UNK N   1      35.342  12.873  16.542  0.00  0.00     0.103 A 
HETATM    8  C   UNK N   1      35.495  12.858  14.168  0.00  0.00     0.220 A 
HETATM    9  O   UNK N   1      35.704  10.777  15.437  0.00  0.00    -0.345 OA
HETATM   10  O   UNK N   1      35.327  13.516  15.363  0.00  0.00    -0.333 OA
ENDROOT
BRANCH   8  11
HETATM   11  C   UNK N   1      35.454  13.709  12.943  0.00  0.00     0.105 A 
HETATM   12  N   UNK N   1      34.660  13.517  11.974  0.00  0.00    -0.376 N 
HETATM   13  C   UNK N   1      34.864  14.506  10.938  0.00  0.00     0.140 A 
ATOM     14  HN  UNK N   1      33.971  12.767  11.930  1.00  0.00     0.160 HD
HETATM   15  C   UNK N   1      36.006  15.400  11.488  0.00  0.00     0.140 A 
HETATM   16  N   UNK N   1      36.297  14.800  12.760  0.00  0.00    -0.376 N 
HETATM   17  H   UNK N   1      36.981  15.110  13.397  0.00  0.00     0.160 HD
ENDBRANCH   8  11
TORSDOF 1
ENDMDL
MODEL 3
REMARK VINA RESULT:      -5.7      2.584      6.623
REMARK  1 active torsions:
REMARK  status: ('A' for Active; 'I' for Inactive)
REMARK    1  A    between atoms: C_11  and  C_10 
ROOT
HETATM    1  C   UNK N   1      35.262  10.727  16.507  0.00  0.00     0.003 A 
HETATM    2  C   UNK N   1      34.242  10.377  15.617  0.00  0.00     0.003 A 
HETATM    3  C   UNK N   1      36.051  11.857  16.263  0.00  0.00     0.039 A 
HETATM    4  C   UNK N   1      34.010  11.156  14.483  0.00  0.00     0.040 A 
HETATM    5  C   UNK N   1      36.437  14.577  13.795  0.00  0.00     0.216 A 
HETATM    6  C   UNK N   1      35.820  12.640  15.127  0.00  0.00     0.102 A 
HETATM    7  C   UNK N   1      34.795  12.283  14.237  0.00  0.00     0.103 A 
HETATM    8  C   UNK N   1      35.303  14.147  12.849  0.00  0.00     0.220 A 
HETATM    9  O   UNK N   1      36.585  13.735  14.892  0.00  0.00    -0.345 OA
HETATM   10  O   UNK N   1      34.563  13.026  13.143  0.00  0.00    -0.333 OA
ENDROOT
BRANCH   8  11
HETATM   11  C   UNK N   1      34.927  14.869  11.598  0.00  0.00     0.105 A 
HETATM   12  N   UNK N   1      33.997  14.500  10.820  0.00  0.00    -0.376 N 
HETATM   13  C   UNK N   1      33.877  15.404   9.697  0.00  0.00     0.140 A 
ATOM     14  HN  UNK N   1      33.413  13.677  10.965  1.00  0.00     0.160 HD
HETATM   15  C   UNK N   1      34.979  16.467   9.948  0.00  0.00     0.140 A 
HETATM   16  N   UNK N   1      35.576  16.025  11.177  0.00  0.00    -0.376 N 
HETATM   17  H   UNK N   1      36.321  16.468  11.644  0.00  0.00     0.160 HD
ENDBRANCH   8  11
TORSDOF 1
ENDMDL
MODEL 4
REMARK VINA RESULT:      -5.5     12.248     14.222
REMARK  1 active torsions:
REMARK  status: ('A' for Active; 'I' for Inactive)
REMARK    1  A    between atoms: C_11  and  C_10 
ROOT
HETATM    1  C   UNK N   1      21.641  11.833  11.433  0.00  0.00     0.003 A 
HETATM    2  C   UNK N   1      22.909  12.042  10.882  0.00  0.00     0.003 A 
HETATM    3  C   UNK N   1      20.552  12.601  11.003  0.00  0.00     0.039 A 
HETATM    4  C   UNK N   1      23.091  13.018   9.902  0.00  0.00     0.040 A 
HETATM    5  C   UNK N   1      19.748  15.319   8.636  0.00  0.00     0.216 A 
HETATM    6  C   UNK N   1      20.731  13.580  10.020  0.00  0.00     0.102 A 
HETATM    7  C   UNK N   1      22.007  13.786   9.471  0.00  0.00     0.103 A 
HETATM    8  C   UNK N   1      21.163  15.508   8.063  0.00  0.00     0.220 A 
HETATM    9  O   UNK N   1      19.676  14.324   9.604  0.00  0.00    -0.345 OA
HETATM   10  O   UNK N   1      22.192  14.722   8.527  0.00  0.00    -0.333 OA
ENDROOT
BRANCH   8  11
HETATM   11  C   UNK N   1      21.524  16.505   7.014  0.00  0.00     0.105 A 
HETATM   12  N   UNK N   1      20.845  17.545   6.762  0.00  0.00    -0.376 N 
HETATM   13  C   UNK N   1      21.451  18.309   5.693  0.00  0.00     0.140 A 
ATOM     14  HN  UNK N   1      19.988  17.808   7.247  1.00  0.00     0.160 HD
HETATM   15  C   UNK N   1      22.712  17.490   5.311  0.00  0.00     0.140 A 
HETATM   16  N   UNK N   1      22.652  16.373   6.212  0.00  0.00    -0.376 N 
HETATM   17  H   UNK N   1      23.304  15.635   6.254  0.00  0.00     0.160 HD
ENDBRANCH   8  11
TORSDOF 1
ENDMDL
MODEL 5
REMARK VINA RESULT:      -5.4      4.192      6.958
REMARK  1 active torsions:
REMARK  status: ('A' for Active; 'I' for Inactive)
REMARK    1  A    between atoms: C_11  and  C_10 
ROOT
HETATM    1  C   UNK N   1      35.493  14.335  17.890  0.00  0.00     0.003 A 
HETATM    2  C   UNK N   1      36.591  15.094  17.474  0.00  0.00     0.003 A 
HETATM    3  C   UNK N   1      34.837  13.493  16.984  0.00  0.00     0.039 A 
HETATM    4  C   UNK N   1      37.035  15.013  16.154  0.00  0.00     0.040 A 
HETATM    5  C   UNK N   1      35.004  12.438  13.449  0.00  0.00     0.216 A 
HETATM    6  C   UNK N   1      35.280  13.409  15.660  0.00  0.00     0.102 A 
HETATM    7  C   UNK N   1      36.383  14.174  15.248  0.00  0.00     0.103 A 
HETATM    8  C   UNK N   1      36.216  13.295  13.044  0.00  0.00     0.220 A 
HETATM    9  O   UNK N   1      34.644  12.593  14.783  0.00  0.00    -0.345 OA
HETATM   10  O   UNK N   1      36.817  14.103  13.980  0.00  0.00    -0.333 OA
ENDROOT
BRANCH   8  11
HETATM   11  C   UNK N   1      36.811  13.323  11.677  0.00  0.00     0.105 A 
HETATM   12  N   UNK N   1      38.053  13.224  11.443  0.00  0.00    -0.376 N 
HETATM   13  C   UNK N   1      38.316  13.285  10.022  0.00  0.00     0.140 A 
ATOM     14  HN  UNK N   1      38.770  13.115  12.160  1.00  0.00     0.160 HD
HETATM   15  C   UNK N   1      36.912  13.451   9.384  0.00  0.00     0.140 A 
HETATM   16  N   UNK N   1      36.041  13.462  10.527  0.00  0.00    -0.376 N 
HETATM   17  H   UNK N   1      35.061  13.553  10.500  0.00  0.00     0.160 HD
ENDBRANCH   8  11
TORSDOF 1
ENDMDL
MODEL 6
REMARK VINA RESULT:      -5.4      3.073      4.312
REMARK  1 active torsions:
REMARK  status: ('A' for Active; 'I' for Inactive)
REMARK    1  A    between atoms: C_11  and  C_10 
ROOT
HETATM    1  C   UNK N   1      28.257  18.313   6.985  0.00  0.00     0.003 A 
HETATM    2  C   UNK N   1      28.504  18.730   8.297  0.00  0.00     0.003 A 
HETATM    3  C   UNK N   1      29.205  17.542   6.302  0.00  0.00     0.039 A 
HETATM    4  C   UNK N   1      29.697  18.377   8.927  0.00  0.00     0.040 A 
HETATM    5  C   UNK N   1      32.538  16.034   6.804  0.00  0.00     0.216 A 
HETATM    6  C   UNK N   1      30.403  17.186   6.932  0.00  0.00     0.102 A 
HETATM    7  C   UNK N   1      30.644  17.608   8.249  0.00  0.00     0.103 A 
HETATM    8  C   UNK N   1      32.759  16.519   8.247  0.00  0.00     0.220 A 
HETATM    9  O   UNK N   1      31.320  16.439   6.269  0.00  0.00    -0.345 OA
HETATM   10  O   UNK N   1      31.790  17.274   8.864  0.00  0.00    -0.333 OA
ENDROOT
BRANCH   8  11
HETATM   11  C   UNK N   1      33.977  16.229   9.059  0.00  0.00     0.105 A 
HETATM   12  N   UNK N   1      34.710  15.209   8.895  0.00  0.00    -0.376 N 
HETATM   13  C   UNK N   1      35.812  15.211   9.833  0.00  0.00     0.140 A 
ATOM     14  HN  UNK N   1      34.547  14.484   8.197  1.00  0.00     0.160 HD
HETATM   15  C   UNK N   1      35.604  16.508  10.657  0.00  0.00     0.140 A 
HETATM   16  N   UNK N   1      34.415  17.068  10.078  0.00  0.00    -0.376 N 
HETATM   17  H   UNK N   1      33.982  17.907  10.357  0.00  0.00     0.160 HD
ENDBRANCH   8  11
TORSDOF 1
ENDMDL
MODEL 7
REMARK VINA RESULT:      -5.3     11.217     13.421
REMARK  1 active torsions:
REMARK  status: ('A' for Active; 'I' for Inactive)
REMARK    1  A    between atoms: C_11  and  C_10 
ROOT
HETATM    1  C   UNK N   1      19.617  19.043   2.688  0.00  0.00     0.003 A 
HETATM    2  C   UNK N   1      19.975  17.909   3.423  0.00  0.00     0.003 A 
HETATM    3  C   UNK N   1      20.563  20.041   2.430  0.00  0.00     0.039 A 
HETATM    4  C   UNK N   1      21.278  17.771   3.901  0.00  0.00     0.040 A 
HETATM    5  C   UNK N   1      24.110  20.835   3.087  0.00  0.00     0.216 A 
HETATM    6  C   UNK N   1      21.871  19.906   2.908  0.00  0.00     0.102 A 
HETATM    7  C   UNK N   1      22.224  18.765   3.646  0.00  0.00     0.103 A 
HETATM    8  C   UNK N   1      24.450  19.568   3.890  0.00  0.00     0.220 A 
HETATM    9  O   UNK N   1      22.788  20.874   2.658  0.00  0.00    -0.345 OA
HETATM   10  O   UNK N   1      23.476  18.623   4.110  0.00  0.00    -0.333 OA
ENDROOT
BRANCH   8  11
HETATM   11  C   UNK N   1      25.793  19.270   4.469  0.00  0.00     0.105 A 
HETATM   12  N   UNK N   1      25.971  18.698   5.585  0.00  0.00    -0.376 N 
HETATM   13  C   UNK N   1      27.383  18.551   5.868  0.00  0.00     0.140 A 
ATOM     14  HN  UNK N   1      25.222  18.383   6.201  1.00  0.00     0.160 HD
HETATM   15  C   UNK N   1      28.083  19.182   4.636  0.00  0.00     0.140 A 
HETATM   16  N   UNK N   1      26.978  19.602   3.820  0.00  0.00    -0.376 N 
HETATM   17  H   UNK N   1      27.048  20.050   2.946  0.00  0.00     0.160 HD
ENDBRANCH   8  11
TORSDOF 1
ENDMDL
MODEL 8
REMARK VINA RESULT:      -5.2      1.452      2.003
REMARK  1 active torsions:
REMARK  status: ('A' for Active; 'I' for Inactive)
REMARK    1  A    between atoms: C_11  and  C_10 
ROOT
HETATM    1  C   UNK N   1      33.664  17.364   6.295  0.00  0.00     0.003 A 
HETATM    2  C   UNK N   1      33.090  17.942   7.431  0.00  0.00     0.003 A 
HETATM    3  C   UNK N   1      34.524  16.266   6.423  0.00  0.00     0.039 A 
HETATM    4  C   UNK N   1      33.374  17.426   8.695  0.00  0.00     0.040 A 
HETATM    5  C   UNK N   1      35.993  14.093   9.023  0.00  0.00     0.216 A 
HETATM    6  C   UNK N   1      34.811  15.746   7.690  0.00  0.00     0.102 A 
HETATM    7  C   UNK N   1      34.231  16.332   8.826  0.00  0.00     0.103 A 
HETATM    8  C   UNK N   1      35.335  14.767  10.239  0.00  0.00     0.220 A 
HETATM    9  O   UNK N   1      35.645  14.683   7.813  0.00  0.00    -0.345 OA
HETATM   10  O   UNK N   1      34.499  15.842  10.048  0.00  0.00    -0.333 OA
ENDROOT
BRANCH   8  11
HETATM   11  C   UNK N   1      35.534  14.338  11.654  0.00  0.00     0.105 A 
HETATM   12  N   UNK N   1      36.374  14.867  12.442  0.00  0.00    -0.376 N 
HETATM   13  C   UNK N   1      36.330  14.232  13.742  0.00  0.00     0.140 A 
ATOM     14  HN  UNK N   1      36.997  15.635  12.195  1.00  0.00     0.160 HD
HETATM   15  C   UNK N   1      35.234  13.144  13.594  0.00  0.00     0.140 A 
HETATM   16  N   UNK N   1      34.804  13.306  12.234  0.00  0.00    -0.376 N 
HETATM   17  H   UNK N   1      34.107  12.774  11.785  0.00  0.00     0.160 HD
ENDBRANCH   8  11
TORSDOF 1
ENDMDL
MODEL 9
REMARK VINA RESULT:      -5.2     15.117     17.132
REMARK  1 active torsions:
REMARK  status: ('A' for Active; 'I' for Inactive)
REMARK    1  A    between atoms: C_11  and  C_10 
ROOT
HETATM    1  C   UNK N   1      33.842  20.075  -3.740  0.00  0.00     0.003 A 
HETATM    2  C   UNK N   1      33.243  19.937  -4.995  0.00  0.00     0.003 A 
HETATM    3  C   UNK N   1      33.256  20.895  -2.767  0.00  0.00     0.039 A 
HETATM    4  C   UNK N   1      32.059  20.618  -5.281  0.00  0.00     0.040 A 
HETATM    5  C   UNK N   1      30.327  23.092  -2.291  0.00  0.00     0.216 A 
HETATM    6  C   UNK N   1      32.069  21.578  -3.051  0.00  0.00     0.102 A 
HETATM    7  C   UNK N   1      31.473  21.436  -4.314  0.00  0.00     0.103 A 
HETATM    8  C   UNK N   1      29.710  22.905  -3.687  0.00  0.00     0.220 A 
HETATM    9  O   UNK N   1      31.502  22.372  -2.109  0.00  0.00    -0.345 OA
HETATM   10  O   UNK N   1      30.333  22.086  -4.599  0.00  0.00    -0.333 OA
ENDROOT
BRANCH   8  11
HETATM   11  C   UNK N   1      28.452  23.560  -4.150  0.00  0.00     0.105 A 
HETATM   12  N   UNK N   1      28.112  23.661  -5.366  0.00  0.00    -0.376 N 
HETATM   13  C   UNK N   1      26.843  24.345  -5.491  0.00  0.00     0.140 A 
ATOM     14  HN  UNK N   1      28.658  23.308  -6.151  1.00  0.00     0.160 HD
HETATM   15  C   UNK N   1      26.441  24.666  -4.028  0.00  0.00     0.140 A 
HETATM   16  N   UNK N   1      27.533  24.123  -3.270  0.00  0.00    -0.376 N 
HETATM   17  H   UNK N   1      27.618  24.145  -2.289  0.00  0.00     0.160 HD
ENDBRANCH   8  11
TORSDOF 1
ENDMDL
