MODEL 1
REMARK VINA RESULT:      -7.0      0.000      0.000
REMARK  12 active torsions:
REMARK  status: ('A' for Active; 'I' for Inactive)
REMARK    1  A    between atoms: C_3  and  C_4 
REMARK    2  A    between atoms: C_5  and  C_4 
REMARK    3  A    between atoms: C_6  and  C_9 
REMARK    4  A    between atoms: C_10  and  O_34 
REMARK    5  A    between atoms: C_11  and  O_17 
REMARK    6  A    between atoms: O_17  and  C_18 
REMARK    7  A    between atoms: C_18  and  C_20 
REMARK    8  A    between atoms: C_21  and  C_22 
REMARK    9  A    between atoms: C_25  and  O_28 
REMARK   10  A    between atoms: O_28  and  C_29 
REMARK   11  A    between atoms: C_29  and  C_30 
REMARK   12  A    between atoms: C_30  and  N_31 
ROOT
HETATM    1  C   UNK N   1      21.284  15.790   4.895  0.00  0.00     0.091 C 
HETATM    2  C   UNK N   1      20.958  17.280   5.149  0.00  0.00     0.160 C 
HETATM    3  C   UNK N   1      21.213  18.008   3.793  0.00  0.00     0.161 C 
HETATM    4  C   UNK N   1      20.144  17.566   2.789  0.00  0.00     0.038 C 
HETATM    5  C   UNK N   1      20.194  16.056   2.536  0.00  0.00     0.043 C 
HETATM    6  C   UNK N   1      20.271  15.287   3.850  0.00  0.00     0.091 A 
HETATM    7  C   UNK N   1      19.625  13.959   3.925  0.00  0.00     0.207 A 
HETATM    8  O   UNK N   1      18.992  15.122   4.412  0.00  0.00    -0.374 OA
ENDROOT
BRANCH   3   9
HETATM    9  O   UNK N   1      21.284  19.396   3.812  0.00  0.00    -0.310 OA
BRANCH   9  10
HETATM   10  C   UNK N   1      22.288  20.102   3.213  0.00  0.00     0.283 C 
HETATM   11  O   UNK N   1      22.039  21.128   2.607  0.00  0.00    -0.260 OA
BRANCH  10  12
HETATM   12  C   UNK N   1      23.673  19.653   3.382  0.00  0.00     0.083 C 
HETATM   13  C   UNK N   1      24.834  20.269   3.165  0.00  0.00     0.017 C 
BRANCH  13  14
HETATM   14  C   UNK N   1      26.033  19.556   3.660  0.00  0.00    -0.036 A 
HETATM   15  C   UNK N   1      27.062  20.295   4.271  0.00  0.00     0.014 A 
HETATM   16  C   UNK N   1      28.162  19.668   4.831  0.00  0.00     0.037 A 
HETATM   17  C   UNK N   1      28.257  18.283   4.813  0.00  0.00     0.068 A 
HETATM   18  C   UNK N   1      27.251  17.526   4.173  0.00  0.00     0.037 A 
HETATM   19  C   UNK N   1      26.144  18.164   3.590  0.00  0.00     0.014 A 
BRANCH  17  20
HETATM   20  O   UNK N   1      29.301  17.708   5.449  0.00  0.00    -0.349 OA
BRANCH  20  21
HETATM   21  C   UNK N   1      29.160  16.759   6.431  0.00  0.00     0.206 C 
BRANCH  21  22
HETATM   22  C   UNK N   1      29.894  17.202   7.687  0.00  0.00     0.297 C 
BRANCH  22  23
HETATM   23  N   UNK N   1      29.220  18.330   8.316  0.00  0.00     0.082 N 
HETATM   24  C   UNK N   1      27.981  17.819   8.872  0.00  0.00     0.309 C 
HETATM   25  C   UNK N   1      30.030  18.778   9.437  0.00  0.00     0.309 C 
ENDBRANCH  22  23
ENDBRANCH  21  22
ENDBRANCH  20  21
ENDBRANCH  17  20
ENDBRANCH  13  14
ENDBRANCH  10  12
ENDBRANCH   9  10
ENDBRANCH   3   9
BRANCH   2  26
HETATM   26  O   UNK N   1      21.720  17.787   6.196  0.00  0.00    -0.388 OA
HETATM   27  C   UNK N   1      20.788  18.226   7.139  0.00  0.00     0.202 C 
ENDBRANCH   2  26
BRANCH   1  28
HETATM   28  C   UNK N   1      21.549  14.815   6.075  0.00  0.00     0.093 A 
HETATM   29  C   UNK N   1      22.544  13.701   6.007  0.00  0.00     0.160 A 
HETATM   30  O   UNK N   1      22.854  14.960   6.568  0.00  0.00    -0.369 OA
HETATM   31  C   UNK N   1      20.500  14.749   7.182  0.00  0.00     0.049 C 
BRANCH  29  32
HETATM   32  C   UNK N   1      22.529  12.708   7.169  0.00  0.00     0.062 C 
BRANCH  32  33
HETATM   33  C   UNK N   1      23.775  12.773   8.003  0.00  0.00    -0.022 C 
HETATM   34  C   UNK N   1      23.729  12.892   9.337  0.00  0.00    -0.091 C 
HETATM   35  C   UNK N   1      22.429  12.963  10.076  0.00  0.00     0.042 C 
HETATM   36  C   UNK N   1      24.998  12.949  10.114  0.00  0.00     0.042 C 
ENDBRANCH  32  33
ENDBRANCH  29  32
ENDBRANCH   1  28
TORSDOF 12
ENDMDL
MODEL 2
REMARK VINA RESULT:      -6.6      2.560      3.907
REMARK  12 active torsions:
REMARK  status: ('A' for Active; 'I' for Inactive)
REMARK    1  A    between atoms: C_3  and  C_4 
REMARK    2  A    between atoms: C_5  and  C_4 
REMARK    3  A    between atoms: C_6  and  C_9 
REMARK    4  A    between atoms: C_10  and  O_34 
REMARK    5  A    between atoms: C_11  and  O_17 
REMARK    6  A    between atoms: O_17  and  C_18 
REMARK    7  A    between atoms: C_18  and  C_20 
REMARK    8  A    between atoms: C_21  and  C_22 
REMARK    9  A    between atoms: C_25  and  O_28 
REMARK   10  A    between atoms: O_28  and  C_29 
REMARK   11  A    between atoms: C_29  and  C_30 
REMARK   12  A    between atoms: C_30  and  N_31 
ROOT
HETATM    1  C   UNK N   1      23.950  15.487   4.854  0.00  0.00     0.091 C 
HETATM    2  C   UNK N   1      23.702  16.763   4.018  0.00  0.00     0.160 C 
HETATM    3  C   UNK N   1      25.091  17.463   3.888  0.00  0.00     0.161 C 
HETATM    4  C   UNK N   1      25.991  16.607   2.991  0.00  0.00     0.038 C 
HETATM    5  C   UNK N   1      26.214  15.212   3.581  0.00  0.00     0.043 C 
HETATM    6  C   UNK N   1      24.896  14.593   4.030  0.00  0.00     0.091 A 
HETATM    7  C   UNK N   1      24.738  13.126   3.930  0.00  0.00     0.207 A 
HETATM    8  O   UNK N   1      24.224  13.998   2.947  0.00  0.00    -0.374 OA
ENDROOT
BRANCH   3   9
HETATM    9  O   UNK N   1      25.108  18.779   3.440  0.00  0.00    -0.310 OA
BRANCH   9  10
HETATM   10  C   UNK N   1      26.175  19.614   3.611  0.00  0.00     0.283 C 
HETATM   11  O   UNK N   1      26.247  20.653   2.980  0.00  0.00    -0.260 OA
BRANCH  10  12
HETATM   12  C   UNK N   1      27.184  19.282   4.620  0.00  0.00     0.083 C 
HETATM   13  C   UNK N   1      27.159  19.349   5.951  0.00  0.00     0.017 C 
BRANCH  13  14
HETATM   14  C   UNK N   1      28.306  18.718   6.640  0.00  0.00    -0.036 A 
HETATM   15  C   UNK N   1      28.530  19.009   7.998  0.00  0.00     0.014 A 
HETATM   16  C   UNK N   1      29.534  18.377   8.712  0.00  0.00     0.037 A 
HETATM   17  C   UNK N   1      30.333  17.423   8.095  0.00  0.00     0.068 A 
HETATM   18  C   UNK N   1      30.146  17.144   6.723  0.00  0.00     0.037 A 
HETATM   19  C   UNK N   1      29.138  17.798   5.995  0.00  0.00     0.014 A 
BRANCH  17  20
HETATM   20  O   UNK N   1      31.240  16.768   8.850  0.00  0.00    -0.349 OA
BRANCH  20  21
HETATM   21  C   UNK N   1      31.981  15.705   8.392  0.00  0.00     0.206 C 
BRANCH  21  22
HETATM   22  C   UNK N   1      33.395  16.161   8.071  0.00  0.00     0.297 C 
BRANCH  22  23
HETATM   23  N   UNK N   1      33.810  17.242   8.956  0.00  0.00     0.082 N 
HETATM   24  C   UNK N   1      34.847  16.703   9.816  0.00  0.00     0.309 C 
HETATM   25  C   UNK N   1      34.430  18.279   8.148  0.00  0.00     0.309 C 
ENDBRANCH  22  23
ENDBRANCH  21  22
ENDBRANCH  20  21
ENDBRANCH  17  20
ENDBRANCH  13  14
ENDBRANCH  10  12
ENDBRANCH   9  10
ENDBRANCH   3   9
BRANCH   2  26
HETATM   26  O   UNK N   1      22.734  17.568   4.609  0.00  0.00    -0.388 OA
HETATM   27  C   UNK N   1      21.840  17.870   3.580  0.00  0.00     0.202 C 
ENDBRANCH   2  26
BRANCH   1  28
HETATM   28  C   UNK N   1      22.776  14.740   5.545  0.00  0.00     0.093 A 
HETATM   29  C   UNK N   1      22.932  13.975   6.821  0.00  0.00     0.160 A 
HETATM   30  O   UNK N   1      22.475  15.312   6.790  0.00  0.00    -0.369 OA
HETATM   31  C   UNK N   1      21.533  14.455   4.706  0.00  0.00     0.049 C 
BRANCH  29  32
HETATM   32  C   UNK N   1      21.735  13.125   7.250  0.00  0.00     0.062 C 
BRANCH  32  33
HETATM   33  C   UNK N   1      21.942  12.467   8.582  0.00  0.00    -0.022 C 
HETATM   34  C   UNK N   1      21.383  12.946   9.703  0.00  0.00    -0.091 C 
HETATM   35  C   UNK N   1      20.516  14.165   9.690  0.00  0.00     0.042 C 
HETATM   36  C   UNK N   1      21.620  12.250  10.998  0.00  0.00     0.042 C 
ENDBRANCH  32  33
ENDBRANCH  29  32
ENDBRANCH   1  28
TORSDOF 12
ENDMDL
MODEL 3
REMARK VINA RESULT:      -6.5      2.403      3.192
REMARK  12 active torsions:
REMARK  status: ('A' for Active; 'I' for Inactive)
REMARK    1  A    between atoms: C_3  and  C_4 
REMARK    2  A    between atoms: C_5  and  C_4 
REMARK    3  A    between atoms: C_6  and  C_9 
REMARK    4  A    between atoms: C_10  and  O_34 
REMARK    5  A    between atoms: C_11  and  O_17 
REMARK    6  A    between atoms: O_17  and  C_18 
REMARK    7  A    between atoms: C_18  and  C_20 
REMARK    8  A    between atoms: C_21  and  C_22 
REMARK    9  A    between atoms: C_25  and  O_28 
REMARK   10  A    between atoms: O_28  and  C_29 
REMARK   11  A    between atoms: C_29  and  C_30 
REMARK   12  A    between atoms: C_30  and  N_31 
ROOT
HETATM    1  C   UNK N   1      23.059  14.632   5.823  0.00  0.00     0.091 C 
HETATM    2  C   UNK N   1      22.474  16.027   5.500  0.00  0.00     0.160 C 
HETATM    3  C   UNK N   1      23.556  16.754   4.642  0.00  0.00     0.161 C 
HETATM    4  C   UNK N   1      23.643  16.068   3.276  0.00  0.00     0.038 C 
HETATM    5  C   UNK N   1      24.048  14.596   3.405  0.00  0.00     0.043 C 
HETATM    6  C   UNK N   1      23.222  13.898   4.479  0.00  0.00     0.091 A 
HETATM    7  C   UNK N   1      22.900  12.465   4.298  0.00  0.00     0.207 A 
HETATM    8  O   UNK N   1      21.979  13.482   3.968  0.00  0.00    -0.374 OA
ENDROOT
BRANCH   3   9
HETATM    9  O   UNK N   1      23.420  18.125   4.464  0.00  0.00    -0.310 OA
BRANCH   9  10
HETATM   10  C   UNK N   1      24.481  18.966   4.285  0.00  0.00     0.283 C 
HETATM   11  O   UNK N   1      24.336  20.018   3.689  0.00  0.00    -0.260 OA
BRANCH  10  12
HETATM   12  C   UNK N   1      25.770  18.623   4.890  0.00  0.00     0.083 C 
HETATM   13  C   UNK N   1      26.981  19.165   4.759  0.00  0.00     0.017 C 
BRANCH  13  14
HETATM   14  C   UNK N   1      28.004  18.671   5.706  0.00  0.00    -0.036 A 
HETATM   15  C   UNK N   1      27.943  19.079   7.050  0.00  0.00     0.014 A 
HETATM   16  C   UNK N   1      28.822  18.575   7.995  0.00  0.00     0.037 A 
HETATM   17  C   UNK N   1      29.775  17.635   7.627  0.00  0.00     0.068 A 
HETATM   18  C   UNK N   1      29.874  17.240   6.275  0.00  0.00     0.037 A 
HETATM   19  C   UNK N   1      28.994  17.764   5.314  0.00  0.00     0.014 A 
BRANCH  17  20
HETATM   20  O   UNK N   1      30.552  17.104   8.596  0.00  0.00    -0.349 OA
BRANCH  20  21
HETATM   21  C   UNK N   1      31.925  17.105   8.551  0.00  0.00     0.206 C 
BRANCH  21  22
HETATM   22  C   UNK N   1      32.453  15.712   8.859  0.00  0.00     0.297 C 
BRANCH  22  23
HETATM   23  N   UNK N   1      33.906  15.713   8.957  0.00  0.00     0.082 N 
HETATM   24  C   UNK N   1      34.330  17.097   8.846  0.00  0.00     0.309 C 
HETATM   25  C   UNK N   1      34.273  15.268  10.292  0.00  0.00     0.309 C 
ENDBRANCH  22  23
ENDBRANCH  21  22
ENDBRANCH  20  21
ENDBRANCH  17  20
ENDBRANCH  13  14
ENDBRANCH  10  12
ENDBRANCH   9  10
ENDBRANCH   3   9
BRANCH   2  26
HETATM   26  O   UNK N   1      22.143  16.712   6.663  0.00  0.00    -0.388 OA
HETATM   27  C   UNK N   1      20.836  17.158   6.459  0.00  0.00     0.202 C 
ENDBRANCH   2  26
BRANCH   1  28
HETATM   28  C   UNK N   1      22.482  13.769   6.978  0.00  0.00     0.093 A 
HETATM   29  C   UNK N   1      23.320  12.848   7.806  0.00  0.00     0.160 A 
HETATM   30  O   UNK N   1      23.010  14.163   8.217  0.00  0.00    -0.369 OA
HETATM   31  C   UNK N   1      20.970  13.563   7.015  0.00  0.00     0.049 C 
BRANCH  29  32
HETATM   32  C   UNK N   1      22.564  11.916   8.755  0.00  0.00     0.062 C 
BRANCH  32  33
HETATM   33  C   UNK N   1      23.183  11.853  10.120  0.00  0.00    -0.022 C 
HETATM   34  C   UNK N   1      22.458  12.021  11.235  0.00  0.00    -0.091 C 
HETATM   35  C   UNK N   1      20.985  12.276  11.183  0.00  0.00     0.042 C 
HETATM   36  C   UNK N   1      23.125  11.946  12.564  0.00  0.00     0.042 C 
ENDBRANCH  32  33
ENDBRANCH  29  32
ENDBRANCH   1  28
TORSDOF 12
ENDMDL
MODEL 4
REMARK VINA RESULT:      -6.4     11.355     17.179
REMARK  12 active torsions:
REMARK  status: ('A' for Active; 'I' for Inactive)
REMARK    1  A    between atoms: C_3  and  C_4 
REMARK    2  A    between atoms: C_5  and  C_4 
REMARK    3  A    between atoms: C_6  and  C_9 
REMARK    4  A    between atoms: C_10  and  O_34 
REMARK    5  A    between atoms: C_11  and  O_17 
REMARK    6  A    between atoms: O_17  and  C_18 
REMARK    7  A    between atoms: C_18  and  C_20 
REMARK    8  A    between atoms: C_21  and  C_22 
REMARK    9  A    between atoms: C_25  and  O_28 
REMARK   10  A    between atoms: O_28  and  C_29 
REMARK   11  A    between atoms: C_29  and  C_30 
REMARK   12  A    between atoms: C_30  and  N_31 
ROOT
HETATM    1  C   UNK N   1      35.519  13.392  10.841  0.00  0.00     0.091 C 
HETATM    2  C   UNK N   1      35.840  12.961  12.290  0.00  0.00     0.160 C 
HETATM    3  C   UNK N   1      35.648  11.413  12.326  0.00  0.00     0.161 C 
HETATM    4  C   UNK N   1      36.758  10.761  11.495  0.00  0.00     0.038 C 
HETATM    5  C   UNK N   1      36.712  11.213  10.033  0.00  0.00     0.043 C 
HETATM    6  C   UNK N   1      36.574  12.728   9.936  0.00  0.00     0.091 A 
HETATM    7  C   UNK N   1      37.210  13.420   8.794  0.00  0.00     0.207 A 
HETATM    8  O   UNK N   1      37.826  13.356  10.062  0.00  0.00    -0.374 OA
ENDROOT
BRANCH   3   9
HETATM    9  O   UNK N   1      35.583  10.801  13.572  0.00  0.00    -0.310 OA
BRANCH   9  10
HETATM   10  C   UNK N   1      34.413  10.595  14.244  0.00  0.00     0.283 C 
HETATM   11  O   UNK N   1      33.356  10.571  13.640  0.00  0.00    -0.260 OA
BRANCH  10  12
HETATM   12  C   UNK N   1      34.456  10.320  15.683  0.00  0.00     0.083 C 
HETATM   13  C   UNK N   1      35.477  10.210  16.531  0.00  0.00     0.017 C 
BRANCH  13  14
HETATM   14  C   UNK N   1      35.109  10.137  17.963  0.00  0.00    -0.036 A 
HETATM   15  C   UNK N   1      35.481  11.190  18.817  0.00  0.00     0.014 A 
HETATM   16  C   UNK N   1      35.083  11.214  20.144  0.00  0.00     0.037 A 
HETATM   17  C   UNK N   1      34.287  10.196  20.650  0.00  0.00     0.068 A 
HETATM   18  C   UNK N   1      33.933   9.112  19.816  0.00  0.00     0.037 A 
HETATM   19  C   UNK N   1      34.351   9.080  18.475  0.00  0.00     0.014 A 
BRANCH  17  20
HETATM   20  O   UNK N   1      33.848  10.304  21.922  0.00  0.00    -0.349 OA
BRANCH  20  21
HETATM   21  C   UNK N   1      34.246   9.465  22.935  0.00  0.00     0.206 C 
BRANCH  21  22
HETATM   22  C   UNK N   1      33.512   9.820  24.218  0.00  0.00     0.297 C 
BRANCH  22  23
HETATM   23  N   UNK N   1      32.074   9.655  24.061  0.00  0.00     0.082 N 
HETATM   24  C   UNK N   1      31.827   8.230  23.944  0.00  0.00     0.309 C 
HETATM   25  C   UNK N   1      31.428  10.094  25.287  0.00  0.00     0.309 C 
ENDBRANCH  22  23
ENDBRANCH  21  22
ENDBRANCH  20  21
ENDBRANCH  17  20
ENDBRANCH  13  14
ENDBRANCH  10  12
ENDBRANCH   9  10
ENDBRANCH   3   9
BRANCH   2  26
HETATM   26  O   UNK N   1      35.037  13.635  13.202  0.00  0.00    -0.388 OA
HETATM   27  C   UNK N   1      35.905  14.036  14.220  0.00  0.00     0.202 C 
ENDBRANCH   2  26
BRANCH   1  28
HETATM   28  C   UNK N   1      35.198  14.873  10.497  0.00  0.00     0.093 A 
HETATM   29  C   UNK N   1      34.296  15.274   9.375  0.00  0.00     0.160 A 
HETATM   30  O   UNK N   1      33.841  15.158  10.707  0.00  0.00    -0.369 OA
HETATM   31  C   UNK N   1      36.125  15.944  11.067  0.00  0.00     0.049 C 
BRANCH  29  32
HETATM   32  C   UNK N   1      34.256  16.765   9.039  0.00  0.00     0.062 C 
BRANCH  32  33
HETATM   33  C   UNK N   1      34.323  17.028   7.563  0.00  0.00    -0.022 C 
HETATM   34  C   UNK N   1      33.227  17.307   6.843  0.00  0.00    -0.091 C 
HETATM   35  C   UNK N   1      31.871  17.377   7.471  0.00  0.00     0.042 C 
HETATM   36  C   UNK N   1      33.354  17.562   5.381  0.00  0.00     0.042 C 
ENDBRANCH  32  33
ENDBRANCH  29  32
ENDBRANCH   1  28
TORSDOF 12
ENDMDL
MODEL 5
REMARK VINA RESULT:      -6.3      4.755     10.529
REMARK  12 active torsions:
REMARK  status: ('A' for Active; 'I' for Inactive)
REMARK    1  A    between atoms: C_3  and  C_4 
REMARK    2  A    between atoms: C_5  and  C_4 
REMARK    3  A    between atoms: C_6  and  C_9 
REMARK    4  A    between atoms: C_10  and  O_34 
REMARK    5  A    between atoms: C_11  and  O_17 
REMARK    6  A    between atoms: O_17  and  C_18 
REMARK    7  A    between atoms: C_18  and  C_20 
REMARK    8  A    between atoms: C_21  and  C_22 
REMARK    9  A    between atoms: C_25  and  O_28 
REMARK   10  A    between atoms: O_28  and  C_29 
REMARK   11  A    between atoms: C_29  and  C_30 
REMARK   12  A    between atoms: C_30  and  N_31 
ROOT
HETATM    1  C   UNK N   1      32.692  15.160   8.042  0.00  0.00     0.091 C 
HETATM    2  C   UNK N   1      31.787  15.446   6.821  0.00  0.00     0.160 C 
HETATM    3  C   UNK N   1      30.822  16.588   7.266  0.00  0.00     0.161 C 
HETATM    4  C   UNK N   1      31.631  17.879   7.433  0.00  0.00     0.038 C 
HETATM    5  C   UNK N   1      32.718  17.731   8.501  0.00  0.00     0.043 C 
HETATM    6  C   UNK N   1      33.506  16.441   8.301  0.00  0.00     0.091 A 
HETATM    7  C   UNK N   1      34.938  16.429   8.670  0.00  0.00     0.207 A 
HETATM    8  O   UNK N   1      34.515  16.612   7.336  0.00  0.00    -0.374 OA
ENDROOT
BRANCH   3   9
HETATM    9  O   UNK N   1      29.711  16.838   6.469  0.00  0.00    -0.310 OA
BRANCH   9  10
HETATM   10  C   UNK N   1      28.537  17.335   6.957  0.00  0.00     0.283 C 
HETATM   11  O   UNK N   1      28.256  17.200   8.133  0.00  0.00    -0.260 OA
BRANCH  10  12
HETATM   12  C   UNK N   1      27.663  18.103   6.065  0.00  0.00     0.083 C 
HETATM   13  C   UNK N   1      27.704  18.308   4.749  0.00  0.00     0.017 C 
BRANCH  13  14
HETATM   14  C   UNK N   1      26.513  18.972   4.173  0.00  0.00    -0.036 A 
HETATM   15  C   UNK N   1      25.235  18.504   4.524  0.00  0.00     0.014 A 
HETATM   16  C   UNK N   1      24.089  19.146   4.084  0.00  0.00     0.037 A 
HETATM   17  C   UNK N   1      24.188  20.284   3.296  0.00  0.00     0.068 A 
HETATM   18  C   UNK N   1      25.463  20.748   2.903  0.00  0.00     0.037 A 
HETATM   19  C   UNK N   1      26.625  20.086   3.336  0.00  0.00     0.014 A 
BRANCH  17  20
HETATM   20  O   UNK N   1      23.050  20.930   2.964  0.00  0.00    -0.349 OA
BRANCH  20  21
HETATM   21  C   UNK N   1      22.030  20.349   2.249  0.00  0.00     0.206 C 
BRANCH  21  22
HETATM   22  C   UNK N   1      20.735  20.424   3.043  0.00  0.00     0.297 C 
BRANCH  22  23
HETATM   23  N   UNK N   1      20.009  19.163   2.979  0.00  0.00     0.082 N 
HETATM   24  C   UNK N   1      20.312  18.572   1.689  0.00  0.00     0.309 C 
HETATM   25  C   UNK N   1      20.556  18.271   3.989  0.00  0.00     0.309 C 
ENDBRANCH  22  23
ENDBRANCH  21  22
ENDBRANCH  20  21
ENDBRANCH  17  20
ENDBRANCH  13  14
ENDBRANCH  10  12
ENDBRANCH   9  10
ENDBRANCH   3   9
BRANCH   2  26
HETATM   26  O   UNK N   1      31.125  14.296   6.409  0.00  0.00    -0.388 OA
HETATM   27  C   UNK N   1      31.368  14.212   5.037  0.00  0.00     0.202 C 
ENDBRANCH   2  26
BRANCH   1  28
HETATM   28  C   UNK N   1      33.499  13.837   8.148  0.00  0.00     0.093 A 
HETATM   29  C   UNK N   1      33.830  13.185   9.453  0.00  0.00     0.160 A 
HETATM   30  O   UNK N   1      32.711  12.805   8.679  0.00  0.00    -0.369 OA
HETATM   31  C   UNK N   1      34.302  13.402   6.925  0.00  0.00     0.049 C 
BRANCH  29  32
HETATM   32  C   UNK N   1      34.808  12.011   9.393  0.00  0.00     0.062 C 
BRANCH  32  33
HETATM   33  C   UNK N   1      36.061  12.261  10.180  0.00  0.00    -0.022 C 
HETATM   34  C   UNK N   1      36.236  11.759  11.411  0.00  0.00    -0.091 C 
HETATM   35  C   UNK N   1      35.193  10.914  12.071  0.00  0.00     0.042 C 
HETATM   36  C   UNK N   1      37.502  12.037  12.144  0.00  0.00     0.042 C 
ENDBRANCH  32  33
ENDBRANCH  29  32
ENDBRANCH   1  28
TORSDOF 12
ENDMDL
MODEL 6
REMARK VINA RESULT:      -6.3      6.242     11.685
REMARK  12 active torsions:
REMARK  status: ('A' for Active; 'I' for Inactive)
REMARK    1  A    between atoms: C_3  and  C_4 
REMARK    2  A    between atoms: C_5  and  C_4 
REMARK    3  A    between atoms: C_6  and  C_9 
REMARK    4  A    between atoms: C_10  and  O_34 
REMARK    5  A    between atoms: C_11  and  O_17 
REMARK    6  A    between atoms: O_17  and  C_18 
REMARK    7  A    between atoms: C_18  and  C_20 
REMARK    8  A    between atoms: C_21  and  C_22 
REMARK    9  A    between atoms: C_25  and  O_28 
REMARK   10  A    between atoms: O_28  and  C_29 
REMARK   11  A    between atoms: C_29  and  C_30 
REMARK   12  A    between atoms: C_30  and  N_31 
ROOT
HETATM    1  C   UNK N   1      31.363  17.250   6.324  0.00  0.00     0.091 C 
HETATM    2  C   UNK N   1      32.467  16.216   6.003  0.00  0.00     0.160 C 
HETATM    3  C   UNK N   1      33.821  16.934   6.297  0.00  0.00     0.161 C 
HETATM    4  C   UNK N   1      33.947  17.147   7.809  0.00  0.00     0.038 C 
HETATM    5  C   UNK N   1      32.815  18.022   8.354  0.00  0.00     0.043 C 
HETATM    6  C   UNK N   1      31.462  17.551   7.831  0.00  0.00     0.091 A 
HETATM    7  C   UNK N   1      30.279  17.709   8.703  0.00  0.00     0.207 A 
HETATM    8  O   UNK N   1      30.970  16.483   8.601  0.00  0.00    -0.374 OA
ENDROOT
BRANCH   3   9
HETATM    9  O   UNK N   1      34.981  16.340   5.815  0.00  0.00    -0.310 OA
BRANCH   9  10
HETATM   10  C   UNK N   1      35.372  15.077   6.155  0.00  0.00     0.283 C 
HETATM   11  O   UNK N   1      35.850  14.337   5.315  0.00  0.00    -0.260 OA
BRANCH  10  12
HETATM   12  C   UNK N   1      35.285  14.658   7.556  0.00  0.00     0.083 C 
HETATM   13  C   UNK N   1      35.540  13.491   8.147  0.00  0.00     0.017 C 
BRANCH  13  14
HETATM   14  C   UNK N   1      35.541  13.516   9.627  0.00  0.00    -0.036 A 
HETATM   15  C   UNK N   1      34.928  14.592  10.291  0.00  0.00     0.014 A 
HETATM   16  C   UNK N   1      34.822  14.618  11.672  0.00  0.00     0.037 A 
HETATM   17  C   UNK N   1      35.310  13.560  12.427  0.00  0.00     0.068 A 
HETATM   18  C   UNK N   1      35.961  12.487  11.779  0.00  0.00     0.037 A 
HETATM   19  C   UNK N   1      36.083  12.470  10.380  0.00  0.00     0.014 A 
BRANCH  17  20
HETATM   20  O   UNK N   1      35.107  13.584  13.762  0.00  0.00    -0.349 OA
BRANCH  20  21
HETATM   21  C   UNK N   1      34.977  12.451  14.529  0.00  0.00     0.206 C 
BRANCH  21  22
HETATM   22  C   UNK N   1      35.802  12.589  15.799  0.00  0.00     0.297 C 
BRANCH  22  23
HETATM   23  N   UNK N   1      34.950  12.579  16.980  0.00  0.00     0.082 N 
HETATM   24  C   UNK N   1      35.375  11.454  17.792  0.00  0.00     0.309 C 
HETATM   25  C   UNK N   1      35.224  13.781  17.751  0.00  0.00     0.309 C 
ENDBRANCH  22  23
ENDBRANCH  21  22
ENDBRANCH  20  21
ENDBRANCH  17  20
ENDBRANCH  13  14
ENDBRANCH  10  12
ENDBRANCH   9  10
ENDBRANCH   3   9
BRANCH   2  26
HETATM   26  O   UNK N   1      32.360  15.760   4.694  0.00  0.00    -0.388 OA
HETATM   27  C   UNK N   1      32.262  14.371   4.804  0.00  0.00     0.202 C 
ENDBRANCH   2  26
BRANCH   1  28
HETATM   28  C   UNK N   1      29.917  17.073   5.784  0.00  0.00     0.093 A 
HETATM   29  C   UNK N   1      29.021  18.224   5.457  0.00  0.00     0.160 A 
HETATM   30  O   UNK N   1      29.801  17.570   4.477  0.00  0.00    -0.369 OA
HETATM   31  C   UNK N   1      29.263  15.705   5.959  0.00  0.00     0.049 C 
BRANCH  29  32
HETATM   32  C   UNK N   1      27.565  17.880   5.142  0.00  0.00     0.062 C 
BRANCH  32  33
HETATM   33  C   UNK N   1      27.030  18.643   3.966  0.00  0.00    -0.022 C 
HETATM   34  C   UNK N   1      26.423  19.830   4.109  0.00  0.00    -0.091 C 
HETATM   35  C   UNK N   1      26.246  20.465   5.452  0.00  0.00     0.042 C 
HETATM   36  C   UNK N   1      25.914  20.545   2.906  0.00  0.00     0.042 C 
ENDBRANCH  32  33
ENDBRANCH  29  32
ENDBRANCH   1  28
TORSDOF 12
ENDMDL
MODEL 7
REMARK VINA RESULT:      -6.3      7.405     12.911
REMARK  12 active torsions:
REMARK  status: ('A' for Active; 'I' for Inactive)
REMARK    1  A    between atoms: C_3  and  C_4 
REMARK    2  A    between atoms: C_5  and  C_4 
REMARK    3  A    between atoms: C_6  and  C_9 
REMARK    4  A    between atoms: C_10  and  O_34 
REMARK    5  A    between atoms: C_11  and  O_17 
REMARK    6  A    between atoms: O_17  and  C_18 
REMARK    7  A    between atoms: C_18  and  C_20 
REMARK    8  A    between atoms: C_21  and  C_22 
REMARK    9  A    between atoms: C_25  and  O_28 
REMARK   10  A    between atoms: O_28  and  C_29 
REMARK   11  A    between atoms: C_29  and  C_30 
REMARK   12  A    between atoms: C_30  and  N_31 
ROOT
HETATM    1  C   UNK N   1      35.013  12.806  11.478  0.00  0.00     0.091 C 
HETATM    2  C   UNK N   1      35.517  12.833  10.016  0.00  0.00     0.160 C 
HETATM    3  C   UNK N   1      34.821  14.061   9.350  0.00  0.00     0.161 C 
HETATM    4  C   UNK N   1      35.397  15.343   9.960  0.00  0.00     0.038 C 
HETATM    5  C   UNK N   1      35.146  15.414  11.469  0.00  0.00     0.043 C 
HETATM    6  C   UNK N   1      35.517  14.099  12.145  0.00  0.00     0.091 A 
HETATM    7  C   UNK N   1      36.046  14.143  13.525  0.00  0.00     0.207 A 
HETATM    8  O   UNK N   1      36.897  14.038  12.405  0.00  0.00    -0.374 OA
ENDROOT
BRANCH   3   9
HETATM    9  O   UNK N   1      34.863  14.150   7.964  0.00  0.00    -0.310 OA
BRANCH   9  10
HETATM   10  C   UNK N   1      34.495  15.269   7.274  0.00  0.00     0.283 C 
HETATM   11  O   UNK N   1      35.289  15.821   6.533  0.00  0.00    -0.260 OA
BRANCH  10  12
HETATM   12  C   UNK N   1      33.113  15.746   7.374  0.00  0.00     0.083 C 
HETATM   13  C   UNK N   1      32.529  16.594   8.219  0.00  0.00     0.017 C 
BRANCH  13  14
HETATM   14  C   UNK N   1      31.149  16.993   7.867  0.00  0.00    -0.036 A 
HETATM   15  C   UNK N   1      30.529  18.023   8.596  0.00  0.00     0.014 A 
HETATM   16  C   UNK N   1      29.274  18.495   8.249  0.00  0.00     0.037 A 
HETATM   17  C   UNK N   1      28.610  17.963   7.152  0.00  0.00     0.068 A 
HETATM   18  C   UNK N   1      29.201  16.904   6.428  0.00  0.00     0.037 A 
HETATM   19  C   UNK N   1      30.467  16.415   6.791  0.00  0.00     0.014 A 
BRANCH  17  20
HETATM   20  O   UNK N   1      27.429  18.513   6.795  0.00  0.00    -0.349 OA
BRANCH  20  21
HETATM   21  C   UNK N   1      27.312  19.528   5.876  0.00  0.00     0.206 C 
BRANCH  21  22
HETATM   22  C   UNK N   1      25.881  19.603   5.368  0.00  0.00     0.297 C 
BRANCH  22  23
HETATM   23  N   UNK N   1      25.766  20.552   4.269  0.00  0.00     0.082 N 
HETATM   24  C   UNK N   1      26.902  20.319   3.396  0.00  0.00     0.309 C 
HETATM   25  C   UNK N   1      24.574  20.221   3.505  0.00  0.00     0.309 C 
ENDBRANCH  22  23
ENDBRANCH  21  22
ENDBRANCH  20  21
ENDBRANCH  17  20
ENDBRANCH  13  14
ENDBRANCH  10  12
ENDBRANCH   9  10
ENDBRANCH   3   9
BRANCH   2  26
HETATM   26  O   UNK N   1      35.246  11.632   9.371  0.00  0.00    -0.388 OA
HETATM   27  C   UNK N   1      36.458  11.255   8.790  0.00  0.00     0.202 C 
ENDBRANCH   2  26
BRANCH   1  28
HETATM   28  C   UNK N   1      35.144  11.524  12.346  0.00  0.00     0.093 A 
HETATM   29  C   UNK N   1      34.172  11.166  13.425  0.00  0.00     0.160 A 
HETATM   30  O   UNK N   1      34.076  10.645  12.115  0.00  0.00    -0.369 OA
HETATM   31  C   UNK N   1      36.499  10.822  12.363  0.00  0.00     0.049 C 
BRANCH  29  32
HETATM   32  C   UNK N   1      34.563   9.991  14.323  0.00  0.00     0.062 C 
BRANCH  32  33
HETATM   33  C   UNK N   1      34.453  10.318  15.784  0.00  0.00    -0.022 C 
HETATM   34  C   UNK N   1      35.520  10.298  16.596  0.00  0.00    -0.091 C 
HETATM   35  C   UNK N   1      36.885   9.951  16.091  0.00  0.00     0.042 C 
HETATM   36  C   UNK N   1      35.353  10.635  18.036  0.00  0.00     0.042 C 
ENDBRANCH  32  33
ENDBRANCH  29  32
ENDBRANCH   1  28
TORSDOF 12
ENDMDL
MODEL 8
REMARK VINA RESULT:      -6.2      8.203     13.726
REMARK  12 active torsions:
REMARK  status: ('A' for Active; 'I' for Inactive)
REMARK    1  A    between atoms: C_3  and  C_4 
REMARK    2  A    between atoms: C_5  and  C_4 
REMARK    3  A    between atoms: C_6  and  C_9 
REMARK    4  A    between atoms: C_10  and  O_34 
REMARK    5  A    between atoms: C_11  and  O_17 
REMARK    6  A    between atoms: O_17  and  C_18 
REMARK    7  A    between atoms: C_18  and  C_20 
REMARK    8  A    between atoms: C_21  and  C_22 
REMARK    9  A    between atoms: C_25  and  O_28 
REMARK   10  A    between atoms: O_28  and  C_29 
REMARK   11  A    between atoms: C_29  and  C_30 
REMARK   12  A    between atoms: C_30  and  N_31 
ROOT
HETATM    1  C   UNK N   1      32.825  15.826   7.185  0.00  0.00     0.091 C 
HETATM    2  C   UNK N   1      33.831  16.493   8.151  0.00  0.00     0.160 C 
HETATM    3  C   UNK N   1      33.904  15.560   9.400  0.00  0.00     0.161 C 
HETATM    4  C   UNK N   1      34.594  14.253   8.998  0.00  0.00     0.038 C 
HETATM    5  C   UNK N   1      33.820  13.518   7.900  0.00  0.00     0.043 C 
HETATM    6  C   UNK N   1      33.435  14.472   6.775  0.00  0.00     0.091 A 
HETATM    7  C   UNK N   1      33.371  13.942   5.395  0.00  0.00     0.207 A 
HETATM    8  O   UNK N   1      34.500  14.642   5.872  0.00  0.00    -0.374 OA
ENDROOT
BRANCH   3   9
HETATM    9  O   UNK N   1      34.504  16.067  10.546  0.00  0.00    -0.310 OA
BRANCH   9  10
HETATM   10  C   UNK N   1      35.694  15.607  11.034  0.00  0.00     0.283 C 
HETATM   11  O   UNK N   1      36.737  16.148  10.717  0.00  0.00    -0.260 OA
BRANCH  10  12
HETATM   12  C   UNK N   1      35.688  14.510  12.006  0.00  0.00     0.083 C 
HETATM   13  C   UNK N   1      36.267  14.383  13.199  0.00  0.00     0.017 C 
BRANCH  13  14
HETATM   14  C   UNK N   1      35.851  13.200  13.985  0.00  0.00    -0.036 A 
HETATM   15  C   UNK N   1      36.556  12.878  15.158  0.00  0.00     0.014 A 
HETATM   16  C   UNK N   1      36.152  11.836  15.976  0.00  0.00     0.037 A 
HETATM   17  C   UNK N   1      35.021  11.098  15.655  0.00  0.00     0.068 A 
HETATM   18  C   UNK N   1      34.320  11.384  14.462  0.00  0.00     0.037 A 
HETATM   19  C   UNK N   1      34.741  12.430  13.624  0.00  0.00     0.014 A 
BRANCH  17  20
HETATM   20  O   UNK N   1      34.611  10.150  16.525  0.00  0.00    -0.349 OA
BRANCH  20  21
HETATM   21  C   UNK N   1      34.950  10.147  17.856  0.00  0.00     0.206 C 
BRANCH  21  22
HETATM   22  C   UNK N   1      34.432   8.879  18.518  0.00  0.00     0.297 C 
BRANCH  22  23
HETATM   23  N   UNK N   1      33.664   9.191  19.715  0.00  0.00     0.082 N 
HETATM   24  C   UNK N   1      33.580   7.966  20.489  0.00  0.00     0.309 C 
HETATM   25  C   UNK N   1      34.425  10.139  20.512  0.00  0.00     0.309 C 
ENDBRANCH  22  23
ENDBRANCH  21  22
ENDBRANCH  20  21
ENDBRANCH  17  20
ENDBRANCH  13  14
ENDBRANCH  10  12
ENDBRANCH   9  10
ENDBRANCH   3   9
BRANCH   2  26
HETATM   26  O   UNK N   1      33.444  17.792   8.457  0.00  0.00    -0.388 OA
HETATM   27  C   UNK N   1      34.581  18.570   8.227  0.00  0.00     0.202 C 
ENDBRANCH   2  26
BRANCH   1  28
HETATM   28  C   UNK N   1      32.172  16.630   6.027  0.00  0.00     0.093 A 
HETATM   29  C   UNK N   1      30.786  16.367   5.531  0.00  0.00     0.160 A 
HETATM   30  O   UNK N   1      31.072  17.370   6.484  0.00  0.00    -0.369 OA
HETATM   31  C   UNK N   1      33.098  17.437   5.122  0.00  0.00     0.049 C 
BRANCH  29  32
HETATM   32  C   UNK N   1      30.375  17.098   4.252  0.00  0.00     0.062 C 
BRANCH  32  33
HETATM   33  C   UNK N   1      28.934  16.878   3.897  0.00  0.00    -0.022 C 
HETATM   34  C   UNK N   1      28.005  17.824   4.091  0.00  0.00    -0.091 C 
HETATM   35  C   UNK N   1      28.351  19.159   4.671  0.00  0.00     0.042 C 
HETATM   36  C   UNK N   1      26.590  17.552   3.717  0.00  0.00     0.042 C 
ENDBRANCH  32  33
ENDBRANCH  29  32
ENDBRANCH   1  28
TORSDOF 12
ENDMDL
MODEL 9
REMARK VINA RESULT:      -6.2      3.739      6.093
REMARK  12 active torsions:
REMARK  status: ('A' for Active; 'I' for Inactive)
REMARK    1  A    between atoms: C_3  and  C_4 
REMARK    2  A    between atoms: C_5  and  C_4 
REMARK    3  A    between atoms: C_6  and  C_9 
REMARK    4  A    between atoms: C_10  and  O_34 
REMARK    5  A    between atoms: C_11  and  O_17 
REMARK    6  A    between atoms: O_17  and  C_18 
REMARK    7  A    between atoms: C_18  and  C_20 
REMARK    8  A    between atoms: C_21  and  C_22 
REMARK    9  A    between atoms: C_25  and  O_28 
REMARK   10  A    between atoms: O_28  and  C_29 
REMARK   11  A    between atoms: C_29  and  C_30 
REMARK   12  A    between atoms: C_30  and  N_31 
ROOT
HETATM    1  C   UNK N   1      26.085  13.795   5.551  0.00  0.00     0.091 C 
HETATM    2  C   UNK N   1      26.205  14.992   4.581  0.00  0.00     0.160 C 
HETATM    3  C   UNK N   1      27.703  15.040   4.147  0.00  0.00     0.161 C 
HETATM    4  C   UNK N   1      27.997  13.823   3.264  0.00  0.00     0.038 C 
HETATM    5  C   UNK N   1      27.760  12.509   4.014  0.00  0.00     0.043 C 
HETATM    6  C   UNK N   1      26.419  12.530   4.738  0.00  0.00     0.091 A 
HETATM    7  C   UNK N   1      25.677  11.259   4.880  0.00  0.00     0.207 A 
HETATM    8  O   UNK N   1      25.370  12.190   3.865  0.00  0.00    -0.374 OA
ENDROOT
BRANCH   3   9
HETATM    9  O   UNK N   1      28.152  16.192   3.511  0.00  0.00    -0.310 OA
BRANCH   9  10
HETATM   10  C   UNK N   1      28.624  17.282   4.185  0.00  0.00     0.283 C 
HETATM   11  O   UNK N   1      28.067  18.359   4.073  0.00  0.00    -0.260 OA
BRANCH  10  12
HETATM   12  C   UNK N   1      29.753  17.117   5.104  0.00  0.00     0.083 C 
HETATM   13  C   UNK N   1      31.068  17.221   4.917  0.00  0.00     0.017 C 
BRANCH  13  14
HETATM   14  C   UNK N   1      31.889  17.194   6.148  0.00  0.00    -0.036 A 
HETATM   15  C   UNK N   1      33.272  17.426   6.050  0.00  0.00     0.014 A 
HETATM   16  C   UNK N   1      34.070  17.501   7.180  0.00  0.00     0.037 A 
HETATM   17  C   UNK N   1      33.505  17.364   8.440  0.00  0.00     0.068 A 
HETATM   18  C   UNK N   1      32.124  17.095   8.557  0.00  0.00     0.037 A 
HETATM   19  C   UNK N   1      31.318  17.002   7.409  0.00  0.00     0.014 A 
BRANCH  17  20
HETATM   20  O   UNK N   1      34.303  17.532   9.517  0.00  0.00    -0.349 OA
BRANCH  20  21
HETATM   21  C   UNK N   1      35.313  16.664   9.855  0.00  0.00     0.206 C 
BRANCH  21  22
HETATM   22  C   UNK N   1      34.851  15.745  10.975  0.00  0.00     0.297 C 
BRANCH  22  23
HETATM   23  N   UNK N   1      35.317  14.382  10.758  0.00  0.00     0.082 N 
HETATM   24  C   UNK N   1      34.987  13.633  11.956  0.00  0.00     0.309 C 
HETATM   25  C   UNK N   1      34.543  13.802   9.673  0.00  0.00     0.309 C 
ENDBRANCH  22  23
ENDBRANCH  21  22
ENDBRANCH  20  21
ENDBRANCH  17  20
ENDBRANCH  13  14
ENDBRANCH  10  12
ENDBRANCH   9  10
ENDBRANCH   3   9
BRANCH   2  26
HETATM   26  O   UNK N   1      25.770  16.168   5.182  0.00  0.00    -0.388 OA
HETATM   27  C   UNK N   1      24.857  16.717   4.279  0.00  0.00     0.202 C 
ENDBRANCH   2  26
BRANCH   1  28
HETATM   28  C   UNK N   1      24.869  13.657   6.509  0.00  0.00     0.093 A 
HETATM   29  C   UNK N   1      24.972  13.068   7.880  0.00  0.00     0.160 A 
HETATM   30  O   UNK N   1      25.030  14.460   7.648  0.00  0.00    -0.369 OA
HETATM   31  C   UNK N   1      23.476  13.767   5.897  0.00  0.00     0.049 C 
BRANCH  29  32
HETATM   32  C   UNK N   1      23.651  12.811   8.606  0.00  0.00     0.062 C 
BRANCH  32  33
HETATM   33  C   UNK N   1      23.847  12.415  10.040  0.00  0.00    -0.022 C 
HETATM   34  C   UNK N   1      22.821  12.340  10.900  0.00  0.00    -0.091 C 
HETATM   35  C   UNK N   1      21.418  12.643  10.478  0.00  0.00     0.042 C 
HETATM   36  C   UNK N   1      23.073  11.938  12.311  0.00  0.00     0.042 C 
ENDBRANCH  32  33
ENDBRANCH  29  32
ENDBRANCH   1  28
TORSDOF 12
ENDMDL
