MODEL 1
REMARK VINA RESULT:      -7.6      0.000      0.000
REMARK  4 active torsions:
REMARK  status: ('A' for Active; 'I' for Inactive)
REMARK    1  A    between atoms: C_5  and  C_18 
REMARK    2  A    between atoms: C_6  and  C_8 
REMARK    3  A    between atoms: C_11  and  S_14 
REMARK    4  A    between atoms: S_14  and  N_17 
ROOT
HETATM    1  C   UNK N   1      27.345  16.802   7.270  0.00  0.00     0.055 C 
HETATM    2  C   UNK N   1      28.517  17.728   7.002  0.00  0.00     0.125 A 
HETATM    3  C   UNK N   1      29.166  17.426   5.694  0.00  0.00     0.197 A 
HETATM    4  O   UNK N   1      28.617  17.489   4.602  0.00  0.00    -0.289 OA
HETATM    5  C   UNK N   1      30.535  17.009   5.932  0.00  0.00     0.058 A 
HETATM    6  C   UNK N   1      30.701  17.084   7.265  0.00  0.00     0.095 A 
HETATM    7  O   UNK N   1      29.557  17.467   7.889  0.00  0.00    -0.331 OA
HETATM    8  C   UNK N   1      28.082  19.179   7.089  0.00  0.00     0.055 C 
ENDROOT
BRANCH   6   9
HETATM    9  C   UNK N   1      31.932  16.786   8.035  0.00  0.00    -0.002 A 
HETATM   10  C   UNK N   1      32.091  15.563   8.694  0.00  0.00     0.016 A 
HETATM   11  C   UNK N   1      33.204  15.317   9.494  0.00  0.00     0.026 A 
HETATM   12  C   UNK N   1      34.194  16.292   9.664  0.00  0.00     0.079 A 
HETATM   13  C   UNK N   1      34.060  17.513   8.937  0.00  0.00     0.026 A 
HETATM   14  C   UNK N   1      32.952  17.740   8.114  0.00  0.00     0.016 A 
BRANCH  12  15
HETATM   15  S   UNK N   1      35.517  15.891  10.899  0.00  0.00     0.256 S 
HETATM   16  O   UNK N   1      37.026  16.148  10.779  0.00  0.00    -0.201 OA
HETATM   17  O   UNK N   1      35.649  17.332  10.374  0.00  0.00    -0.201 OA
BRANCH  15  18
HETATM   18  N   UNK N   1      35.978  14.829   9.563  0.00  0.00    -0.324 N 
HETATM   19  H   UNK N   1      36.797  15.046   8.995  0.00  0.00     0.169 HD
HETATM   20  H   UNK N   1      35.424  13.996   9.360  0.00  0.00     0.169 HD
ENDBRANCH  15  18
ENDBRANCH  12  15
ENDBRANCH   6   9
BRANCH   5  21
HETATM   21  C   UNK N   1      31.476  16.508   4.875  0.00  0.00    -0.017 A 
HETATM   22  C   UNK N   1      32.152  17.413   4.042  0.00  0.00     0.012 A 
HETATM   23  C   UNK N   1      32.989  16.951   3.019  0.00  0.00     0.004 A 
HETATM   24  C   UNK N   1      33.148  15.578   2.808  0.00  0.00     0.042 A 
HETATM   25  C   UNK N   1      32.464  14.670   3.614  0.00  0.00     0.117 A 
HETATM   26  C   UNK N   1      31.632  15.137   4.628  0.00  0.00     0.054 A 
HETATM   27  F   UNK N   1      32.602  13.336   3.416  0.00  0.00    -0.206 F 
ENDBRANCH   5  21
TORSDOF 4
ENDMDL
MODEL 2
REMARK VINA RESULT:      -7.3      4.900      8.195
REMARK  4 active torsions:
REMARK  status: ('A' for Active; 'I' for Inactive)
REMARK    1  A    between atoms: C_5  and  C_18 
REMARK    2  A    between atoms: C_6  and  C_8 
REMARK    3  A    between atoms: C_11  and  S_14 
REMARK    4  A    between atoms: S_14  and  N_17 
ROOT
HETATM    1  C   UNK N   1      36.810  13.841  15.511  0.00  0.00     0.055 C 
HETATM    2  C   UNK N   1      35.899  13.198  14.481  0.00  0.00     0.125 A 
HETATM    3  C   UNK N   1      36.673  12.406  13.482  0.00  0.00     0.197 A 
HETATM    4  O   UNK N   1      37.383  11.443  13.742  0.00  0.00    -0.289 OA
HETATM    5  C   UNK N   1      36.482  12.989  12.168  0.00  0.00     0.058 A 
HETATM    6  C   UNK N   1      35.640  14.022  12.358  0.00  0.00     0.095 A 
HETATM    7  O   UNK N   1      35.320  14.169  13.669  0.00  0.00    -0.331 OA
HETATM    8  C   UNK N   1      34.836  12.355  15.160  0.00  0.00     0.055 C 
ENDROOT
BRANCH   6   9
HETATM    9  C   UNK N   1      35.101  14.941  11.328  0.00  0.00    -0.002 A 
HETATM   10  C   UNK N   1      34.043  14.554  10.499  0.00  0.00     0.016 A 
HETATM   11  C   UNK N   1      33.598  15.378   9.469  0.00  0.00     0.026 A 
HETATM   12  C   UNK N   1      34.202  16.619   9.232  0.00  0.00     0.079 A 
HETATM   13  C   UNK N   1      35.236  17.038  10.121  0.00  0.00     0.026 A 
HETATM   14  C   UNK N   1      35.658  16.214  11.171  0.00  0.00     0.016 A 
BRANCH  12  15
HETATM   15  S   UNK N   1      33.625  17.520   7.718  0.00  0.00     0.256 S 
HETATM   16  O   UNK N   1      34.459  17.948   6.503  0.00  0.00    -0.201 OA
HETATM   17  O   UNK N   1      34.483  16.295   7.357  0.00  0.00    -0.201 OA
BRANCH  15  18
HETATM   18  N   UNK N   1      34.728  18.714   8.415  0.00  0.00    -0.324 N 
HETATM   19  H   UNK N   1      34.409  19.331   9.162  0.00  0.00     0.169 HD
HETATM   20  H   UNK N   1      35.685  18.785   8.069  0.00  0.00     0.169 HD
ENDBRANCH  15  18
ENDBRANCH  12  15
ENDBRANCH   6   9
BRANCH   5  21
HETATM   21  C   UNK N   1      37.192  12.547  10.921  0.00  0.00    -0.017 A 
HETATM   22  C   UNK N   1      38.467  13.049  10.617  0.00  0.00     0.012 A 
HETATM   23  C   UNK N   1      39.112  12.682   9.429  0.00  0.00     0.004 A 
HETATM   24  C   UNK N   1      38.482  11.822   8.525  0.00  0.00     0.042 A 
HETATM   25  C   UNK N   1      37.207  11.334   8.806  0.00  0.00     0.117 A 
HETATM   26  C   UNK N   1      36.572  11.705   9.988  0.00  0.00     0.054 A 
HETATM   27  F   UNK N   1      36.581  10.506   7.935  0.00  0.00    -0.206 F 
ENDBRANCH   5  21
TORSDOF 4
ENDMDL
MODEL 3
REMARK VINA RESULT:      -7.1     12.915     14.872
REMARK  4 active torsions:
REMARK  status: ('A' for Active; 'I' for Inactive)
REMARK    1  A    between atoms: C_5  and  C_18 
REMARK    2  A    between atoms: C_6  and  C_8 
REMARK    3  A    between atoms: C_11  and  S_14 
REMARK    4  A    between atoms: S_14  and  N_17 
ROOT
HETATM    1  C   UNK N   1      25.800  27.630  -3.562  0.00  0.00     0.055 C 
HETATM    2  C   UNK N   1      26.820  27.312  -4.639  0.00  0.00     0.125 A 
HETATM    3  C   UNK N   1      26.264  26.383  -5.665  0.00  0.00     0.197 A 
HETATM    4  O   UNK N   1      25.296  26.616  -6.377  0.00  0.00    -0.289 OA
HETATM    5  C   UNK N   1      27.028  25.150  -5.648  0.00  0.00     0.058 A 
HETATM    6  C   UNK N   1      27.980  25.337  -4.715  0.00  0.00     0.095 A 
HETATM    7  O   UNK N   1      27.860  26.550  -4.116  0.00  0.00    -0.331 OA
HETATM    8  C   UNK N   1      27.348  28.588  -5.269  0.00  0.00     0.055 C 
ENDROOT
BRANCH   6   9
HETATM    9  C   UNK N   1      29.045  24.385  -4.317  0.00  0.00    -0.002 A 
HETATM   10  C   UNK N   1      30.201  24.234  -5.090  0.00  0.00     0.016 A 
HETATM   11  C   UNK N   1      31.158  23.275  -4.771  0.00  0.00     0.026 A 
HETATM   12  C   UNK N   1      30.987  22.431  -3.667  0.00  0.00     0.079 A 
HETATM   13  C   UNK N   1      29.838  22.633  -2.844  0.00  0.00     0.026 A 
HETATM   14  C   UNK N   1      28.896  23.618  -3.158  0.00  0.00     0.016 A 
BRANCH  12  15
HETATM   15  S   UNK N   1      32.249  21.087  -3.476  0.00  0.00     0.256 S 
HETATM   16  O   UNK N   1      33.585  21.151  -2.723  0.00  0.00    -0.201 OA
HETATM   17  O   UNK N   1      31.930  21.762  -2.130  0.00  0.00    -0.201 OA
BRANCH  15  18
HETATM   18  N   UNK N   1      33.163  22.268  -4.422  0.00  0.00    -0.324 N 
HETATM   19  H   UNK N   1      33.294  22.130  -5.425  0.00  0.00     0.169 HD
HETATM   20  H   UNK N   1      33.560  23.090  -3.965  0.00  0.00     0.169 HD
ENDBRANCH  15  18
ENDBRANCH  12  15
ENDBRANCH   6   9
BRANCH   5  21
HETATM   21  C   UNK N   1      26.700  23.927  -6.453  0.00  0.00    -0.017 A 
HETATM   22  C   UNK N   1      27.435  23.621  -7.609  0.00  0.00     0.012 A 
HETATM   23  C   UNK N   1      27.100  22.511  -8.394  0.00  0.00     0.004 A 
HETATM   24  C   UNK N   1      26.016  21.702  -8.040  0.00  0.00     0.042 A 
HETATM   25  C   UNK N   1      25.264  22.008  -6.907  0.00  0.00     0.117 A 
HETATM   26  C   UNK N   1      25.603  23.115  -6.133  0.00  0.00     0.054 A 
HETATM   27  F   UNK N   1      24.206  21.238  -6.557  0.00  0.00    -0.206 F 
ENDBRANCH   5  21
TORSDOF 4
ENDMDL
MODEL 4
REMARK VINA RESULT:      -7.0      6.668     10.788
REMARK  4 active torsions:
REMARK  status: ('A' for Active; 'I' for Inactive)
REMARK    1  A    between atoms: C_5  and  C_18 
REMARK    2  A    between atoms: C_6  and  C_8 
REMARK    3  A    between atoms: C_11  and  S_14 
REMARK    4  A    between atoms: S_14  and  N_17 
ROOT
HETATM    1  C   UNK N   1      35.981   8.334  13.437  0.00  0.00     0.055 C 
HETATM    2  C   UNK N   1      37.047   9.414  13.426  0.00  0.00     0.125 A 
HETATM    3  C   UNK N   1      37.038  10.207  14.689  0.00  0.00     0.197 A 
HETATM    4  O   UNK N   1      37.233   9.754  15.809  0.00  0.00    -0.289 OA
HETATM    5  C   UNK N   1      36.719  11.587  14.377  0.00  0.00     0.058 A 
HETATM    6  C   UNK N   1      36.581  11.624  13.039  0.00  0.00     0.095 A 
HETATM    7  O   UNK N   1      36.739  10.393  12.487  0.00  0.00    -0.331 OA
HETATM    8  C   UNK N   1      38.414   8.812  13.154  0.00  0.00     0.055 C 
ENDROOT
BRANCH   6   9
HETATM    9  C   UNK N   1      36.275  12.808  12.200  0.00  0.00    -0.002 A 
HETATM   10  C   UNK N   1      35.026  13.435  12.267  0.00  0.00     0.016 A 
HETATM   11  C   UNK N   1      34.704  14.486  11.415  0.00  0.00     0.026 A 
HETATM   12  C   UNK N   1      35.621  14.943  10.461  0.00  0.00     0.079 A 
HETATM   13  C   UNK N   1      36.916  14.344  10.440  0.00  0.00     0.026 A 
HETATM   14  C   UNK N   1      37.240  13.306  11.320  0.00  0.00     0.016 A 
BRANCH  12  15
HETATM   15  S   UNK N   1      34.986  16.222   9.279  0.00  0.00     0.256 S 
HETATM   16  O   UNK N   1      34.362  17.584   9.612  0.00  0.00    -0.201 OA
HETATM   17  O   UNK N   1      35.902  16.843  10.348  0.00  0.00    -0.201 OA
BRANCH  15  18
HETATM   18  N   UNK N   1      33.492  15.764  10.105  0.00  0.00    -0.324 N 
HETATM   19  H   UNK N   1      32.607  16.196   9.840  0.00  0.00     0.169 HD
HETATM   20  H   UNK N   1      33.515  15.066  10.849  0.00  0.00     0.169 HD
ENDBRANCH  15  18
ENDBRANCH  12  15
ENDBRANCH   6   9
BRANCH   5  21
HETATM   21  C   UNK N   1      36.499  12.669  15.394  0.00  0.00    -0.017 A 
HETATM   22  C   UNK N   1      35.515  12.520  16.384  0.00  0.00     0.012 A 
HETATM   23  C   UNK N   1      35.267  13.548  17.303  0.00  0.00     0.004 A 
HETATM   24  C   UNK N   1      35.991  14.742  17.232  0.00  0.00     0.042 A 
HETATM   25  C   UNK N   1      36.955  14.909  16.240  0.00  0.00     0.117 A 
HETATM   26  C   UNK N   1      37.194  13.884  15.329  0.00  0.00     0.054 A 
HETATM   27  F   UNK N   1      37.659  16.065  16.155  0.00  0.00    -0.206 F 
ENDBRANCH   5  21
TORSDOF 4
ENDMDL
MODEL 5
REMARK VINA RESULT:      -7.0     17.192     19.089
REMARK  4 active torsions:
REMARK  status: ('A' for Active; 'I' for Inactive)
REMARK    1  A    between atoms: C_5  and  C_18 
REMARK    2  A    between atoms: C_6  and  C_8 
REMARK    3  A    between atoms: C_11  and  S_14 
REMARK    4  A    between atoms: S_14  and  N_17 
ROOT
HETATM    1  C   UNK N   1      27.287  21.543  -7.826  0.00  0.00     0.055 C 
HETATM    2  C   UNK N   1      26.025  22.386  -7.806  0.00  0.00     0.125 A 
HETATM    3  C   UNK N   1      25.772  23.026  -9.129  0.00  0.00     0.197 A 
HETATM    4  O   UNK N   1      25.588  22.427 -10.179  0.00  0.00    -0.289 OA
HETATM    5  C   UNK N   1      25.824  24.467  -8.973  0.00  0.00     0.058 A 
HETATM    6  C   UNK N   1      26.056  24.673  -7.663  0.00  0.00     0.095 A 
HETATM    7  O   UNK N   1      26.198  23.501  -6.992  0.00  0.00    -0.331 OA
HETATM    8  C   UNK N   1      24.837  21.559  -7.349  0.00  0.00     0.055 C 
ENDROOT
BRANCH   6   9
HETATM    9  C   UNK N   1      26.176  25.976  -6.967  0.00  0.00    -0.002 A 
HETATM   10  C   UNK N   1      27.264  26.822  -7.205  0.00  0.00     0.016 A 
HETATM   11  C   UNK N   1      27.428  28.002  -6.484  0.00  0.00     0.026 A 
HETATM   12  C   UNK N   1      26.509  28.372  -5.495  0.00  0.00     0.079 A 
HETATM   13  C   UNK N   1      25.366  27.539  -5.302  0.00  0.00     0.026 A 
HETATM   14  C   UNK N   1      25.196  26.370  -6.051  0.00  0.00     0.016 A 
BRANCH  12  15
HETATM   15  S   UNK N   1      26.957  29.868  -4.497  0.00  0.00     0.256 S 
HETATM   16  O   UNK N   1      27.748  29.921  -3.183  0.00  0.00    -0.201 OA
HETATM   17  O   UNK N   1      28.169  28.945  -4.711  0.00  0.00    -0.201 OA
BRANCH  15  18
HETATM   18  N   UNK N   1      25.882  29.029  -3.372  0.00  0.00    -0.324 N 
HETATM   19  H   UNK N   1      26.255  28.620  -2.515  0.00  0.00     0.169 HD
HETATM   20  H   UNK N   1      24.885  28.954  -3.580  0.00  0.00     0.169 HD
ENDBRANCH  15  18
ENDBRANCH  12  15
ENDBRANCH   6   9
BRANCH   5  21
HETATM   21  C   UNK N   1      25.737  25.456 -10.098  0.00  0.00    -0.017 A 
HETATM   22  C   UNK N   1      26.905  25.968 -10.684  0.00  0.00     0.012 A 
HETATM   23  C   UNK N   1      26.832  26.931 -11.698  0.00  0.00     0.004 A 
HETATM   24  C   UNK N   1      25.589  27.405 -12.127  0.00  0.00     0.042 A 
HETATM   25  C   UNK N   1      24.422  26.921 -11.538  0.00  0.00     0.117 A 
HETATM   26  C   UNK N   1      24.504  25.965 -10.529  0.00  0.00     0.054 A 
HETATM   27  F   UNK N   1      23.210  27.378 -11.938  0.00  0.00    -0.206 F 
ENDBRANCH   5  21
TORSDOF 4
ENDMDL
MODEL 6
REMARK VINA RESULT:      -6.4     11.736     15.219
REMARK  4 active torsions:
REMARK  status: ('A' for Active; 'I' for Inactive)
REMARK    1  A    between atoms: C_5  and  C_18 
REMARK    2  A    between atoms: C_6  and  C_8 
REMARK    3  A    between atoms: C_11  and  S_14 
REMARK    4  A    between atoms: S_14  and  N_17 
ROOT
HETATM    1  C   UNK N   1      32.175   8.923  21.054  0.00  0.00     0.055 C 
HETATM    2  C   UNK N   1      33.254   8.389  20.131  0.00  0.00     0.125 A 
HETATM    3  C   UNK N   1      34.573   8.302  20.821  0.00  0.00     0.197 A 
HETATM    4  O   UNK N   1      34.809   7.620  21.810  0.00  0.00    -0.289 OA
HETATM    5  C   UNK N   1      35.512   9.187  20.158  0.00  0.00     0.058 A 
HETATM    6  C   UNK N   1      34.823   9.732  19.138  0.00  0.00     0.095 A 
HETATM    7  O   UNK N   1      33.533   9.309  19.125  0.00  0.00    -0.331 OA
HETATM    8  C   UNK N   1      32.841   7.052  19.544  0.00  0.00     0.055 C 
ENDROOT
BRANCH   6   9
HETATM    9  C   UNK N   1      35.327  10.695  18.129  0.00  0.00    -0.002 A 
HETATM   10  C   UNK N   1      35.106  12.069  18.271  0.00  0.00     0.016 A 
HETATM   11  C   UNK N   1      35.494  12.965  17.279  0.00  0.00     0.026 A 
HETATM   12  C   UNK N   1      36.114  12.514  16.108  0.00  0.00     0.079 A 
HETATM   13  C   UNK N   1      36.396  11.119  15.997  0.00  0.00     0.026 A 
HETATM   14  C   UNK N   1      36.026  10.230  17.012  0.00  0.00     0.016 A 
BRANCH  12  15
HETATM   15  S   UNK N   1      36.406  13.798  14.803  0.00  0.00     0.256 S 
HETATM   16  O   UNK N   1      36.024  13.735  13.318  0.00  0.00    -0.201 OA
HETATM   17  O   UNK N   1      34.958  13.277  14.773  0.00  0.00    -0.201 OA
BRANCH  15  18
HETATM   18  N   UNK N   1      37.423  12.482  14.205  0.00  0.00    -0.324 N 
HETATM   19  H   UNK N   1      37.080  11.863  13.471  0.00  0.00     0.169 HD
HETATM   20  H   UNK N   1      38.355  12.341  14.595  0.00  0.00     0.169 HD
ENDBRANCH  15  18
ENDBRANCH  12  15
ENDBRANCH   6   9
BRANCH   5  21
HETATM   21  C   UNK N   1      36.909   9.467  20.631  0.00  0.00    -0.017 A 
HETATM   22  C   UNK N   1      37.965   8.621  20.258  0.00  0.00     0.012 A 
HETATM   23  C   UNK N   1      39.261   8.845  20.739  0.00  0.00     0.004 A 
HETATM   24  C   UNK N   1      39.512   9.908  21.611  0.00  0.00     0.042 A 
HETATM   25  C   UNK N   1      38.467  10.742  22.006  0.00  0.00     0.117 A 
HETATM   26  C   UNK N   1      37.181  10.511  21.524  0.00  0.00     0.054 A 
HETATM   27  F   UNK N   1      38.694  11.772  22.857  0.00  0.00    -0.206 F 
ENDBRANCH   5  21
TORSDOF 4
ENDMDL
MODEL 7
REMARK VINA RESULT:      -6.4      7.621     10.291
REMARK  4 active torsions:
REMARK  status: ('A' for Active; 'I' for Inactive)
REMARK    1  A    between atoms: C_5  and  C_18 
REMARK    2  A    between atoms: C_6  and  C_8 
REMARK    3  A    between atoms: C_11  and  S_14 
REMARK    4  A    between atoms: S_14  and  N_17 
ROOT
HETATM    1  C   UNK N   1      20.739  14.147   7.853  0.00  0.00     0.055 C 
HETATM    2  C   UNK N   1      20.661  15.588   7.383  0.00  0.00     0.125 A 
HETATM    3  C   UNK N   1      20.021  15.693   6.040  0.00  0.00     0.197 A 
HETATM    4  O   UNK N   1      18.881  15.340   5.771  0.00  0.00    -0.289 OA
HETATM    5  C   UNK N   1      20.983  16.240   5.101  0.00  0.00     0.058 A 
HETATM    6  C   UNK N   1      22.093  16.472   5.827  0.00  0.00     0.095 A 
HETATM    7  O   UNK N   1      21.934  16.084   7.119  0.00  0.00    -0.331 OA
HETATM    8  C   UNK N   1      19.947  16.447   8.411  0.00  0.00     0.055 C 
ENDROOT
BRANCH   6   9
HETATM    9  C   UNK N   1      23.371  17.053   5.351  0.00  0.00    -0.002 A 
HETATM   10  C   UNK N   1      24.541  16.288   5.316  0.00  0.00     0.016 A 
HETATM   11  C   UNK N   1      25.761  16.856   4.960  0.00  0.00     0.026 A 
HETATM   12  C   UNK N   1      25.850  18.214   4.631  0.00  0.00     0.079 A 
HETATM   13  C   UNK N   1      24.643  18.975   4.605  0.00  0.00     0.026 A 
HETATM   14  C   UNK N   1      23.418  18.388   4.938  0.00  0.00     0.016 A 
BRANCH  12  15
HETATM   15  S   UNK N   1      27.564  18.866   4.357  0.00  0.00     0.256 S 
HETATM   16  O   UNK N   1      28.154  20.196   4.848  0.00  0.00    -0.201 OA
HETATM   17  O   UNK N   1      27.139  18.985   5.832  0.00  0.00    -0.201 OA
BRANCH  15  18
HETATM   18  N   UNK N   1      26.609  20.058   3.465  0.00  0.00    -0.324 N 
HETATM   19  H   UNK N   1      26.737  21.054   3.644  0.00  0.00     0.169 HD
HETATM   20  H   UNK N   1      25.930  19.748   2.770  0.00  0.00     0.169 HD
ENDBRANCH  15  18
ENDBRANCH  12  15
ENDBRANCH   6   9
BRANCH   5  21
HETATM   21  C   UNK N   1      20.755  16.386   3.625  0.00  0.00    -0.017 A 
HETATM   22  C   UNK N   1      20.144  17.542   3.114  0.00  0.00     0.012 A 
HETATM   23  C   UNK N   1      19.879  17.662   1.744  0.00  0.00     0.004 A 
HETATM   24  C   UNK N   1      20.207  16.620   0.872  0.00  0.00     0.042 A 
HETATM   25  C   UNK N   1      20.793  15.457   1.371  0.00  0.00     0.117 A 
HETATM   26  C   UNK N   1      21.052  15.346   2.734  0.00  0.00     0.054 A 
HETATM   27  F   UNK N   1      21.109  14.436   0.538  0.00  0.00    -0.206 F 
ENDBRANCH   5  21
TORSDOF 4
ENDMDL
MODEL 8
REMARK VINA RESULT:      -6.3     10.644     11.880
REMARK  4 active torsions:
REMARK  status: ('A' for Active; 'I' for Inactive)
REMARK    1  A    between atoms: C_5  and  C_18 
REMARK    2  A    between atoms: C_6  and  C_8 
REMARK    3  A    between atoms: C_11  and  S_14 
REMARK    4  A    between atoms: S_14  and  N_17 
ROOT
HETATM    1  C   UNK N   1      18.916  19.091   2.427  0.00  0.00     0.055 C 
HETATM    2  C   UNK N   1      20.330  18.547   2.500  0.00  0.00     0.125 A 
HETATM    3  C   UNK N   1      20.551  17.457   1.506  0.00  0.00     0.197 A 
HETATM    4  O   UNK N   1      20.452  17.578   0.293  0.00  0.00    -0.289 OA
HETATM    5  C   UNK N   1      20.857  16.228   2.214  0.00  0.00     0.058 A 
HETATM    6  C   UNK N   1      20.852  16.561   3.518  0.00  0.00     0.095 A 
HETATM    7  O   UNK N   1      20.530  17.868   3.698  0.00  0.00    -0.331 OA
HETATM    8  C   UNK N   1      21.343  19.666   2.336  0.00  0.00     0.055 C 
ENDROOT
BRANCH   6   9
HETATM    9  C   UNK N   1      21.130  15.672   4.672  0.00  0.00    -0.002 A 
HETATM   10  C   UNK N   1      20.103  15.259   5.527  0.00  0.00     0.016 A 
HETATM   11  C   UNK N   1      20.375  14.503   6.663  0.00  0.00     0.026 A 
HETATM   12  C   UNK N   1      21.688  14.138   6.985  0.00  0.00     0.079 A 
HETATM   13  C   UNK N   1      22.724  14.506   6.075  0.00  0.00     0.026 A 
HETATM   14  C   UNK N   1      22.437  15.242   4.920  0.00  0.00     0.016 A 
BRANCH  12  15
HETATM   15  S   UNK N   1      21.913  13.293   8.619  0.00  0.00     0.256 S 
HETATM   16  O   UNK N   1      20.824  12.806   9.585  0.00  0.00    -0.201 OA
HETATM   17  O   UNK N   1      20.880  12.565   7.741  0.00  0.00    -0.201 OA
BRANCH  15  18
HETATM   18  N   UNK N   1      21.155  14.806   9.131  0.00  0.00    -0.324 N 
HETATM   19  H   UNK N   1      21.660  15.688   9.038  0.00  0.00     0.169 HD
HETATM   20  H   UNK N   1      20.211  14.797   9.518  0.00  0.00     0.169 HD
ENDBRANCH  15  18
ENDBRANCH  12  15
ENDBRANCH   6   9
BRANCH   5  21
HETATM   21  C   UNK N   1      21.024  14.884   1.567  0.00  0.00    -0.017 A 
HETATM   22  C   UNK N   1      19.990  13.937   1.625  0.00  0.00     0.012 A 
HETATM   23  C   UNK N   1      20.160  12.662   1.070  0.00  0.00     0.004 A 
HETATM   24  C   UNK N   1      21.371  12.315   0.466  0.00  0.00     0.042 A 
HETATM   25  C   UNK N   1      22.413  13.240   0.422  0.00  0.00     0.117 A 
HETATM   26  C   UNK N   1      22.237  14.504   0.977  0.00  0.00     0.054 A 
HETATM   27  F   UNK N   1      23.596  12.914  -0.153  0.00  0.00    -0.206 F 
ENDBRANCH   5  21
TORSDOF 4
ENDMDL
MODEL 9
REMARK VINA RESULT:      -6.2     12.942     14.975
REMARK  4 active torsions:
REMARK  status: ('A' for Active; 'I' for Inactive)
REMARK    1  A    between atoms: C_5  and  C_18 
REMARK    2  A    between atoms: C_6  and  C_8 
REMARK    3  A    between atoms: C_11  and  S_14 
REMARK    4  A    between atoms: S_14  and  N_17 
ROOT
HETATM    1  C   UNK N   1      30.000  29.395  -1.667  0.00  0.00     0.055 C 
HETATM    2  C   UNK N   1      30.214  28.909  -3.088  0.00  0.00     0.125 A 
HETATM    3  C   UNK N   1      28.924  28.547  -3.744  0.00  0.00     0.197 A 
HETATM    4  O   UNK N   1      27.992  29.315  -3.940  0.00  0.00    -0.289 OA
HETATM    5  C   UNK N   1      28.942  27.133  -4.070  0.00  0.00     0.058 A 
HETATM    6  C   UNK N   1      30.150  26.694  -3.673  0.00  0.00     0.095 A 
HETATM    7  O   UNK N   1      30.874  27.684  -3.091  0.00  0.00    -0.331 OA
HETATM    8  C   UNK N   1      30.981  29.940  -3.896  0.00  0.00     0.055 C 
ENDROOT
BRANCH   6   9
HETATM    9  C   UNK N   1      30.690  25.319  -3.797  0.00  0.00    -0.002 A 
HETATM   10  C   UNK N   1      30.204  24.278  -2.999  0.00  0.00     0.016 A 
HETATM   11  C   UNK N   1      30.773  23.009  -3.048  0.00  0.00     0.026 A 
HETATM   12  C   UNK N   1      31.854  22.740  -3.895  0.00  0.00     0.079 A 
HETATM   13  C   UNK N   1      32.304  23.786  -4.755  0.00  0.00     0.026 A 
HETATM   14  C   UNK N   1      31.707  25.051  -4.719  0.00  0.00     0.016 A 
BRANCH  12  15
HETATM   15  S   UNK N   1      32.621  21.062  -3.717  0.00  0.00     0.256 S 
HETATM   16  O   UNK N   1      33.808  20.659  -2.831  0.00  0.00    -0.201 OA
HETATM   17  O   UNK N   1      32.351  21.711  -2.348  0.00  0.00    -0.201 OA
BRANCH  15  18
HETATM   18  N   UNK N   1      33.959  21.962  -4.442  0.00  0.00    -0.324 N 
HETATM   19  H   UNK N   1      33.829  22.444  -5.332  0.00  0.00     0.169 HD
HETATM   20  H   UNK N   1      34.862  22.001  -3.969  0.00  0.00     0.169 HD
ENDBRANCH  15  18
ENDBRANCH  12  15
ENDBRANCH   6   9
BRANCH   5  21
HETATM   21  C   UNK N   1      27.779  26.368  -4.632  0.00  0.00    -0.017 A 
HETATM   22  C   UNK N   1      27.052  25.486  -3.816  0.00  0.00     0.012 A 
HETATM   23  C   UNK N   1      26.000  24.729  -4.347  0.00  0.00     0.004 A 
HETATM   24  C   UNK N   1      25.674  24.832  -5.702  0.00  0.00     0.042 A 
HETATM   25  C   UNK N   1      26.404  25.688  -6.527  0.00  0.00     0.117 A 
HETATM   26  C   UNK N   1      27.449  26.436  -5.992  0.00  0.00     0.054 A 
HETATM   27  F   UNK N   1      26.104  25.792  -7.844  0.00  0.00    -0.206 F 
ENDBRANCH   5  21
TORSDOF 4
ENDMDL
