REMARK  4 active torsions:
REMARK  status: ('A' for Active; 'I' for Inactive)
REMARK    1  A    between atoms: C_3  and  C_9 
REMARK    2  A    between atoms: C_11  and  N_17 
REMARK    3  A    between atoms: C_14  and  O_15 
REMARK       I    between atoms: N_17  and  C_18 
REMARK       I    between atoms: C_18  and  N_20 
REMARK    4  A    between atoms: N_20  and  C_21 
ROOT
HETATM    1  C   UNK N   1       2.651  -4.812   0.257  0.00  0.00     0.029 A 
HETATM    2  C   UNK N   1       1.630  -5.742   0.537  0.00  0.00     0.046 A 
HETATM    3  C   UNK N   1       0.314  -5.356   0.739  0.00  0.00     0.037 A 
HETATM    4  C   UNK N   1      -0.019  -4.003   0.701  0.00  0.00     0.032 A 
HETATM    5  C   UNK N   1       0.949  -3.054   0.449  0.00  0.00     0.040 A 
HETATM    6  C   UNK N   1       2.282  -3.424   0.210  0.00  0.00     0.081 A 
ENDROOT
BRANCH   3   7
HETATM    7  N   UNK N   1      -0.712  -6.318   0.929  0.00  0.00    -0.309 N 
HETATM    8  C   UNK N   1      -1.875  -6.183   0.247  0.00  0.00     0.325 C 
HETATM    9  O   UNK N   1      -1.910  -5.475  -0.754  0.00  0.00    -0.247 OA
HETATM   10  N   UNK N   1      -3.008  -6.774   0.698  0.00  0.00    -0.306 N 
HETATM   11  H   UNK N   1      -2.936  -7.529   1.326  0.00  0.00     0.171 HD
HETATM   12  H   UNK N   1      -0.580  -7.073   1.548  0.00  0.00     0.170 HD
BRANCH  10  13
HETATM   13  C   UNK N   1      -4.302  -6.333   0.289  0.00  0.00     0.075 A 
HETATM   14  C   UNK N   1      -5.349  -7.257   0.197  0.00  0.00     0.036 A 
HETATM   15  C   UNK N   1      -6.632  -6.832  -0.168  0.00  0.00     0.044 A 
HETATM   16  C   UNK N   1      -6.878  -5.481  -0.431  0.00  0.00     0.119 A 
HETATM   17  C   UNK N   1      -5.852  -4.550  -0.316  0.00  0.00     0.086 A 
HETATM   18  F   UNK N   1      -8.119  -5.066  -0.777  0.00  0.00    -0.206 F 
HETATM   19  C   UNK N   1      -4.573  -4.959   0.046  0.00  0.00     0.146 A 
HETATM   20  F   UNK N   1      -3.623  -4.002   0.205  0.00  0.00    -0.204 F 
ENDBRANCH  10  13
ENDBRANCH   3   7
BRANCH   1  21
HETATM   21  C   UNK N   1       4.031  -5.395  -0.009  0.00  0.00     0.082 A 
HETATM   22  N   UNK N   1       5.212  -4.755  -0.242  0.00  0.00    -0.295 N 
HETATM   23  C   UNK N   1       5.531  -3.343  -0.281  0.00  0.00     0.178 C 
HETATM   24  N   UNK N   1       6.168  -5.647  -0.437  0.00  0.00    -0.308 N 
HETATM   25  C   UNK N   1       5.649  -6.882  -0.339  0.00  0.00     0.129 A 
ATOM     26  HN  UNK N   1       7.146  -5.432  -0.632  1.00  0.00     0.186 HD
HETATM   27  C   UNK N   1       4.306  -6.769  -0.067  0.00  0.00     0.057 A 
HETATM   28 Br   UNK N   1       3.176  -8.308   0.146  0.00  0.00    -0.047 Br
ENDBRANCH   1  21
BRANCH   6  29
HETATM   29  O   UNK N   1       3.173  -2.455  -0.080  0.00  0.00    -0.355 OA
HETATM   30  C   UNK N   1       2.853  -1.115  -0.164  0.00  0.00     0.210 C 
ENDBRANCH   6  29
TORSDOF 4
