MODEL 1
REMARK VINA RESULT:      -6.8      0.000      0.000
REMARK  3 active torsions:
REMARK  status: ('A' for Active; 'I' for Inactive)
REMARK    1  A    between atoms: C_5  and  S_8 
REMARK    2  A    between atoms: S_8  and  C_9 
REMARK    3  A    between atoms: C_14  and  C_15 
ROOT
HETATM    1  C   UNK N   1      29.268  17.494   7.058  0.00  0.00     0.012 A 
HETATM    2  C   UNK N   1      28.086  17.865   7.722  0.00  0.00     0.019 A 
HETATM    3  C   UNK N   1      28.115  18.290   9.049  0.00  0.00     0.001 A 
HETATM    4  C   UNK N   1      29.323  18.332   9.742  0.00  0.00     0.001 A 
HETATM    5  C   UNK N   1      30.505  17.950   9.104  0.00  0.00     0.009 A 
HETATM    6  C   UNK N   1      30.496  17.534   7.764  0.00  0.00    -0.037 A 
ENDROOT
BRANCH   1   7
HETATM    7  S   UNK N   1      29.184  16.861   5.362  0.00  0.00    -0.090 SA
BRANCH   7   8
HETATM    8  C   UNK N   1      27.905  17.935   4.688  0.00  0.00     0.005 A 
HETATM    9  C   UNK N   1      26.712  17.392   4.192  0.00  0.00     0.019 A 
HETATM   10  C   UNK N   1      25.758  18.217   3.592  0.00  0.00     0.008 A 
HETATM   11  C   UNK N   1      26.000  19.586   3.460  0.00  0.00    -0.062 A 
HETATM   12  C   UNK N   1      24.994  20.459   2.803  0.00  0.00     0.048 C 
HETATM   13  C   UNK N   1      27.197  20.132   3.939  0.00  0.00     0.008 A 
HETATM   14  C   UNK N   1      28.149  19.306   4.549  0.00  0.00     0.019 A 
ENDBRANCH   7   8
ENDBRANCH   1   7
BRANCH   6  15
HETATM   15  C   UNK N   1      31.788  17.099   7.099  0.00  0.00     0.023 C 
HETATM   16  C   UNK N   1      32.063  15.594   7.213  0.00  0.00     0.028 C 
HETATM   17  C   UNK N   1      33.388  15.266   6.532  0.00  0.00     0.114 C 
HETATM   18  N   UNK N   1      34.474  16.000   7.179  0.00  0.00    -0.421 N 
HETATM   19  C   UNK N   1      34.261  17.432   6.970  0.00  0.00     0.114 C 
HETATM   20  H   UNK N   1      35.250  15.583   7.692  0.00  0.00     0.153 HD
HETATM   21  C   UNK N   1      32.974  17.882   7.661  0.00  0.00     0.028 C 
ENDBRANCH   6  15
TORSDOF 3
ENDMDL
MODEL 2
REMARK VINA RESULT:      -6.8      2.554      6.344
REMARK  3 active torsions:
REMARK  status: ('A' for Active; 'I' for Inactive)
REMARK    1  A    between atoms: C_5  and  S_8 
REMARK    2  A    between atoms: S_8  and  C_9 
REMARK    3  A    between atoms: C_14  and  C_15 
ROOT
HETATM    1  C   UNK N   1      27.665  18.541   6.254  0.00  0.00     0.012 A 
HETATM    2  C   UNK N   1      27.771  19.823   6.822  0.00  0.00     0.019 A 
HETATM    3  C   UNK N   1      27.446  20.959   6.085  0.00  0.00     0.001 A 
HETATM    4  C   UNK N   1      27.030  20.838   4.761  0.00  0.00     0.001 A 
HETATM    5  C   UNK N   1      26.936  19.575   4.175  0.00  0.00     0.009 A 
HETATM    6  C   UNK N   1      27.245  18.418   4.907  0.00  0.00    -0.037 A 
ENDROOT
BRANCH   1   7
HETATM    7  S   UNK N   1      28.180  17.091   7.210  0.00  0.00    -0.090 SA
BRANCH   7   8
HETATM    8  C   UNK N   1      29.961  17.358   7.254  0.00  0.00     0.005 A 
HETATM    9  C   UNK N   1      30.756  17.019   6.152  0.00  0.00     0.019 A 
HETATM   10  C   UNK N   1      32.146  17.147   6.218  0.00  0.00     0.008 A 
HETATM   11  C   UNK N   1      32.751  17.591   7.397  0.00  0.00    -0.062 A 
HETATM   12  C   UNK N   1      34.230  17.707   7.473  0.00  0.00     0.048 C 
HETATM   13  C   UNK N   1      31.963  17.916   8.507  0.00  0.00     0.008 A 
HETATM   14  C   UNK N   1      30.570  17.796   8.436  0.00  0.00     0.019 A 
ENDBRANCH   7   8
ENDBRANCH   1   7
BRANCH   6  15
HETATM   15  C   UNK N   1      27.161  17.057   4.242  0.00  0.00     0.023 C 
HETATM   16  C   UNK N   1      28.368  16.730   3.352  0.00  0.00     0.028 C 
HETATM   17  C   UNK N   1      28.176  15.356   2.719  0.00  0.00     0.114 C 
HETATM   18  N   UNK N   1      26.965  15.351   1.901  0.00  0.00    -0.421 N 
HETATM   19  C   UNK N   1      25.808  15.554   2.773  0.00  0.00     0.114 C 
HETATM   20  H   UNK N   1      26.932  15.228   0.889  0.00  0.00     0.153 HD
HETATM   21  C   UNK N   1      25.873  16.934   3.425  0.00  0.00     0.028 C 
ENDBRANCH   6  15
TORSDOF 3
ENDMDL
MODEL 3
REMARK VINA RESULT:      -6.4      3.494      7.323
REMARK  3 active torsions:
REMARK  status: ('A' for Active; 'I' for Inactive)
REMARK    1  A    between atoms: C_5  and  S_8 
REMARK    2  A    between atoms: S_8  and  C_9 
REMARK    3  A    between atoms: C_14  and  C_15 
ROOT
HETATM    1  C   UNK N   1      32.180  17.591   7.655  0.00  0.00     0.012 A 
HETATM    2  C   UNK N   1      31.356  18.131   8.656  0.00  0.00     0.019 A 
HETATM    3  C   UNK N   1      29.968  18.097   8.535  0.00  0.00     0.001 A 
HETATM    4  C   UNK N   1      29.380  17.541   7.402  0.00  0.00     0.001 A 
HETATM    5  C   UNK N   1      30.183  17.015   6.388  0.00  0.00     0.009 A 
HETATM    6  C   UNK N   1      31.582  17.028   6.500  0.00  0.00    -0.037 A 
ENDROOT
BRANCH   1   7
HETATM    7  S   UNK N   1      33.981  17.732   7.801  0.00  0.00    -0.090 SA
BRANCH   7   8
HETATM    8  C   UNK N   1      34.276  16.600   9.170  0.00  0.00     0.005 A 
HETATM    9  C   UNK N   1      35.159  16.948  10.200  0.00  0.00     0.019 A 
HETATM   10  C   UNK N   1      35.452  16.035  11.217  0.00  0.00     0.008 A 
HETATM   11  C   UNK N   1      34.884  14.759  11.196  0.00  0.00    -0.062 A 
HETATM   12  C   UNK N   1      35.214  13.782  12.265  0.00  0.00     0.048 C 
HETATM   13  C   UNK N   1      34.014  14.399  10.160  0.00  0.00     0.008 A 
HETATM   14  C   UNK N   1      33.713  15.318   9.147  0.00  0.00     0.019 A 
ENDBRANCH   7   8
ENDBRANCH   1   7
BRANCH   6  15
HETATM   15  C   UNK N   1      32.436  16.475   5.375  0.00  0.00     0.023 C 
HETATM   16  C   UNK N   1      32.224  17.188   4.033  0.00  0.00     0.028 C 
HETATM   17  C   UNK N   1      33.111  16.546   2.971  0.00  0.00     0.114 C 
HETATM   18  N   UNK N   1      32.763  15.135   2.821  0.00  0.00    -0.421 N 
HETATM   19  C   UNK N   1      33.072  14.440   4.071  0.00  0.00     0.114 C 
HETATM   20  H   UNK N   1      32.370  14.705   1.984  0.00  0.00     0.153 HD
HETATM   21  C   UNK N   1      32.195  14.974   5.203  0.00  0.00     0.028 C 
ENDBRANCH   6  15
TORSDOF 3
ENDMDL
MODEL 4
REMARK VINA RESULT:      -6.4     11.949     16.016
REMARK  3 active torsions:
REMARK  status: ('A' for Active; 'I' for Inactive)
REMARK    1  A    between atoms: C_5  and  S_8 
REMARK    2  A    between atoms: S_8  and  C_9 
REMARK    3  A    between atoms: C_14  and  C_15 
ROOT
HETATM    1  C   UNK N   1      27.183  27.411  -6.988  0.00  0.00     0.012 A 
HETATM    2  C   UNK N   1      27.633  27.072  -8.275  0.00  0.00     0.019 A 
HETATM    3  C   UNK N   1      28.597  27.842  -8.921  0.00  0.00     0.001 A 
HETATM    4  C   UNK N   1      29.113  28.978  -8.302  0.00  0.00     0.001 A 
HETATM    5  C   UNK N   1      28.665  29.342  -7.031  0.00  0.00     0.009 A 
HETATM    6  C   UNK N   1      27.706  28.569  -6.359  0.00  0.00    -0.037 A 
ENDROOT
BRANCH   1   7
HETATM    7  S   UNK N   1      25.864  26.440  -6.212  0.00  0.00    -0.090 SA
BRANCH   7   8
HETATM    8  C   UNK N   1      26.847  25.350  -5.169  0.00  0.00     0.005 A 
HETATM    9  C   UNK N   1      26.365  24.940  -3.920  0.00  0.00     0.019 A 
HETATM   10  C   UNK N   1      27.163  24.164  -3.075  0.00  0.00     0.008 A 
HETATM   11  C   UNK N   1      28.458  23.814  -3.465  0.00  0.00    -0.062 A 
HETATM   12  C   UNK N   1      29.313  23.006  -2.557  0.00  0.00     0.048 C 
HETATM   13  C   UNK N   1      28.951  24.233  -4.705  0.00  0.00     0.008 A 
HETATM   14  C   UNK N   1      28.147  25.003  -5.555  0.00  0.00     0.019 A 
ENDBRANCH   7   8
ENDBRANCH   1   7
BRANCH   6  15
HETATM   15  C   UNK N   1      27.214  28.997  -4.989  0.00  0.00     0.023 C 
HETATM   16  C   UNK N   1      27.128  30.519  -4.813  0.00  0.00     0.028 C 
HETATM   17  C   UNK N   1      26.644  30.841  -3.403  0.00  0.00     0.114 C 
HETATM   18  N   UNK N   1      27.581  30.299  -2.421  0.00  0.00    -0.421 N 
HETATM   19  C   UNK N   1      27.574  28.840  -2.521  0.00  0.00     0.114 C 
HETATM   20  H   UNK N   1      28.146  30.848  -1.773  0.00  0.00     0.153 HD
HETATM   21  C   UNK N   1      28.094  28.401  -3.890  0.00  0.00     0.028 C 
ENDBRANCH   6  15
TORSDOF 3
ENDMDL
MODEL 5
REMARK VINA RESULT:      -6.3      2.394      4.736
REMARK  3 active torsions:
REMARK  status: ('A' for Active; 'I' for Inactive)
REMARK    1  A    between atoms: C_5  and  S_8 
REMARK    2  A    between atoms: S_8  and  C_9 
REMARK    3  A    between atoms: C_14  and  C_15 
ROOT
HETATM    1  C   UNK N   1      27.011  18.167   5.348  0.00  0.00     0.012 A 
HETATM    2  C   UNK N   1      26.358  19.021   4.444  0.00  0.00     0.019 A 
HETATM    3  C   UNK N   1      26.450  20.405   4.575  0.00  0.00     0.001 A 
HETATM    4  C   UNK N   1      27.179  20.960   5.624  0.00  0.00     0.001 A 
HETATM    5  C   UNK N   1      27.821  20.127   6.542  0.00  0.00     0.009 A 
HETATM    6  C   UNK N   1      27.751  18.731   6.417  0.00  0.00    -0.037 A 
ENDROOT
BRANCH   1   7
HETATM    7  S   UNK N   1      26.798  16.373   5.204  0.00  0.00    -0.090 SA
BRANCH   7   8
HETATM    8  C   UNK N   1      28.404  15.918   4.529  0.00  0.00     0.005 A 
HETATM    9  C   UNK N   1      29.151  14.884   5.110  0.00  0.00     0.019 A 
HETATM   10  C   UNK N   1      30.432  14.589   4.639  0.00  0.00     0.008 A 
HETATM   11  C   UNK N   1      30.987  15.341   3.600  0.00  0.00    -0.062 A 
HETATM   12  C   UNK N   1      32.358  15.039   3.115  0.00  0.00     0.048 C 
HETATM   13  C   UNK N   1      30.252  16.385   3.026  0.00  0.00     0.008 A 
HETATM   14  C   UNK N   1      28.964  16.675   3.492  0.00  0.00     0.019 A 
ENDBRANCH   7   8
ENDBRANCH   1   7
BRANCH   6  15
HETATM   15  C   UNK N   1      28.434  17.845   7.442  0.00  0.00     0.023 C 
HETATM   16  C   UNK N   1      28.200  18.288   8.893  0.00  0.00     0.028 C 
HETATM   17  C   UNK N   1      28.941  17.347   9.837  0.00  0.00     0.114 C 
HETATM   18  N   UNK N   1      30.374  17.385   9.552  0.00  0.00    -0.421 N 
HETATM   19  C   UNK N   1      30.598  16.858   8.206  0.00  0.00     0.114 C 
HETATM   20  H   UNK N   1      31.097  17.724  10.186  0.00  0.00     0.153 HD
HETATM   21  C   UNK N   1      29.936  17.761   7.167  0.00  0.00     0.028 C 
ENDBRANCH   6  15
TORSDOF 3
ENDMDL
MODEL 6
REMARK VINA RESULT:      -6.3     12.629     15.668
REMARK  3 active torsions:
REMARK  status: ('A' for Active; 'I' for Inactive)
REMARK    1  A    between atoms: C_5  and  S_8 
REMARK    2  A    between atoms: S_8  and  C_9 
REMARK    3  A    between atoms: C_14  and  C_15 
ROOT
HETATM    1  C   UNK N   1      35.339  10.996  18.006  0.00  0.00     0.012 A 
HETATM    2  C   UNK N   1      35.384  11.559  19.293  0.00  0.00     0.019 A 
HETATM    3  C   UNK N   1      35.284  12.937  19.474  0.00  0.00     0.001 A 
HETATM    4  C   UNK N   1      35.159  13.779  18.371  0.00  0.00     0.001 A 
HETATM    5  C   UNK N   1      35.131  13.239  17.084  0.00  0.00     0.009 A 
HETATM    6  C   UNK N   1      35.215  11.853  16.884  0.00  0.00    -0.037 A 
ENDROOT
BRANCH   1   7
HETATM    7  S   UNK N   1      35.562   9.210  17.800  0.00  0.00    -0.090 SA
BRANCH   7   8
HETATM    8  C   UNK N   1      34.576   8.607  19.180  0.00  0.00     0.005 A 
HETATM    9  C   UNK N   1      33.184   8.762  19.178  0.00  0.00     0.019 A 
HETATM   10  C   UNK N   1      32.428   8.371  20.286  0.00  0.00     0.008 A 
HETATM   11  C   UNK N   1      33.063   7.845  21.415  0.00  0.00    -0.062 A 
HETATM   12  C   UNK N   1      32.261   7.449  22.601  0.00  0.00     0.048 C 
HETATM   13  C   UNK N   1      34.455   7.703  21.429  0.00  0.00     0.008 A 
HETATM   14  C   UNK N   1      35.210   8.086  20.314  0.00  0.00     0.019 A 
ENDBRANCH   7   8
ENDBRANCH   1   7
BRANCH   6  15
HETATM   15  C   UNK N   1      35.209  11.290  15.476  0.00  0.00     0.023 C 
HETATM   16  C   UNK N   1      35.960  12.162  14.460  0.00  0.00     0.028 C 
HETATM   17  C   UNK N   1      35.878  11.520  13.079  0.00  0.00     0.114 C 
HETATM   18  N   UNK N   1      34.480  11.405  12.668  0.00  0.00    -0.421 N 
HETATM   19  C   UNK N   1      33.798  10.485  13.577  0.00  0.00     0.114 C 
HETATM   20  H   UNK N   1      34.051  11.888  11.878  0.00  0.00     0.153 HD
HETATM   21  C   UNK N   1      33.777  11.058  14.993  0.00  0.00     0.028 C 
ENDBRANCH   6  15
TORSDOF 3
ENDMDL
MODEL 7
REMARK VINA RESULT:      -6.3     11.327     15.133
REMARK  3 active torsions:
REMARK  status: ('A' for Active; 'I' for Inactive)
REMARK    1  A    between atoms: C_5  and  S_8 
REMARK    2  A    between atoms: S_8  and  C_9 
REMARK    3  A    between atoms: C_14  and  C_15 
ROOT
HETATM    1  C   UNK N   1      26.582  24.987  -5.199  0.00  0.00     0.012 A 
HETATM    2  C   UNK N   1      26.176  23.862  -5.936  0.00  0.00     0.019 A 
HETATM    3  C   UNK N   1      25.791  23.982  -7.270  0.00  0.00     0.001 A 
HETATM    4  C   UNK N   1      25.785  25.231  -7.885  0.00  0.00     0.001 A 
HETATM    5  C   UNK N   1      26.167  26.364  -7.163  0.00  0.00     0.009 A 
HETATM    6  C   UNK N   1      26.572  26.259  -5.823  0.00  0.00    -0.037 A 
ENDROOT
BRANCH   1   7
HETATM    7  S   UNK N   1      26.990  24.811  -3.442  0.00  0.00    -0.090 SA
BRANCH   7   8
HETATM    8  C   UNK N   1      28.560  23.940  -3.569  0.00  0.00     0.005 A 
HETATM    9  C   UNK N   1      29.037  23.176  -2.495  0.00  0.00     0.019 A 
HETATM   10  C   UNK N   1      30.294  22.571  -2.562  0.00  0.00     0.008 A 
HETATM   11  C   UNK N   1      31.094  22.746  -3.694  0.00  0.00    -0.062 A 
HETATM   12  C   UNK N   1      32.440  22.119  -3.756  0.00  0.00     0.048 C 
HETATM   13  C   UNK N   1      30.631  23.520  -4.764  0.00  0.00     0.008 A 
HETATM   14  C   UNK N   1      29.367  24.119  -4.699  0.00  0.00     0.019 A 
ENDBRANCH   7   8
ENDBRANCH   1   7
BRANCH   6  15
HETATM   15  C   UNK N   1      26.958  27.506  -5.051  0.00  0.00     0.023 C 
HETATM   16  C   UNK N   1      25.830  28.060  -4.171  0.00  0.00     0.028 C 
HETATM   17  C   UNK N   1      26.313  29.318  -3.456  0.00  0.00     0.114 C 
HETATM   18  N   UNK N   1      26.694  30.331  -4.437  0.00  0.00    -0.421 N 
HETATM   19  C   UNK N   1      27.842  29.838  -5.198  0.00  0.00     0.114 C 
HETATM   20  H   UNK N   1      26.235  31.232  -4.570  0.00  0.00     0.153 HD
HETATM   21  C   UNK N   1      27.452  28.598  -6.000  0.00  0.00     0.028 C 
ENDBRANCH   6  15
TORSDOF 3
ENDMDL
MODEL 8
REMARK VINA RESULT:      -6.2     13.581     15.922
REMARK  3 active torsions:
REMARK  status: ('A' for Active; 'I' for Inactive)
REMARK    1  A    between atoms: C_5  and  S_8 
REMARK    2  A    between atoms: S_8  and  C_9 
REMARK    3  A    between atoms: C_14  and  C_15 
ROOT
HETATM    1  C   UNK N   1      35.739  11.234  18.528  0.00  0.00     0.012 A 
HETATM    2  C   UNK N   1      35.313  12.462  19.062  0.00  0.00     0.019 A 
HETATM    3  C   UNK N   1      35.076  13.558  18.236  0.00  0.00     0.001 A 
HETATM    4  C   UNK N   1      35.280  13.453  16.862  0.00  0.00     0.001 A 
HETATM    5  C   UNK N   1      35.720  12.246  16.314  0.00  0.00     0.009 A 
HETATM    6  C   UNK N   1      35.949  11.128  17.130  0.00  0.00    -0.037 A 
ENDROOT
BRANCH   1   7
HETATM    7  S   UNK N   1      36.124   9.856  19.639  0.00  0.00    -0.090 SA
BRANCH   7   8
HETATM    8  C   UNK N   1      34.484   9.139  19.834  0.00  0.00     0.005 A 
HETATM    9  C   UNK N   1      33.574   9.689  20.746  0.00  0.00     0.019 A 
HETATM   10  C   UNK N   1      32.333   9.082  20.958  0.00  0.00     0.008 A 
HETATM   11  C   UNK N   1      32.005   7.906  20.278  0.00  0.00    -0.062 A 
HETATM   12  C   UNK N   1      30.694   7.250  20.520  0.00  0.00     0.048 C 
HETATM   13  C   UNK N   1      32.916   7.344  19.377  0.00  0.00     0.008 A 
HETATM   14  C   UNK N   1      34.155   7.958  19.158  0.00  0.00     0.019 A 
ENDBRANCH   7   8
ENDBRANCH   1   7
BRANCH   6  15
HETATM   15  C   UNK N   1      36.452   9.835  16.517  0.00  0.00     0.023 C 
HETATM   16  C   UNK N   1      37.546  10.038  15.461  0.00  0.00     0.028 C 
HETATM   17  C   UNK N   1      37.966   8.684  14.896  0.00  0.00     0.114 C 
HETATM   18  N   UNK N   1      36.818   8.029  14.274  0.00  0.00    -0.421 N 
HETATM   19  C   UNK N   1      35.825   7.739  15.309  0.00  0.00     0.114 C 
HETATM   20  H   UNK N   1      36.724   7.810  13.282  0.00  0.00     0.153 HD
HETATM   21  C   UNK N   1      35.295   9.039  15.911  0.00  0.00     0.028 C 
ENDBRANCH   6  15
TORSDOF 3
ENDMDL
MODEL 9
REMARK VINA RESULT:      -6.2      7.082      8.927
REMARK  3 active torsions:
REMARK  status: ('A' for Active; 'I' for Inactive)
REMARK    1  A    between atoms: C_5  and  S_8 
REMARK    2  A    between atoms: S_8  and  C_9 
REMARK    3  A    between atoms: C_14  and  C_15 
ROOT
HETATM    1  C   UNK N   1      21.230  12.939   7.297  0.00  0.00     0.012 A 
HETATM    2  C   UNK N   1      20.586  12.522   6.121  0.00  0.00     0.019 A 
HETATM    3  C   UNK N   1      20.981  11.358   5.464  0.00  0.00     0.001 A 
HETATM    4  C   UNK N   1      22.040  10.602   5.960  0.00  0.00     0.001 A 
HETATM    5  C   UNK N   1      22.704  11.010   7.118  0.00  0.00     0.009 A 
HETATM    6  C   UNK N   1      22.310  12.171   7.800  0.00  0.00    -0.037 A 
ENDROOT
BRANCH   1   7
HETATM    7  S   UNK N   1      20.753  14.503   8.077  0.00  0.00    -0.090 SA
BRANCH   7   8
HETATM    8  C   UNK N   1      21.593  15.667   6.989  0.00  0.00     0.005 A 
HETATM    9  C   UNK N   1      22.854  15.361   6.461  0.00  0.00     0.019 A 
HETATM   10  C   UNK N   1      23.541  16.299   5.688  0.00  0.00     0.008 A 
HETATM   11  C   UNK N   1      22.984  17.559   5.457  0.00  0.00    -0.062 A 
HETATM   12  C   UNK N   1      23.725  18.563   4.651  0.00  0.00     0.048 C 
HETATM   13  C   UNK N   1      21.731  17.877   5.995  0.00  0.00     0.008 A 
HETATM   14  C   UNK N   1      21.039  16.933   6.763  0.00  0.00     0.019 A 
ENDBRANCH   7   8
ENDBRANCH   1   7
BRANCH   6  15
HETATM   15  C   UNK N   1      23.063  12.610   9.042  0.00  0.00     0.023 C 
HETATM   16  C   UNK N   1      24.554  12.877   8.797  0.00  0.00     0.028 C 
HETATM   17  C   UNK N   1      25.218  13.291  10.106  0.00  0.00     0.114 C 
HETATM   18  N   UNK N   1      25.080  12.222  11.093  0.00  0.00    -0.421 N 
HETATM   19  C   UNK N   1      23.661  12.050  11.403  0.00  0.00     0.114 C 
HETATM   20  H   UNK N   1      25.847  11.685  11.498  0.00  0.00     0.153 HD
HETATM   21  C   UNK N   1      22.902  11.582  10.162  0.00  0.00     0.028 C 
ENDBRANCH   6  15
TORSDOF 3
ENDMDL
