REMARK WARNING: 32 MAX_TORS EXCEEDED!!!
REMARK  42 active torsions:
REMARK  status: ('A' for Active; 'I' for Inactive)
REMARK    1  A    between atoms: C_3  and  C_2 
REMARK    2  A    between atoms: C_2  and  O_97 
REMARK    3  A    between atoms: C_7  and  C_88 
REMARK    4  A    between atoms: C_12  and  N_50 
REMARK    5  A    between atoms: C_16  and  C_43 
REMARK    6  A    between atoms: C_20  and  C_33 
REMARK    7  A    between atoms: C_24  and  C_28 
REMARK    8  A    between atoms: C_28  and  C_29 
REMARK    9  A    between atoms: C_29  and  C_30 
REMARK   10  A    between atoms: C_30  and  C_31 
REMARK   11  A    between atoms: C_31  and  N_32 
REMARK   12  A    between atoms: C_33  and  C_34 
REMARK   13  A    between atoms: C_43  and  C_44 
REMARK       I    between atoms: N_50  and  C_51 
REMARK   14  A    between atoms: C_51  and  C_53 
REMARK   15  A    between atoms: C_53  and  C_54 
REMARK   16  A    between atoms: C_53  and  N_61 
REMARK   17  A    between atoms: C_54  and  C_55 
REMARK       I    between atoms: N_61  and  C_62 
REMARK   18  A    between atoms: C_62  and  C_64 
REMARK   19  A    between atoms: C_64  and  N_65 
REMARK   20  A    between atoms: N_65  and  C_66 
REMARK   21  A    between atoms: N_65  and  C_84 
REMARK   22  A    between atoms: C_66  and  C_67 
REMARK   23  A    between atoms: C_67  and  N_68 
REMARK   24  A    between atoms: N_68  and  C_69 
REMARK   25  A    between atoms: N_68  and  C_80 
REMARK   26  A    between atoms: C_69  and  C_70 
REMARK   27  A    between atoms: C_70  and  N_71 
REMARK   28  A    between atoms: N_71  and  C_72 
REMARK   29  A    between atoms: N_71  and  C_76 
REMARK   30  A    between atoms: C_72  and  C_73 
REMARK   31  A    between atoms: C_73  and  O_75 
REMARK   32  A    between atoms: C_76  and  C_77 
REMARK   33  A    between atoms: C_77  and  O_79 
REMARK   34  A    between atoms: C_80  and  C_81 
REMARK   35  A    between atoms: C_81  and  O_83 
REMARK   36  A    between atoms: C_84  and  C_85 
REMARK   37  A    between atoms: C_85  and  O_87 
REMARK       I    between atoms: C_88  and  N_90 
REMARK   38  A    between atoms: C_91  and  N_90 
REMARK   39  A    between atoms: C_91  and  C_92 
REMARK   40  A    between atoms: C_91  and  C_94 
REMARK   41  A    between atoms: C_92  and  O_93 
REMARK   42  A    between atoms: C_94  and  O_96 
ROOT
HETATM    1  C   UNK N   1       3.162   7.800   0.495  0.00  0.00     0.205 C 
HETATM    2  C   UNK N   1       4.456   8.018  -0.220  0.00  0.00     0.243 C 
HETATM    3  O   UNK N   1       4.852   9.153  -0.438  0.00  0.00    -0.271 OA
HETATM    4  N   UNK N   1       5.050   6.990  -0.850  0.00  0.00    -0.345 N 
HETATM    5  C   UNK N   1       4.814   5.613  -0.498  0.00  0.00     0.186 C 
HETATM    6  C   UNK N   1       3.919   4.890  -1.509  0.00  0.00     0.120 C 
HETATM    7  S   UNK N   1       4.591   4.661  -3.175  0.00  0.00    -0.095 SA
HETATM    8  S   UNK N   1       3.540   2.812  -3.341  0.00  0.00    -0.095 SA
HETATM    9  C   UNK N   1       4.947   1.859  -2.704  0.00  0.00     0.120 C 
HETATM   10  C   UNK N   1       4.666   1.108  -1.403  0.00  0.00     0.186 C 
HETATM   11  C   UNK N   1       4.115  -0.296  -1.449  0.00  0.00     0.242 C 
HETATM   12  O   UNK N   1       4.752  -1.154  -2.035  0.00  0.00    -0.271 OA
HETATM   13  N   UNK N   1       2.985  -0.657  -0.793  0.00  0.00    -0.346 N 
HETATM   14  C   UNK N   1       2.081   0.268  -0.131  0.00  0.00     0.180 C 
HETATM   15  C   UNK N   1       1.457   1.191  -1.166  0.00  0.00     0.241 C 
HETATM   16  O   UNK N   1       1.423   0.823  -2.331  0.00  0.00    -0.271 OA
HETATM   17  N   UNK N   1       1.036   2.452  -0.867  0.00  0.00    -0.346 N 
HETATM   18  C   UNK N   1       0.855   2.928   0.485  0.00  0.00     0.181 C 
HETATM   19  C   UNK N   1       1.770   4.064   0.934  0.00  0.00     0.241 C 
HETATM   20  O   UNK N   1       2.498   3.832   1.879  0.00  0.00    -0.271 OA
HETATM   21  N   UNK N   1       1.770   5.342   0.429  0.00  0.00    -0.346 N 
HETATM   22  C   UNK N   1       0.919   5.891  -0.615  0.00  0.00     0.176 C 
HETATM   23  C   UNK N   1       1.284   7.294  -1.093  0.00  0.00     0.241 C 
HETATM   24  O   UNK N   1       0.680   7.717  -2.065  0.00  0.00    -0.271 OA
HETATM   25  N   UNK N   1       2.183   8.127  -0.505  0.00  0.00    -0.344 N 
HETATM   26  H   UNK N   1       5.674   7.186  -1.585  0.00  0.00     0.163 HD
HETATM   27  H   UNK N   1       2.760  -1.615  -0.763  0.00  0.00     0.163 HD
HETATM   28  H   UNK N   1       0.846   3.071  -1.610  0.00  0.00     0.163 HD
HETATM   29  H   UNK N   1       2.426   5.961   0.821  0.00  0.00     0.163 HD
HETATM   30  H   UNK N   1       2.160   9.066  -0.799  0.00  0.00     0.163 HD
ENDROOT
BRANCH  10  31
HETATM   31  N   UNK N   1       4.310   1.894  -0.238  0.00  0.00    -0.345 N 
HETATM   32  C   UNK N   1       4.986   1.770   0.936  0.00  0.00     0.241 C 
HETATM   33  O   UNK N   1       4.661   2.442   1.898  0.00  0.00    -0.271 OA
HETATM   34  H   UNK N   1       3.562   2.531  -0.298  0.00  0.00     0.163 HD
BRANCH  32  35
HETATM   35  C   UNK N   1       6.196   0.901   1.046  0.00  0.00     0.180 C 
BRANCH  35  36
HETATM   36  C   UNK N   1       5.869  -0.595   0.959  0.00  0.00     0.073 C 
BRANCH  36  37
HETATM   37  C   UNK N   1       6.992  -1.447   0.444  0.00  0.00    -0.056 A 
HETATM   38  C   UNK N   1       7.426  -1.312  -0.883  0.00  0.00     0.007 A 
HETATM   39  C   UNK N   1       8.449  -2.118  -1.380  0.00  0.00     0.001 A 
HETATM   40  C   UNK N   1       9.039  -3.076  -0.553  0.00  0.00     0.000 A 
HETATM   41  C   UNK N   1       8.603  -3.224   0.768  0.00  0.00     0.001 A 
HETATM   42  C   UNK N   1       7.578  -2.413   1.266  0.00  0.00     0.007 A 
ENDBRANCH  36  37
ENDBRANCH  35  36
BRANCH  35  43
HETATM   43  N   UNK N   1       7.106   1.331   0.019  0.00  0.00    -0.346 N 
HETATM   44  C   UNK N   1       8.097   2.189   0.291  0.00  0.00     0.235 C 
HETATM   45  O   UNK N   1       8.835   2.550  -0.609  0.00  0.00    -0.272 OA
HETATM   46  H   UNK N   1       6.998   0.989  -0.898  0.00  0.00     0.163 HD
BRANCH  44  47
HETATM   47  C   UNK N   1       8.274   2.706   1.690  0.00  0.00     0.220 C 
BRANCH  47  48
HETATM   48  N   UNK N   1       9.386   2.069   2.395  0.00  0.00    -0.393 N 
BRANCH  48  49
HETATM   49  C   UNK N   1      10.610   2.865   2.399  0.00  0.00     0.148 C 
BRANCH  49  50
HETATM   50  C   UNK N   1      11.039   3.226   0.978  0.00  0.00     0.292 C 
BRANCH  50  51
HETATM   51  N   UNK N   1      12.272   3.996   0.909  0.00  0.00     0.101 N 
BRANCH  51  52
HETATM   52  C   UNK N   1      13.286   3.546   1.852  0.00  0.00     0.303 C 
BRANCH  52  53
HETATM   53  C   UNK N   1      14.039   2.381   1.231  0.00  0.00     0.304 C 
BRANCH  53  54
HETATM   54  N   UNK N   1      14.274   2.653  -0.189  0.00  0.00     0.110 N 
BRANCH  54  55
HETATM   55  C   UNK N   1      15.552   3.325  -0.414  0.00  0.00     0.382 C 
BRANCH  55  56
HETATM   56  C   UNK N   1      15.448   4.796  -0.130  0.00  0.00     0.169 C 
HETATM   57  O   UNK N   1      15.428   5.204   1.020  0.00  0.00    -0.649 OA
BRANCH  56  58
HETATM   58  O   UNK N   1      15.401   5.674  -1.148  0.00  0.00    -0.775 OA
HETATM   59  H   UNK N   1      15.914   6.008  -1.857  0.00  0.00     0.167 HD
ENDBRANCH  56  58
ENDBRANCH  55  56
ENDBRANCH  54  55
BRANCH  54  60
HETATM   60  C   UNK N   1      14.157   1.440  -1.004  0.00  0.00     0.382 C 
BRANCH  60  61
HETATM   61  C   UNK N   1      14.983   0.288  -0.506  0.00  0.00     0.169 C 
HETATM   62  O   UNK N   1      16.197   0.384  -0.436  0.00  0.00    -0.649 OA
BRANCH  61  63
HETATM   63  O   UNK N   1      14.379  -0.860  -0.149  0.00  0.00    -0.775 OA
HETATM   64  H   UNK N   1      13.476  -0.896   0.099  0.00  0.00     0.167 HD
ENDBRANCH  61  63
ENDBRANCH  60  61
ENDBRANCH  54  60
ENDBRANCH  53  54
ENDBRANCH  52  53
ENDBRANCH  51  52
BRANCH  51  65
HETATM   65  C   UNK N   1      12.052   5.430   0.978  0.00  0.00     0.381 C 
BRANCH  65  66
HETATM   66  C   UNK N   1      12.120   6.015  -0.408  0.00  0.00     0.169 C 
HETATM   67  O   UNK N   1      12.022   7.220  -0.565  0.00  0.00    -0.649 OA
BRANCH  66  68
HETATM   68  O   UNK N   1      12.273   5.217  -1.484  0.00  0.00    -0.775 OA
HETATM   69  H   UNK N   1      11.845   4.847  -2.232  0.00  0.00     0.167 HD
ENDBRANCH  66  68
ENDBRANCH  65  66
ENDBRANCH  51  65
ENDBRANCH  50  51
ENDBRANCH  49  50
ENDBRANCH  48  49
BRANCH  48  70
HETATM   70  C   UNK N   1       9.524   0.606   2.239  0.00  0.00     0.227 C 
BRANCH  70  71
HETATM   71  C   UNK N   1      10.484   0.149   1.166  0.00  0.00     0.157 C 
HETATM   72  O   UNK N   1      10.275   0.389  -0.010  0.00  0.00    -0.649 OA
BRANCH  71  73
HETATM   73  O   UNK N   1      11.553  -0.590   1.508  0.00  0.00    -0.775 OA
HETATM   74  H   UNK N   1      11.479  -1.493   1.747  0.00  0.00     0.167 HD
ENDBRANCH  71  73
ENDBRANCH  70  71
ENDBRANCH  48  70
ENDBRANCH  47  48
ENDBRANCH  44  47
ENDBRANCH  35  43
ENDBRANCH  32  35
ENDBRANCH  10  31
BRANCH  14  75
HETATM   75  C   UNK N   1       1.064  -0.481   0.755  0.00  0.00     0.073 C 
BRANCH  75  76
HETATM   76  C   UNK N   1       0.974  -1.942   0.417  0.00  0.00    -0.056 A 
HETATM   77  C   UNK N   1       1.841  -2.856   1.033  0.00  0.00     0.007 A 
HETATM   78  C   UNK N   1       1.844  -4.198   0.637  0.00  0.00     0.001 A 
HETATM   79  C   UNK N   1       0.988  -4.626  -0.382  0.00  0.00     0.000 A 
HETATM   80  C   UNK N   1       0.124  -3.715  -0.998  0.00  0.00     0.001 A 
HETATM   81  C   UNK N   1       0.122  -2.373  -0.605  0.00  0.00     0.007 A 
ENDBRANCH  75  76
ENDBRANCH  14  75
BRANCH   5  82
HETATM   82  C   UNK N   1       6.181   5.092  -0.282  0.00  0.00     0.241 C 
HETATM   83  O   UNK N   1       6.662   4.251  -1.022  0.00  0.00    -0.271 OA
HETATM   84  N   UNK N   1       6.931   5.779   0.616  0.00  0.00    -0.350 N 
HETATM   85  H   UNK N   1       6.423   6.243   1.320  0.00  0.00     0.163 HD
BRANCH  84  86
HETATM   86  C   UNK N   1       8.366   5.928   0.691  0.00  0.00     0.136 C 
BRANCH  86  87
HETATM   87  C   UNK N   1       9.127   5.373  -0.522  0.00  0.00     0.191 C 
BRANCH  87  88
HETATM   88  O   UNK N   1       8.736   5.975  -1.721  0.00  0.00    -0.399 OA
HETATM   89  H   UNK N   1       8.962   6.419  -2.553  0.00  0.00     0.209 HD
ENDBRANCH  87  88
ENDBRANCH  86  87
BRANCH  86  90
HETATM   90  C   UNK N   1       8.636   7.425   0.924  0.00  0.00     0.139 C 
HETATM   91  C   UNK N   1       8.172   8.320  -0.220  0.00  0.00     0.041 C 
BRANCH  90  92
HETATM   92  O   UNK N   1       9.973   7.672   1.214  0.00  0.00    -0.394 OA
HETATM   93  H   UNK N   1      10.589   6.951   1.416  0.00  0.00     0.210 HD
ENDBRANCH  90  92
ENDBRANCH  86  90
ENDBRANCH  84  86
ENDBRANCH   5  82
BRANCH  18  94
HETATM   94  C   UNK N   1      -0.568   3.364   0.683  0.00  0.00     0.075 C 
BRANCH  94  95
HETATM   95  C   UNK N   1      -1.661   2.391   0.430  0.00  0.00    -0.028 A 
HETATM   96  C   UNK N   1      -1.618   1.056   0.049  0.00  0.00     0.096 A 
HETATM   97  N   UNK N   1      -2.888   0.561   0.014  0.00  0.00    -0.365 N 
HETATM   98  C   UNK N   1      -3.686   1.579   0.366  0.00  0.00     0.042 A 
HETATM   99  H   UNK N   1      -3.162  -0.355  -0.221  0.00  0.00     0.165 HD
HETATM  100  C   UNK N   1      -2.972   2.710   0.613  0.00  0.00    -0.002 A 
HETATM  101  C   UNK N   1      -5.075   1.561   0.511  0.00  0.00     0.030 A 
HETATM  102  C   UNK N   1      -3.559   3.906   1.000  0.00  0.00     0.014 A 
HETATM  103  C   UNK N   1      -4.954   3.927   1.146  0.00  0.00     0.001 A 
HETATM  104  C   UNK N   1      -5.709   2.754   0.910  0.00  0.00     0.002 A 
ENDBRANCH  94  95
ENDBRANCH  18  94
BRANCH   1 105
HETATM  105  C   UNK N   1       3.044   8.685   1.750  0.00  0.00     0.146 C 
HETATM  106  C   UNK N   1       1.797   8.365   2.546  0.00  0.00     0.042 C 
BRANCH 105 107
HETATM  107  O   UNK N   1       3.047  10.044   1.422  0.00  0.00    -0.393 OA
HETATM  108  H   UNK N   1       3.865  10.514   1.194  0.00  0.00     0.210 HD
ENDBRANCH 105 107
ENDBRANCH   1 105
BRANCH  22 109
HETATM  109  C   UNK N   1      -0.537   6.008  -0.157  0.00  0.00     0.035 C 
BRANCH 109 110
HETATM  110  C   UNK N   1      -0.653   6.663   1.215  0.00  0.00     0.004 C 
BRANCH 110 111
HETATM  111  C   UNK N   1      -1.678   7.780   1.210  0.00  0.00     0.019 C 
BRANCH 111 112
HETATM  112  C   UNK N   1      -1.015   9.111   0.903  0.00  0.00     0.111 C 
BRANCH 112 113
HETATM  113  N   UNK N   1      -1.037   9.361  -0.526  0.00  0.00    -0.430 N 
HETATM  114  H   UNK N   1      -0.893   9.462  -1.530  0.00  0.00     0.149 HD
HETATM  115  H   UNK N   1      -1.963   9.789  -0.526  0.00  0.00     0.149 HD
ENDBRANCH 112 113
ENDBRANCH 111 112
ENDBRANCH 110 111
ENDBRANCH 109 110
ENDBRANCH  22 109
TORSDOF 42
