MODEL 1
REMARK VINA RESULT:      -8.2      0.000      0.000
REMARK  11 active torsions:
REMARK  status: ('A' for Active; 'I' for Inactive)
REMARK    1  A    between atoms: C_2  and  C_3 
REMARK    2  A    between atoms: C_7  and  C_22 
REMARK    3  A    between atoms: C_7  and  C_55 
REMARK    4  A    between atoms: C_27  and  O_28 
REMARK    5  A    between atoms: C_37  and  C_52 
REMARK    6  A    between atoms: C_41  and  O_48 
REMARK    7  A    between atoms: C_42  and  C_43 
REMARK    8  A    between atoms: C_42  and  O_47 
REMARK    9  A    between atoms: C_43  and  O_45 
REMARK   10  A    between atoms: O_48  and  C_49 
REMARK   11  A    between atoms: C_55  and  O_57 
ROOT
HETATM    1  C   UNK N   1      33.744  15.221   7.511  0.00  0.00     0.000 C 
HETATM    2  C   UNK N   1      32.616  15.242   6.690  0.00  0.00     0.022 C 
HETATM    3  C   UNK N   1      31.750  16.307   6.756  0.00  0.00    -0.018 C 
HETATM    4  C   UNK N   1      31.887  17.281   7.699  0.00  0.00     0.040 C 
HETATM    5  C   UNK N   1      33.024  17.377   8.478  0.00  0.00     0.067 C 
HETATM    6  C   UNK N   1      34.004  16.366   8.364  0.00  0.00     0.078 C 
HETATM    7  N   UNK N   1      30.665  17.941   7.883  0.00  0.00    -0.375 N 
HETATM    8  C   UNK N   1      29.689  17.131   7.180  0.00  0.00     0.146 C 
HETATM    9  C   UNK N   1      30.470  16.490   6.036  0.00  0.00     0.047 C 
HETATM   10  C   UNK N   1      30.823  17.301   4.804  0.00  0.00     0.049 C 
HETATM   11  C   UNK N   1      31.156  16.202   3.775  0.00  0.00     0.274 C 
HETATM   12  N   UNK N   1      30.622  14.930   4.295  0.00  0.00     0.098 N 
HETATM   13  C   UNK N   1      29.789  15.306   5.452  0.00  0.00     0.253 C 
HETATM   14  C   UNK N   1      28.319  15.642   5.034  0.00  0.00     0.039 C 
HETATM   15  C   UNK N   1      27.823  14.306   4.543  0.00  0.00    -0.015 C 
HETATM   16  C   UNK N   1      28.581  13.619   3.671  0.00  0.00    -0.000 C 
HETATM   17  C   UNK N   1      29.915  14.191   3.226  0.00  0.00     0.300 C 
HETATM   18  C   UNK N   1      27.553  16.181   6.287  0.00  0.00     0.193 C 
HETATM   19  C   UNK N   1      28.188  17.406   7.058  0.00  0.00     0.194 C 
HETATM   20  C   UNK N   1      30.371  18.688   9.080  0.00  0.00     0.150 C 
ENDROOT
BRANCH   1  21
HETATM   21  C   UNK N   1      34.442  13.863   7.670  0.00  0.00     0.121 C 
HETATM   22  C   UNK N   1      33.722  12.811   6.828  0.00  0.00     0.041 C 
HETATM   23  C   UNK N   1      34.363  12.435   5.491  0.00  0.00     0.038 C 
HETATM   24  C   UNK N   1      33.283  12.023   4.572  0.00  0.00    -0.016 C 
HETATM   25  C   UNK N   1      35.301  11.249   5.676  0.00  0.00     0.281 C 
HETATM   26  C   UNK N   1      32.755  10.803   4.659  0.00  0.00    -0.056 C 
HETATM   27  C   UNK N   1      33.304   9.771   5.646  0.00  0.00     0.306 C 
HETATM   28  N   UNK N   1      34.601  10.106   6.293  0.00  0.00     0.093 N 
HETATM   29  C   UNK N   1      34.416  10.265   7.749  0.00  0.00     0.277 C 
HETATM   30  C   UNK N   1      35.613  10.948   8.444  0.00  0.00     0.072 C 
HETATM   31  C   UNK N   1      35.159  12.035   9.383  0.00  0.00    -0.020 A 
HETATM   32  C   UNK N   1      34.559  13.280   9.082  0.00  0.00     0.040 A 
HETATM   33  C   UNK N   1      35.358  12.046  10.737  0.00  0.00    -0.001 A 
HETATM   34  N   UNK N   1      34.347  13.983  10.222  0.00  0.00    -0.357 N 
HETATM   35  C   UNK N   1      34.855  13.223  11.221  0.00  0.00     0.043 A 
HETATM   36  H   UNK N   1      33.913  14.863  10.306  0.00  0.00     0.166 HD
HETATM   37  C   UNK N   1      34.969  13.573  12.562  0.00  0.00     0.030 A 
HETATM   38  C   UNK N   1      35.626  12.670  13.422  0.00  0.00     0.002 A 
HETATM   39  C   UNK N   1      36.142  11.453  12.924  0.00  0.00     0.001 A 
HETATM   40  C   UNK N   1      36.008  11.127  11.563  0.00  0.00     0.014 A 
BRANCH  26  41
HETATM   41  C   UNK N   1      31.603  10.454   3.771  0.00  0.00     0.031 C 
HETATM   42  C   UNK N   1      30.298  10.438   4.552  0.00  0.00     0.010 C 
ENDBRANCH  26  41
BRANCH  21  43
HETATM   43  C   UNK N   1      35.892  14.171   7.184  0.00  0.00     0.278 C 
HETATM   44  O   UNK N   1      36.042  14.801   6.148  0.00  0.00    -0.264 OA
BRANCH  43  45
HETATM   45  O   UNK N   1      37.016  13.881   7.900  0.00  0.00    -0.325 OA
HETATM   46  C   UNK N   1      38.199  13.437   7.351  0.00  0.00     0.213 C 
ENDBRANCH  43  45
ENDBRANCH  21  43
ENDBRANCH   1  21
BRANCH   6  47
HETATM   47  O   UNK N   1      35.120  16.444   9.127  0.00  0.00    -0.355 OA
HETATM   48  C   UNK N   1      35.206  17.188  10.285  0.00  0.00     0.210 C 
ENDBRANCH   6  47
BRANCH  19  49
HETATM   49  C   UNK N   1      27.967  18.782   6.484  0.00  0.00     0.298 C 
HETATM   50  O   UNK N   1      28.200  19.020   5.309  0.00  0.00    -0.262 OA
BRANCH  49  51
HETATM   51  O   UNK N   1      27.438  19.737   7.290  0.00  0.00    -0.324 OA
HETATM   52  C   UNK N   1      26.813  20.862   6.813  0.00  0.00     0.213 C 
ENDBRANCH  49  51
ENDBRANCH  19  49
BRANCH  19  53
HETATM   53  O   UNK N   1      27.641  17.405   8.343  0.00  0.00    -0.375 OA
HETATM   54  H   UNK N   1      27.640  16.955   9.203  0.00  0.00     0.211 HD
ENDBRANCH  19  53
BRANCH  14  55
HETATM   55  C   UNK N   1      28.220  16.660   3.865  0.00  0.00     0.014 C 
HETATM   56  C   UNK N   1      26.929  16.584   3.063  0.00  0.00     0.006 C 
ENDBRANCH  14  55
BRANCH  18  57
HETATM   57  O   UNK N   1      26.213  16.386   6.024  0.00  0.00    -0.311 OA
BRANCH  57  58
HETATM   58  C   UNK N   1      25.235  15.560   6.468  0.00  0.00     0.255 C 
HETATM   59  O   UNK N   1      24.085  15.678   6.074  0.00  0.00    -0.266 OA
HETATM   60  C   UNK N   1      25.563  14.521   7.481  0.00  0.00     0.126 C 
ENDBRANCH  57  58
ENDBRANCH  18  57
TORSDOF 11
ENDMDL
MODEL 2
REMARK VINA RESULT:      -8.0      1.652      4.357
REMARK  11 active torsions:
REMARK  status: ('A' for Active; 'I' for Inactive)
REMARK    1  A    between atoms: C_2  and  C_3 
REMARK    2  A    between atoms: C_7  and  C_22 
REMARK    3  A    between atoms: C_7  and  C_55 
REMARK    4  A    between atoms: C_27  and  O_28 
REMARK    5  A    between atoms: C_37  and  C_52 
REMARK    6  A    between atoms: C_41  and  O_48 
REMARK    7  A    between atoms: C_42  and  C_43 
REMARK    8  A    between atoms: C_42  and  O_47 
REMARK    9  A    between atoms: C_43  and  O_45 
REMARK   10  A    between atoms: O_48  and  C_49 
REMARK   11  A    between atoms: C_55  and  O_57 
ROOT
HETATM    1  C   UNK N   1      34.000  15.266   7.800  0.00  0.00     0.000 C 
HETATM    2  C   UNK N   1      32.888  15.219   6.957  0.00  0.00     0.022 C 
HETATM    3  C   UNK N   1      31.994  16.262   6.956  0.00  0.00    -0.018 C 
HETATM    4  C   UNK N   1      32.088  17.283   7.853  0.00  0.00     0.040 C 
HETATM    5  C   UNK N   1      33.207  17.446   8.648  0.00  0.00     0.067 C 
HETATM    6  C   UNK N   1      34.215  16.458   8.600  0.00  0.00     0.078 C 
HETATM    7  N   UNK N   1      30.847  17.920   7.982  0.00  0.00    -0.375 N 
HETATM    8  C   UNK N   1      29.905  17.051   7.301  0.00  0.00     0.146 C 
HETATM    9  C   UNK N   1      30.725  16.377   6.205  0.00  0.00     0.047 C 
HETATM   10  C   UNK N   1      31.082  17.137   4.942  0.00  0.00     0.049 C 
HETATM   11  C   UNK N   1      31.462  15.999   3.973  0.00  0.00     0.274 C 
HETATM   12  N   UNK N   1      30.951  14.740   4.544  0.00  0.00     0.098 N 
HETATM   13  C   UNK N   1      30.086  15.149   5.666  0.00  0.00     0.253 C 
HETATM   14  C   UNK N   1      28.616  15.426   5.205  0.00  0.00     0.039 C 
HETATM   15  C   UNK N   1      28.163  14.056   4.770  0.00  0.00    -0.015 C 
HETATM   16  C   UNK N   1      28.956  13.348   3.947  0.00  0.00    -0.000 C 
HETATM   17  C   UNK N   1      30.283  13.932   3.499  0.00  0.00     0.300 C 
HETATM   18  C   UNK N   1      27.812  16.005   6.417  0.00  0.00     0.193 C 
HETATM   19  C   UNK N   1      28.401  17.281   7.139  0.00  0.00     0.194 C 
HETATM   20  C   UNK N   1      30.510  18.715   9.136  0.00  0.00     0.150 C 
ENDROOT
BRANCH   1  21
HETATM   21  C   UNK N   1      34.729  13.936   8.036  0.00  0.00     0.121 C 
HETATM   22  C   UNK N   1      35.350  13.929   9.432  0.00  0.00     0.041 C 
HETATM   23  C   UNK N   1      34.604  13.152  10.519  0.00  0.00     0.038 C 
HETATM   24  C   UNK N   1      34.894  13.797  11.815  0.00  0.00    -0.016 C 
HETATM   25  C   UNK N   1      35.116  11.719  10.581  0.00  0.00     0.281 C 
HETATM   26  C   UNK N   1      36.047  13.560  12.440  0.00  0.00    -0.056 C 
HETATM   27  C   UNK N   1      37.058  12.556  11.883  0.00  0.00     0.306 C 
HETATM   28  N   UNK N   1      36.577  11.681  10.781  0.00  0.00     0.093 N 
HETATM   29  C   UNK N   1      37.332  11.960   9.544  0.00  0.00     0.277 C 
HETATM   30  C   UNK N   1      36.676  11.363   8.282  0.00  0.00     0.072 C 
HETATM   31  C   UNK N   1      36.618  12.369   7.161  0.00  0.00    -0.020 A 
HETATM   32  C   UNK N   1      35.848  13.551   7.062  0.00  0.00     0.040 A 
HETATM   33  C   UNK N   1      37.248  12.244   5.953  0.00  0.00    -0.001 A 
HETATM   34  N   UNK N   1      36.061  14.148   5.863  0.00  0.00    -0.357 N 
HETATM   35  C   UNK N   1      36.905  13.329   5.191  0.00  0.00     0.043 A 
HETATM   36  H   UNK N   1      35.680  15.000   5.548  0.00  0.00     0.166 HD
HETATM   37  C   UNK N   1      37.325  13.464   3.874  0.00  0.00     0.030 A 
HETATM   38  C   UNK N   1      38.128  12.438   3.333  0.00  0.00     0.002 A 
HETATM   39  C   UNK N   1      38.487  11.320   4.119  0.00  0.00     0.001 A 
HETATM   40  C   UNK N   1      38.046  11.215   5.450  0.00  0.00     0.014 A 
BRANCH  26  41
HETATM   41  C   UNK N   1      36.343  14.301  13.705  0.00  0.00     0.031 C 
HETATM   42  C   UNK N   1      36.688  13.340  14.833  0.00  0.00     0.010 C 
ENDBRANCH  26  41
BRANCH  21  43
HETATM   43  C   UNK N   1      33.587  12.890   7.851  0.00  0.00     0.278 C 
HETATM   44  O   UNK N   1      32.617  12.942   8.593  0.00  0.00    -0.264 OA
BRANCH  43  45
HETATM   45  O   UNK N   1      33.541  11.978   6.837  0.00  0.00    -0.325 OA
HETATM   46  C   UNK N   1      33.240  10.644   6.999  0.00  0.00     0.213 C 
ENDBRANCH  43  45
ENDBRANCH  21  43
ENDBRANCH   1  21
BRANCH   6  47
HETATM   47  O   UNK N   1      35.313  16.601   9.379  0.00  0.00    -0.355 OA
HETATM   48  C   UNK N   1      35.285  17.127  10.654  0.00  0.00     0.210 C 
ENDBRANCH   6  47
BRANCH  19  49
HETATM   49  C   UNK N   1      28.156  18.621   6.495  0.00  0.00     0.298 C 
HETATM   50  O   UNK N   1      28.342  18.790   5.300  0.00  0.00    -0.262 OA
BRANCH  49  51
HETATM   51  O   UNK N   1      27.660  19.623   7.264  0.00  0.00    -0.324 OA
HETATM   52  C   UNK N   1      26.962  20.688   6.753  0.00  0.00     0.213 C 
ENDBRANCH  49  51
ENDBRANCH  19  49
BRANCH  19  53
HETATM   53  O   UNK N   1      27.829  17.327   8.411  0.00  0.00    -0.375 OA
HETATM   54  H   UNK N   1      27.291  17.859   9.019  0.00  0.00     0.211 HD
ENDBRANCH  19  53
BRANCH  14  55
HETATM   55  C   UNK N   1      28.514  16.384   3.987  0.00  0.00     0.014 C 
HETATM   56  C   UNK N   1      27.276  16.188   3.124  0.00  0.00     0.006 C 
ENDBRANCH  14  55
BRANCH  18  57
HETATM   57  O   UNK N   1      26.473  16.162   6.119  0.00  0.00    -0.311 OA
BRANCH  57  58
HETATM   58  C   UNK N   1      25.495  15.413   6.684  0.00  0.00     0.255 C 
HETATM   59  O   UNK N   1      25.740  14.647   7.604  0.00  0.00    -0.266 OA
HETATM   60  C   UNK N   1      24.110  15.496   6.145  0.00  0.00     0.126 C 
ENDBRANCH  57  58
ENDBRANCH  18  57
TORSDOF 11
ENDMDL
MODEL 3
REMARK VINA RESULT:      -7.7      4.363     10.297
REMARK  11 active torsions:
REMARK  status: ('A' for Active; 'I' for Inactive)
REMARK    1  A    between atoms: C_2  and  C_3 
REMARK    2  A    between atoms: C_7  and  C_22 
REMARK    3  A    between atoms: C_7  and  C_55 
REMARK    4  A    between atoms: C_27  and  O_28 
REMARK    5  A    between atoms: C_37  and  C_52 
REMARK    6  A    between atoms: C_41  and  O_48 
REMARK    7  A    between atoms: C_42  and  C_43 
REMARK    8  A    between atoms: C_42  and  O_47 
REMARK    9  A    between atoms: C_43  and  O_45 
REMARK   10  A    between atoms: O_48  and  C_49 
REMARK   11  A    between atoms: C_55  and  O_57 
ROOT
HETATM    1  C   UNK N   1      24.693  13.036   4.933  0.00  0.00     0.000 C 
HETATM    2  C   UNK N   1      25.669  13.988   4.635  0.00  0.00     0.022 C 
HETATM    3  C   UNK N   1      26.931  13.576   4.281  0.00  0.00    -0.018 C 
HETATM    4  C   UNK N   1      27.297  12.266   4.343  0.00  0.00     0.040 C 
HETATM    5  C   UNK N   1      26.366  11.263   4.536  0.00  0.00     0.067 C 
HETATM    6  C   UNK N   1      25.026  11.631   4.789  0.00  0.00     0.078 C 
HETATM    7  N   UNK N   1      28.692  12.164   4.425  0.00  0.00    -0.375 N 
HETATM    8  C   UNK N   1      29.155  13.516   4.679  0.00  0.00     0.146 C 
HETATM    9  C   UNK N   1      28.120  14.411   4.002  0.00  0.00     0.047 C 
HETATM   10  C   UNK N   1      28.133  14.589   2.496  0.00  0.00     0.049 C 
HETATM   11  C   UNK N   1      27.289  15.867   2.311  0.00  0.00     0.274 C 
HETATM   12  N   UNK N   1      27.194  16.530   3.624  0.00  0.00     0.098 N 
HETATM   13  C   UNK N   1      28.152  15.815   4.488  0.00  0.00     0.253 C 
HETATM   14  C   UNK N   1      29.594  16.418   4.392  0.00  0.00     0.039 C 
HETATM   15  C   UNK N   1      29.396  17.789   4.987  0.00  0.00    -0.015 C 
HETATM   16  C   UNK N   1      28.372  18.540   4.546  0.00  0.00    -0.000 C 
HETATM   17  C   UNK N   1      27.436  17.983   3.488  0.00  0.00     0.300 C 
HETATM   18  C   UNK N   1      30.572  15.509   5.208  0.00  0.00     0.193 C 
HETATM   19  C   UNK N   1      30.606  13.970   4.849  0.00  0.00     0.194 C 
HETATM   20  C   UNK N   1      29.347  10.987   4.938  0.00  0.00     0.150 C 
ENDROOT
BRANCH   1  21
HETATM   21  C   UNK N   1      23.453  13.547   5.680  0.00  0.00     0.121 C 
HETATM   22  C   UNK N   1      23.272  15.042   5.418  0.00  0.00     0.041 C 
HETATM   23  C   UNK N   1      22.214  15.442   4.388  0.00  0.00     0.038 C 
HETATM   24  C   UNK N   1      22.641  16.714   3.772  0.00  0.00    -0.016 C 
HETATM   25  C   UNK N   1      20.877  15.679   5.077  0.00  0.00     0.281 C 
HETATM   26  C   UNK N   1      22.452  17.867   4.412  0.00  0.00    -0.056 C 
HETATM   27  C   UNK N   1      21.715  17.918   5.751  0.00  0.00     0.306 C 
HETATM   28  N   UNK N   1      21.001  16.678   6.156  0.00  0.00     0.093 N 
HETATM   29  C   UNK N   1      21.605  16.123   7.384  0.00  0.00     0.277 C 
HETATM   30  C   UNK N   1      21.168  14.672   7.675  0.00  0.00     0.072 C 
HETATM   31  C   UNK N   1      22.346  13.800   8.025  0.00  0.00    -0.020 A 
HETATM   32  C   UNK N   1      23.410  13.367   7.201  0.00  0.00     0.040 A 
HETATM   33  C   UNK N   1      22.533  13.167   9.224  0.00  0.00    -0.001 A 
HETATM   34  N   UNK N   1      24.242  12.555   7.901  0.00  0.00    -0.357 N 
HETATM   35  C   UNK N   1      23.683  12.430   9.129  0.00  0.00     0.043 A 
HETATM   36  H   UNK N   1      25.077  12.144   7.582  0.00  0.00     0.166 HD
HETATM   37  C   UNK N   1      24.115  11.607  10.162  0.00  0.00     0.030 A 
HETATM   38  C   UNK N   1      23.326  11.550  11.329  0.00  0.00     0.002 A 
HETATM   39  C   UNK N   1      22.141  12.313  11.430  0.00  0.00     0.001 A 
HETATM   40  C   UNK N   1      21.733  13.138  10.367  0.00  0.00     0.014 A 
BRANCH  26  41
HETATM   41  C   UNK N   1      22.979  19.125   3.796  0.00  0.00     0.031 C 
HETATM   42  C   UNK N   1      21.879  19.877   3.063  0.00  0.00     0.010 C 
ENDBRANCH  26  41
BRANCH  21  43
HETATM   43  C   UNK N   1      22.314  12.663   5.086  0.00  0.00     0.278 C 
HETATM   44  O   UNK N   1      21.611  12.020   5.852  0.00  0.00    -0.264 OA
BRANCH  43  45
HETATM   45  O   UNK N   1      21.971  12.641   3.766  0.00  0.00    -0.325 OA
HETATM   46  C   UNK N   1      21.007  11.820   3.223  0.00  0.00     0.213 C 
ENDBRANCH  43  45
ENDBRANCH  21  43
ENDBRANCH   1  21
BRANCH   6  47
HETATM   47  O   UNK N   1      24.104  10.659   4.987  0.00  0.00    -0.355 OA
HETATM   48  C   UNK N   1      24.324   9.541   5.763  0.00  0.00     0.210 C 
ENDBRANCH   6  47
BRANCH  19  49
HETATM   49  C   UNK N   1      31.415  13.553   3.648  0.00  0.00     0.298 C 
HETATM   50  O   UNK N   1      30.873  13.221   2.605  0.00  0.00    -0.262 OA
BRANCH  49  51
HETATM   51  O   UNK N   1      32.768  13.618   3.731  0.00  0.00    -0.324 OA
HETATM   52  C   UNK N   1      33.565  14.051   2.701  0.00  0.00     0.213 C 
ENDBRANCH  49  51
ENDBRANCH  19  49
BRANCH  19  53
HETATM   53  O   UNK N   1      31.142  13.307   5.954  0.00  0.00    -0.375 OA
HETATM   54  H   UNK N   1      31.109  13.224   6.921  0.00  0.00     0.211 HD
ENDBRANCH  19  53
BRANCH  14  55
HETATM   55  C   UNK N   1      30.105  16.586   2.936  0.00  0.00     0.014 C 
HETATM   56  C   UNK N   1      31.499  17.185   2.816  0.00  0.00     0.006 C 
ENDBRANCH  14  55
BRANCH  18  57
HETATM   57  O   UNK N   1      31.842  16.044   5.271  0.00  0.00    -0.311 OA
BRANCH  57  58
HETATM   58  C   UNK N   1      32.446  16.388   6.434  0.00  0.00     0.255 C 
HETATM   59  O   UNK N   1      32.222  15.772   7.465  0.00  0.00    -0.266 OA
HETATM   60  C   UNK N   1      33.363  17.560   6.462  0.00  0.00     0.126 C 
ENDBRANCH  57  58
ENDBRANCH  18  57
TORSDOF 11
ENDMDL
MODEL 4
REMARK VINA RESULT:      -7.0      3.741     10.321
REMARK  11 active torsions:
REMARK  status: ('A' for Active; 'I' for Inactive)
REMARK    1  A    between atoms: C_2  and  C_3 
REMARK    2  A    between atoms: C_7  and  C_22 
REMARK    3  A    between atoms: C_7  and  C_55 
REMARK    4  A    between atoms: C_27  and  O_28 
REMARK    5  A    between atoms: C_37  and  C_52 
REMARK    6  A    between atoms: C_41  and  O_48 
REMARK    7  A    between atoms: C_42  and  C_43 
REMARK    8  A    between atoms: C_42  and  O_47 
REMARK    9  A    between atoms: C_43  and  O_45 
REMARK   10  A    between atoms: O_48  and  C_49 
REMARK   11  A    between atoms: C_55  and  O_57 
ROOT
HETATM    1  C   UNK N   1      26.355  13.522   2.648  0.00  0.00     0.000 C 
HETATM    2  C   UNK N   1      27.325  14.314   3.263  0.00  0.00     0.022 C 
HETATM    3  C   UNK N   1      28.645  13.936   3.205  0.00  0.00    -0.018 C 
HETATM    4  C   UNK N   1      29.021  12.738   2.679  0.00  0.00     0.040 C 
HETATM    5  C   UNK N   1      28.135  11.949   1.971  0.00  0.00     0.067 C 
HETATM    6  C   UNK N   1      26.784  12.354   1.900  0.00  0.00     0.078 C 
HETATM    7  N   UNK N   1      30.284  12.378   3.169  0.00  0.00    -0.375 N 
HETATM    8  C   UNK N   1      30.551  13.311   4.247  0.00  0.00     0.146 C 
HETATM    9  C   UNK N   1      29.810  14.585   3.847  0.00  0.00     0.047 C 
HETATM   10  C   UNK N   1      30.386  15.501   2.784  0.00  0.00     0.049 C 
HETATM   11  C   UNK N   1      29.617  16.814   3.034  0.00  0.00     0.274 C 
HETATM   12  N   UNK N   1      28.999  16.720   4.369  0.00  0.00     0.098 N 
HETATM   13  C   UNK N   1      29.589  15.516   4.983  0.00  0.00     0.253 C 
HETATM   14  C   UNK N   1      30.928  15.833   5.729  0.00  0.00     0.039 C 
HETATM   15  C   UNK N   1      30.455  16.720   6.853  0.00  0.00    -0.015 C 
HETATM   16  C   UNK N   1      29.641  17.749   6.561  0.00  0.00    -0.000 C 
HETATM   17  C   UNK N   1      29.206  17.975   5.124  0.00  0.00     0.300 C 
HETATM   18  C   UNK N   1      31.564  14.486   6.210  0.00  0.00     0.193 C 
HETATM   19  C   UNK N   1      31.805  13.365   5.121  0.00  0.00     0.194 C 
HETATM   20  C   UNK N   1      30.749  11.014   3.161  0.00  0.00     0.150 C 
ENDROOT
BRANCH   1  21
HETATM   21  C   UNK N   1      24.902  13.779   3.070  0.00  0.00     0.121 C 
HETATM   22  C   UNK N   1      24.809  15.109   3.816  0.00  0.00     0.041 C 
HETATM   23  C   UNK N   1      24.279  16.309   3.030  0.00  0.00     0.038 C 
HETATM   24  C   UNK N   1      24.893  17.527   3.596  0.00  0.00    -0.016 C 
HETATM   25  C   UNK N   1      22.769  16.421   3.200  0.00  0.00     0.281 C 
HETATM   26  C   UNK N   1      24.417  18.058   4.722  0.00  0.00    -0.056 C 
HETATM   27  C   UNK N   1      23.179  17.479   5.409  0.00  0.00     0.306 C 
HETATM   28  N   UNK N   1      22.396  16.488   4.626  0.00  0.00     0.093 N 
HETATM   29  C   UNK N   1      22.434  15.170   5.290  0.00  0.00     0.277 C 
HETATM   30  C   UNK N   1      21.955  14.016   4.385  0.00  0.00     0.072 C 
HETATM   31  C   UNK N   1      22.896  12.841   4.443  0.00  0.00    -0.020 A 
HETATM   32  C   UNK N   1      24.221  12.734   3.961  0.00  0.00     0.040 A 
HETATM   33  C   UNK N   1      22.573  11.591   4.896  0.00  0.00    -0.001 A 
HETATM   34  N   UNK N   1      24.698  11.484   4.178  0.00  0.00    -0.357 N 
HETATM   35  C   UNK N   1      23.674  10.793   4.735  0.00  0.00     0.043 A 
HETATM   36  H   UNK N   1      25.600  11.148   3.974  0.00  0.00     0.166 HD
HETATM   37  C   UNK N   1      23.647   9.436   5.034  0.00  0.00     0.030 A 
HETATM   38  C   UNK N   1      22.438   8.894   5.516  0.00  0.00     0.002 A 
HETATM   39  C   UNK N   1      21.302   9.717   5.688  0.00  0.00     0.001 A 
HETATM   40  C   UNK N   1      21.363  11.087   5.378  0.00  0.00     0.014 A 
BRANCH  26  41
HETATM   41  C   UNK N   1      25.122  19.238   5.312  0.00  0.00     0.031 C 
HETATM   42  C   UNK N   1      26.029  19.901   4.287  0.00  0.00     0.010 C 
ENDBRANCH  26  41
BRANCH  21  43
HETATM   43  C   UNK N   1      24.148  13.770   1.704  0.00  0.00     0.278 C 
HETATM   44  O   UNK N   1      24.528  14.524   0.820  0.00  0.00    -0.264 OA
BRANCH  43  45
HETATM   45  O   UNK N   1      23.154  12.893   1.385  0.00  0.00    -0.325 OA
HETATM   46  C   UNK N   1      22.712  12.646   0.103  0.00  0.00     0.213 C 
ENDBRANCH  43  45
ENDBRANCH  21  43
ENDBRANCH   1  21
BRANCH   6  47
HETATM   47  O   UNK N   1      25.903  11.587   1.216  0.00  0.00    -0.355 OA
HETATM   48  C   UNK N   1      26.050  10.228   1.034  0.00  0.00     0.210 C 
ENDBRANCH   6  47
BRANCH  19  49
HETATM   49  C   UNK N   1      33.029  13.491   4.251  0.00  0.00     0.298 C 
HETATM   50  O   UNK N   1      32.951  13.924   3.112  0.00  0.00    -0.262 OA
BRANCH  49  51
HETATM   51  O   UNK N   1      34.234  13.172   4.787  0.00  0.00    -0.324 OA
HETATM   52  C   UNK N   1      35.263  14.072   4.914  0.00  0.00     0.213 C 
ENDBRANCH  49  51
ENDBRANCH  19  49
BRANCH  19  53
HETATM   53  O   UNK N   1      31.911  12.153   5.805  0.00  0.00    -0.375 OA
HETATM   54  H   UNK N   1      32.384  11.307   5.848  0.00  0.00     0.211 HD
ENDBRANCH  19  53
BRANCH  14  55
HETATM   55  C   UNK N   1      31.947  16.632   4.872  0.00  0.00     0.014 C 
HETATM   56  C   UNK N   1      32.978  17.415   5.672  0.00  0.00     0.006 C 
ENDBRANCH  14  55
BRANCH  18  57
HETATM   57  O   UNK N   1      32.689  14.694   6.982  0.00  0.00    -0.311 OA
BRANCH  57  58
HETATM   58  C   UNK N   1      32.790  14.286   8.271  0.00  0.00     0.255 C 
HETATM   59  O   UNK N   1      32.656  13.109   8.570  0.00  0.00    -0.266 OA
HETATM   60  C   UNK N   1      33.026  15.294   9.339  0.00  0.00     0.126 C 
ENDBRANCH  57  58
ENDBRANCH  18  57
TORSDOF 11
ENDMDL
MODEL 5
REMARK VINA RESULT:      -6.9      3.490     10.145
REMARK  11 active torsions:
REMARK  status: ('A' for Active; 'I' for Inactive)
REMARK    1  A    between atoms: C_2  and  C_3 
REMARK    2  A    between atoms: C_7  and  C_22 
REMARK    3  A    between atoms: C_7  and  C_55 
REMARK    4  A    between atoms: C_27  and  O_28 
REMARK    5  A    between atoms: C_37  and  C_52 
REMARK    6  A    between atoms: C_41  and  O_48 
REMARK    7  A    between atoms: C_42  and  C_43 
REMARK    8  A    between atoms: C_42  and  O_47 
REMARK    9  A    between atoms: C_43  and  O_45 
REMARK   10  A    between atoms: O_48  and  C_49 
REMARK   11  A    between atoms: C_55  and  O_57 
ROOT
HETATM    1  C   UNK N   1      34.435  13.540   9.730  0.00  0.00     0.000 C 
HETATM    2  C   UNK N   1      34.682  12.311  10.344  0.00  0.00     0.022 C 
HETATM    3  C   UNK N   1      34.991  12.273  11.683  0.00  0.00    -0.018 C 
HETATM    4  C   UNK N   1      35.196  13.412  12.400  0.00  0.00     0.040 C 
HETATM    5  C   UNK N   1      34.878  14.656  11.888  0.00  0.00     0.067 C 
HETATM    6  C   UNK N   1      34.442  14.739  10.548  0.00  0.00     0.078 C 
HETATM    7  N   UNK N   1      35.956  13.126  13.542  0.00  0.00    -0.375 N 
HETATM    8  C   UNK N   1      36.437  11.771  13.345  0.00  0.00     0.146 C 
HETATM    9  C   UNK N   1      35.358  11.097  12.502  0.00  0.00     0.047 C 
HETATM   10  C   UNK N   1      34.061  10.643  13.144  0.00  0.00     0.049 C 
HETATM   11  C   UNK N   1      33.512   9.648  12.101  0.00  0.00     0.274 C 
HETATM   12  N   UNK N   1      34.621   9.298  11.194  0.00  0.00     0.098 N 
HETATM   13  C   UNK N   1      35.829   9.859  11.828  0.00  0.00     0.253 C 
HETATM   14  C   UNK N   1      36.474   8.864  12.849  0.00  0.00     0.039 C 
HETATM   15  C   UNK N   1      36.925   7.744  11.947  0.00  0.00    -0.015 C 
HETATM   16  C   UNK N   1      36.052   7.247  11.053  0.00  0.00    -0.000 C 
HETATM   17  C   UNK N   1      34.657   7.837  10.961  0.00  0.00     0.300 C 
HETATM   18  C   UNK N   1      37.646   9.594  13.586  0.00  0.00     0.193 C 
HETATM   19  C   UNK N   1      37.315  10.963  14.303  0.00  0.00     0.194 C 
HETATM   20  C   UNK N   1      36.698  14.142  14.244  0.00  0.00     0.150 C 
ENDROOT
BRANCH   1  21
HETATM   21  C   UNK N   1      34.481  13.553   8.196  0.00  0.00     0.121 C 
HETATM   22  C   UNK N   1      35.890  13.908   7.724  0.00  0.00     0.041 C 
HETATM   23  C   UNK N   1      36.776  12.752   7.255  0.00  0.00     0.038 C 
HETATM   24  C   UNK N   1      38.180  13.122   7.522  0.00  0.00    -0.016 C 
HETATM   25  C   UNK N   1      36.620  12.550   5.753  0.00  0.00     0.281 C 
HETATM   26  C   UNK N   1      38.825  13.948   6.699  0.00  0.00    -0.056 C 
HETATM   27  C   UNK N   1      38.167  14.464   5.418  0.00  0.00     0.306 C 
HETATM   28  N   UNK N   1      36.901  13.796   5.014  0.00  0.00     0.093 N 
HETATM   29  C   UNK N   1      35.782  14.757   5.063  0.00  0.00     0.277 C 
HETATM   30  C   UNK N   1      34.396  14.081   5.005  0.00  0.00     0.072 C 
HETATM   31  C   UNK N   1      33.466  14.635   6.054  0.00  0.00    -0.020 A 
HETATM   32  C   UNK N   1      33.527  14.500   7.460  0.00  0.00     0.040 A 
HETATM   33  C   UNK N   1      32.296  15.299   5.803  0.00  0.00    -0.001 A 
HETATM   34  N   UNK N   1      32.466  15.120   8.034  0.00  0.00    -0.357 N 
HETATM   35  C   UNK N   1      31.716  15.588   7.008  0.00  0.00     0.043 A 
HETATM   36  H   UNK N   1      32.281  15.210   8.997  0.00  0.00     0.166 HD
HETATM   37  C   UNK N   1      30.471  16.199   7.096  0.00  0.00     0.030 A 
HETATM   38  C   UNK N   1      29.812  16.520   5.892  0.00  0.00     0.002 A 
HETATM   39  C   UNK N   1      30.411  16.227   4.647  0.00  0.00     0.001 A 
HETATM   40  C   UNK N   1      31.673  15.610   4.592  0.00  0.00     0.014 A 
BRANCH  26  41
HETATM   41  C   UNK N   1      40.217  14.370   7.051  0.00  0.00     0.031 C 
HETATM   42  C   UNK N   1      41.221  13.842   6.037  0.00  0.00     0.010 C 
ENDBRANCH  26  41
BRANCH  21  43
HETATM   43  C   UNK N   1      34.045  12.100   7.834  0.00  0.00     0.278 C 
HETATM   44  O   UNK N   1      32.925  11.920   7.378  0.00  0.00    -0.264 OA
BRANCH  43  45
HETATM   45  O   UNK N   1      34.872  11.016   7.888  0.00  0.00    -0.325 OA
HETATM   46  C   UNK N   1      34.498   9.731   7.561  0.00  0.00     0.213 C 
ENDBRANCH  43  45
ENDBRANCH  21  43
ENDBRANCH   1  21
BRANCH   6  47
HETATM   47  O   UNK N   1      34.134  15.952  10.032  0.00  0.00    -0.355 OA
HETATM   48  C   UNK N   1      35.035  16.991   9.926  0.00  0.00     0.210 C 
ENDBRANCH   6  47
BRANCH  19  49
HETATM   49  C   UNK N   1      36.663  10.899  15.661  0.00  0.00     0.298 C 
HETATM   50  O   UNK N   1      37.093  10.160  16.532  0.00  0.00    -0.262 OA
BRANCH  49  51
HETATM   51  O   UNK N   1      35.623  11.733  15.914  0.00  0.00    -0.324 OA
HETATM   52  C   UNK N   1      35.239  12.091  17.182  0.00  0.00     0.213 C 
ENDBRANCH  49  51
ENDBRANCH  19  49
BRANCH  19  53
HETATM   53  O   UNK N   1      38.525  11.642  14.461  0.00  0.00    -0.375 OA
HETATM   54  H   UNK N   1      39.034  12.424  14.197  0.00  0.00     0.211 HD
ENDBRANCH  19  53
BRANCH  14  55
HETATM   55  C   UNK N   1      35.467   8.287  13.880  0.00  0.00     0.014 C 
HETATM   56  C   UNK N   1      35.876   6.955  14.493  0.00  0.00     0.006 C 
ENDBRANCH  14  55
BRANCH  18  57
HETATM   57  O   UNK N   1      38.343   8.741  14.418  0.00  0.00    -0.311 OA
BRANCH  57  58
HETATM   58  C   UNK N   1      39.689   8.591  14.368  0.00  0.00     0.255 C 
HETATM   59  O   UNK N   1      40.426   9.310  15.026  0.00  0.00    -0.266 OA
HETATM   60  C   UNK N   1      40.275   7.563  13.466  0.00  0.00     0.126 C 
ENDBRANCH  57  58
ENDBRANCH  18  57
TORSDOF 11
ENDMDL
MODEL 6
REMARK VINA RESULT:      -6.7      1.588      2.210
REMARK  11 active torsions:
REMARK  status: ('A' for Active; 'I' for Inactive)
REMARK    1  A    between atoms: C_2  and  C_3 
REMARK    2  A    between atoms: C_7  and  C_22 
REMARK    3  A    between atoms: C_7  and  C_55 
REMARK    4  A    between atoms: C_27  and  O_28 
REMARK    5  A    between atoms: C_37  and  C_52 
REMARK    6  A    between atoms: C_41  and  O_48 
REMARK    7  A    between atoms: C_42  and  C_43 
REMARK    8  A    between atoms: C_42  and  O_47 
REMARK    9  A    between atoms: C_43  and  O_45 
REMARK   10  A    between atoms: O_48  and  C_49 
REMARK   11  A    between atoms: C_55  and  O_57 
ROOT
HETATM    1  C   UNK N   1      32.485  14.934   5.833  0.00  0.00     0.000 C 
HETATM    2  C   UNK N   1      31.294  14.706   5.141  0.00  0.00     0.022 C 
HETATM    3  C   UNK N   1      30.346  15.698   5.081  0.00  0.00    -0.018 C 
HETATM    4  C   UNK N   1      30.475  16.853   5.791  0.00  0.00     0.040 C 
HETATM    5  C   UNK N   1      31.661  17.187   6.418  0.00  0.00     0.067 C 
HETATM    6  C   UNK N   1      32.714  16.246   6.409  0.00  0.00     0.078 C 
HETATM    7  N   UNK N   1      29.220  17.451   5.962  0.00  0.00    -0.375 N 
HETATM    8  C   UNK N   1      28.263  16.447   5.537  0.00  0.00     0.146 C 
HETATM    9  C   UNK N   1      28.999  15.639   4.471  0.00  0.00     0.047 C 
HETATM   10  C   UNK N   1      29.174  16.200   3.073  0.00  0.00     0.049 C 
HETATM   11  C   UNK N   1      29.514  14.938   2.255  0.00  0.00     0.274 C 
HETATM   12  N   UNK N   1      29.141  13.767   3.070  0.00  0.00     0.098 N 
HETATM   13  C   UNK N   1      28.379  14.315   4.207  0.00  0.00     0.253 C 
HETATM   14  C   UNK N   1      26.854  14.455   3.880  0.00  0.00     0.039 C 
HETATM   15  C   UNK N   1      26.439  13.015   3.718  0.00  0.00    -0.015 C 
HETATM   16  C   UNK N   1      27.179  12.217   2.929  0.00  0.00    -0.000 C 
HETATM   17  C   UNK N   1      28.415  12.775   2.247  0.00  0.00     0.300 C 
HETATM   18  C   UNK N   1      26.152  15.187   5.071  0.00  0.00     0.193 C 
HETATM   19  C   UNK N   1      26.739  16.586   5.515  0.00  0.00     0.194 C 
HETATM   20  C   UNK N   1      28.962  18.406   7.010  0.00  0.00     0.150 C 
ENDROOT
BRANCH   1  21
HETATM   21  C   UNK N   1      33.311  13.690   6.188  0.00  0.00     0.121 C 
HETATM   22  C   UNK N   1      32.598  12.435   5.686  0.00  0.00     0.041 C 
HETATM   23  C   UNK N   1      33.121  11.813   4.390  0.00  0.00     0.038 C 
HETATM   24  C   UNK N   1      31.988  11.143   3.721  0.00  0.00    -0.016 C 
HETATM   25  C   UNK N   1      34.173  10.757   4.704  0.00  0.00     0.281 C 
HETATM   26  C   UNK N   1      31.581   9.942   4.131  0.00  0.00    -0.056 C 
HETATM   27  C   UNK N   1      32.321   9.190   5.238  0.00  0.00     0.306 C 
HETATM   28  N   UNK N   1      33.647   9.738   5.632  0.00  0.00     0.093 N 
HETATM   29  C   UNK N   1      33.608  10.204   7.032  0.00  0.00     0.277 C 
HETATM   30  C   UNK N   1      34.808  11.095   7.412  0.00  0.00     0.072 C 
HETATM   31  C   UNK N   1      34.366  12.334   8.147  0.00  0.00    -0.020 A 
HETATM   32  C   UNK N   1      33.632  13.442   7.666  0.00  0.00     0.040 A 
HETATM   33  C   UNK N   1      34.710  12.656   9.432  0.00  0.00    -0.001 A 
HETATM   34  N   UNK N   1      33.484  14.366   8.648  0.00  0.00    -0.357 N 
HETATM   35  C   UNK N   1      34.162  13.878   9.714  0.00  0.00     0.043 A 
HETATM   36  H   UNK N   1      32.986  15.214   8.596  0.00  0.00     0.166 HD
HETATM   37  C   UNK N   1      34.389  14.523  10.925  0.00  0.00     0.030 A 
HETATM   38  C   UNK N   1      35.212  13.875  11.868  0.00  0.00     0.002 A 
HETATM   39  C   UNK N   1      35.775  12.611  11.580  0.00  0.00     0.001 A 
HETATM   40  C   UNK N   1      35.523  11.985  10.347  0.00  0.00     0.014 A 
BRANCH  26  41
HETATM   41  C   UNK N   1      30.374   9.335   3.489  0.00  0.00     0.031 C 
HETATM   42  C   UNK N   1      30.343   9.630   1.997  0.00  0.00     0.010 C 
ENDBRANCH  26  41
BRANCH  21  43
HETATM   43  C   UNK N   1      34.668  13.971   5.471  0.00  0.00     0.278 C 
HETATM   44  O   UNK N   1      34.657  14.593   4.419  0.00  0.00    -0.264 OA
BRANCH  43  45
HETATM   45  O   UNK N   1      35.889  13.666   5.997  0.00  0.00    -0.325 OA
HETATM   46  C   UNK N   1      36.921  14.565   6.151  0.00  0.00     0.213 C 
ENDBRANCH  43  45
ENDBRANCH  21  43
ENDBRANCH   1  21
BRANCH   6  47
HETATM   47  O   UNK N   1      33.878  16.557   7.025  0.00  0.00    -0.355 OA
HETATM   48  C   UNK N   1      34.107  17.753   7.674  0.00  0.00     0.210 C 
ENDBRANCH   6  47
BRANCH  19  49
HETATM   49  C   UNK N   1      26.349  17.794   4.703  0.00  0.00     0.298 C 
HETATM   50  O   UNK N   1      27.074  18.220   3.817  0.00  0.00    -0.262 OA
BRANCH  49  51
HETATM   51  O   UNK N   1      25.138  18.360   4.935  0.00  0.00    -0.324 OA
HETATM   52  C   UNK N   1      24.249  18.672   3.937  0.00  0.00     0.213 C 
ENDBRANCH  49  51
ENDBRANCH  19  49
BRANCH  19  53
HETATM   53  O   UNK N   1      26.304  16.812   6.822  0.00  0.00    -0.375 OA
HETATM   54  H   UNK N   1      26.522  17.239   7.666  0.00  0.00     0.211 HD
ENDBRANCH  19  53
BRANCH  14  55
HETATM   55  C   UNK N   1      26.567  15.199   2.548  0.00  0.00     0.014 C 
HETATM   56  C   UNK N   1      25.252  14.824   1.879  0.00  0.00     0.006 C 
ENDBRANCH  14  55
BRANCH  18  57
HETATM   57  O   UNK N   1      24.782  15.239   4.909  0.00  0.00    -0.311 OA
BRANCH  57  58
HETATM   58  C   UNK N   1      23.907  14.772   5.832  0.00  0.00     0.255 C 
HETATM   59  O   UNK N   1      23.915  13.597   6.168  0.00  0.00    -0.266 OA
HETATM   60  C   UNK N   1      22.896  15.696   6.412  0.00  0.00     0.126 C 
ENDBRANCH  57  58
ENDBRANCH  18  57
TORSDOF 11
ENDMDL
MODEL 7
REMARK VINA RESULT:      -6.6      2.087      3.275
REMARK  11 active torsions:
REMARK  status: ('A' for Active; 'I' for Inactive)
REMARK    1  A    between atoms: C_2  and  C_3 
REMARK    2  A    between atoms: C_7  and  C_22 
REMARK    3  A    between atoms: C_7  and  C_55 
REMARK    4  A    between atoms: C_27  and  O_28 
REMARK    5  A    between atoms: C_37  and  C_52 
REMARK    6  A    between atoms: C_41  and  O_48 
REMARK    7  A    between atoms: C_42  and  C_43 
REMARK    8  A    between atoms: C_42  and  O_47 
REMARK    9  A    between atoms: C_43  and  O_45 
REMARK   10  A    between atoms: O_48  and  C_49 
REMARK   11  A    between atoms: C_55  and  O_57 
ROOT
HETATM    1  C   UNK N   1      34.903  12.838   8.784  0.00  0.00     0.000 C 
HETATM    2  C   UNK N   1      34.020  12.883   7.704  0.00  0.00     0.022 C 
HETATM    3  C   UNK N   1      33.546  14.096   7.266  0.00  0.00    -0.018 C 
HETATM    4  C   UNK N   1      33.807  15.250   7.942  0.00  0.00     0.040 C 
HETATM    5  C   UNK N   1      34.743  15.297   8.957  0.00  0.00     0.067 C 
HETATM    6  C   UNK N   1      35.350  14.089   9.368  0.00  0.00     0.078 C 
HETATM    7  N   UNK N   1      32.851  16.220   7.614  0.00  0.00    -0.375 N 
HETATM    8  C   UNK N   1      31.819  15.503   6.889  0.00  0.00     0.146 C 
HETATM    9  C   UNK N   1      32.556  14.359   6.199  0.00  0.00     0.047 C 
HETATM   10  C   UNK N   1      33.379  14.624   4.953  0.00  0.00     0.049 C 
HETATM   11  C   UNK N   1      33.531  13.209   4.356  0.00  0.00     0.274 C 
HETATM   12  N   UNK N   1      32.528  12.344   5.003  0.00  0.00     0.098 N 
HETATM   13  C   UNK N   1      31.655  13.263   5.757  0.00  0.00     0.253 C 
HETATM   14  C   UNK N   1      30.479  13.810   4.880  0.00  0.00     0.039 C 
HETATM   15  C   UNK N   1      29.684  12.558   4.613  0.00  0.00    -0.015 C 
HETATM   16  C   UNK N   1      30.332  11.463   4.180  0.00  0.00    -0.000 C 
HETATM   17  C   UNK N   1      31.838  11.510   3.995  0.00  0.00     0.300 C 
HETATM   18  C   UNK N   1      29.703  14.892   5.702  0.00  0.00     0.193 C 
HETATM   19  C   UNK N   1      30.539  16.095   6.295  0.00  0.00     0.194 C 
HETATM   20  C   UNK N   1      32.589  17.355   8.463  0.00  0.00     0.150 C 
ENDROOT
BRANCH   1  21
HETATM   21  C   UNK N   1      35.083  11.470   9.455  0.00  0.00     0.121 C 
HETATM   22  C   UNK N   1      34.237  10.424   8.732  0.00  0.00     0.041 C 
HETATM   23  C   UNK N   1      34.965   9.496   7.758  0.00  0.00     0.038 C 
HETATM   24  C   UNK N   1      34.006   9.102   6.707  0.00  0.00    -0.016 C 
HETATM   25  C   UNK N   1      35.418   8.233   8.479  0.00  0.00     0.281 C 
HETATM   26  C   UNK N   1      33.107   8.146   6.941  0.00  0.00    -0.056 C 
HETATM   27  C   UNK N   1      33.097   7.376   8.262  0.00  0.00     0.306 C 
HETATM   28  N   UNK N   1      34.284   7.558   9.139  0.00  0.00     0.093 N 
HETATM   29  C   UNK N   1      33.887   8.210  10.403  0.00  0.00     0.277 C 
HETATM   30  C   UNK N   1      35.084   8.752  11.211  0.00  0.00     0.072 C 
HETATM   31  C   UNK N   1      34.834  10.158  11.693  0.00  0.00    -0.020 A 
HETATM   32  C   UNK N   1      34.736  11.353  10.944  0.00  0.00     0.040 A 
HETATM   33  C   UNK N   1      34.765  10.544  13.004  0.00  0.00    -0.001 A 
HETATM   34  N   UNK N   1      34.548  12.410  11.773  0.00  0.00    -0.357 N 
HETATM   35  C   UNK N   1      34.585  11.901  13.028  0.00  0.00     0.043 A 
HETATM   36  H   UNK N   1      34.412  13.350  11.516  0.00  0.00     0.166 HD
HETATM   37  C   UNK N   1      34.548  12.616  14.219  0.00  0.00     0.030 A 
HETATM   38  C   UNK N   1      34.703  11.896  15.421  0.00  0.00     0.002 A 
HETATM   39  C   UNK N   1      34.885  10.495  15.399  0.00  0.00     0.001 A 
HETATM   40  C   UNK N   1      34.915   9.801  14.177  0.00  0.00     0.014 A 
BRANCH  26  41
HETATM   41  C   UNK N   1      32.095   7.838   5.884  0.00  0.00     0.031 C 
HETATM   42  C   UNK N   1      32.727   7.861   4.500  0.00  0.00     0.010 C 
ENDBRANCH  26  41
BRANCH  21  43
HETATM   43  C   UNK N   1      36.619  11.233   9.329  0.00  0.00     0.278 C 
HETATM   44  O   UNK N   1      37.254  10.951  10.334  0.00  0.00    -0.264 OA
BRANCH  43  45
HETATM   45  O   UNK N   1      37.295  11.208   8.144  0.00  0.00    -0.325 OA
HETATM   46  C   UNK N   1      38.391  11.991   7.853  0.00  0.00     0.213 C 
ENDBRANCH  43  45
ENDBRANCH  21  43
ENDBRANCH   1  21
BRANCH   6  47
HETATM   47  O   UNK N   1      36.263  14.120  10.366  0.00  0.00    -0.355 OA
HETATM   48  C   UNK N   1      36.546  15.245  11.113  0.00  0.00     0.210 C 
ENDBRANCH   6  47
BRANCH  19  49
HETATM   49  C   UNK N   1      30.885  17.228   5.363  0.00  0.00     0.298 C 
HETATM   50  O   UNK N   1      30.028  18.002   4.965  0.00  0.00    -0.262 OA
BRANCH  49  51
HETATM   51  O   UNK N   1      32.188  17.409   5.027  0.00  0.00    -0.324 OA
HETATM   52  C   UNK N   1      32.598  17.747   3.762  0.00  0.00     0.213 C 
ENDBRANCH  49  51
ENDBRANCH  19  49
BRANCH  19  53
HETATM   53  O   UNK N   1      29.786  16.637   7.337  0.00  0.00    -0.375 OA
HETATM   54  H   UNK N   1      29.734  16.755   8.300  0.00  0.00     0.211 HD
ENDBRANCH  19  53
BRANCH  14  55
HETATM   55  C   UNK N   1      30.938  14.397   3.517  0.00  0.00     0.014 C 
HETATM   56  C   UNK N   1      29.846  14.479   2.460  0.00  0.00     0.006 C 
ENDBRANCH  14  55
BRANCH  18  57
HETATM   57  O   UNK N   1      28.577  15.334   5.037  0.00  0.00    -0.311 OA
BRANCH  57  58
HETATM   58  C   UNK N   1      27.340  15.334   5.592  0.00  0.00     0.255 C 
HETATM   59  O   UNK N   1      26.968  16.258   6.299  0.00  0.00    -0.266 OA
HETATM   60  C   UNK N   1      26.441  14.170   5.368  0.00  0.00     0.126 C 
ENDBRANCH  57  58
ENDBRANCH  18  57
TORSDOF 11
ENDMDL
MODEL 8
REMARK VINA RESULT:      -6.6      3.307      6.190
REMARK  11 active torsions:
REMARK  status: ('A' for Active; 'I' for Inactive)
REMARK    1  A    between atoms: C_2  and  C_3 
REMARK    2  A    between atoms: C_7  and  C_22 
REMARK    3  A    between atoms: C_7  and  C_55 
REMARK    4  A    between atoms: C_27  and  O_28 
REMARK    5  A    between atoms: C_37  and  C_52 
REMARK    6  A    between atoms: C_41  and  O_48 
REMARK    7  A    between atoms: C_42  and  C_43 
REMARK    8  A    between atoms: C_42  and  O_47 
REMARK    9  A    between atoms: C_43  and  O_45 
REMARK   10  A    between atoms: O_48  and  C_49 
REMARK   11  A    between atoms: C_55  and  O_57 
ROOT
HETATM    1  C   UNK N   1      33.215  10.020   6.662  0.00  0.00     0.000 C 
HETATM    2  C   UNK N   1      32.959  11.303   6.177  0.00  0.00     0.022 C 
HETATM    3  C   UNK N   1      33.481  12.392   6.834  0.00  0.00    -0.018 C 
HETATM    4  C   UNK N   1      34.130  12.263   8.024  0.00  0.00     0.040 C 
HETATM    5  C   UNK N   1      34.501  11.026   8.515  0.00  0.00     0.067 C 
HETATM    6  C   UNK N   1      34.089   9.873   7.812  0.00  0.00     0.078 C 
HETATM    7  N   UNK N   1      34.118  13.486   8.708  0.00  0.00    -0.375 N 
HETATM    8  C   UNK N   1      33.181  14.318   7.976  0.00  0.00     0.146 C 
HETATM    9  C   UNK N   1      33.272  13.826   6.535  0.00  0.00     0.047 C 
HETATM   10  C   UNK N   1      34.449  14.223   5.665  0.00  0.00     0.049 C 
HETATM   11  C   UNK N   1      33.921  13.930   4.246  0.00  0.00     0.274 C 
HETATM   12  N   UNK N   1      32.456  13.788   4.338  0.00  0.00     0.098 N 
HETATM   13  C   UNK N   1      32.111  14.232   5.701  0.00  0.00     0.253 C 
HETATM   14  C   UNK N   1      31.871  15.778   5.773  0.00  0.00     0.039 C 
HETATM   15  C   UNK N   1      30.635  15.939   4.925  0.00  0.00    -0.015 C 
HETATM   16  C   UNK N   1      30.604  15.356   3.715  0.00  0.00    -0.000 C 
HETATM   17  C   UNK N   1      31.795  14.538   3.248  0.00  0.00     0.300 C 
HETATM   18  C   UNK N   1      31.670  16.184   7.271  0.00  0.00     0.193 C 
HETATM   19  C   UNK N   1      32.797  15.764   8.297  0.00  0.00     0.194 C 
HETATM   20  C   UNK N   1      34.315  13.570  10.133  0.00  0.00     0.150 C 
ENDROOT
BRANCH   1  21
HETATM   21  C   UNK N   1      32.308   8.901   6.131  0.00  0.00     0.121 C 
HETATM   22  C   UNK N   1      31.405   9.449   5.027  0.00  0.00     0.041 C 
HETATM   23  C   UNK N   1      31.809   9.140   3.584  0.00  0.00     0.038 C 
HETATM   24  C   UNK N   1      31.322  10.243   2.732  0.00  0.00    -0.016 C 
HETATM   25  C   UNK N   1      31.138   7.854   3.118  0.00  0.00     0.281 C 
HETATM   26  C   UNK N   1      30.043  10.291   2.362  0.00  0.00    -0.056 C 
HETATM   27  C   UNK N   1      29.069   9.171   2.731  0.00  0.00     0.306 C 
HETATM   28  N   UNK N   1      29.673   7.927   3.276  0.00  0.00     0.093 N 
HETATM   29  C   UNK N   1      29.237   7.720   4.672  0.00  0.00     0.277 C 
HETATM   30  C   UNK N   1      30.078   6.667   5.423  0.00  0.00     0.072 C 
HETATM   31  C   UNK N   1      30.487   7.157   6.788  0.00  0.00    -0.020 A 
HETATM   32  C   UNK N   1      31.387   8.192   7.130  0.00  0.00     0.040 A 
HETATM   33  C   UNK N   1      30.121   6.586   7.976  0.00  0.00    -0.001 A 
HETATM   34  N   UNK N   1      31.505   8.281   8.478  0.00  0.00    -0.357 N 
HETATM   35  C   UNK N   1      30.738   7.283   8.979  0.00  0.00     0.043 A 
HETATM   36  H   UNK N   1      32.037   8.935   8.987  0.00  0.00     0.166 HD
HETATM   37  C   UNK N   1      30.628   6.905  10.312  0.00  0.00     0.030 A 
HETATM   38  C   UNK N   1      29.850   5.766  10.608  0.00  0.00     0.002 A 
HETATM   39  C   UNK N   1      29.208   5.049   9.574  0.00  0.00     0.001 A 
HETATM   40  C   UNK N   1      29.338   5.459   8.236  0.00  0.00     0.014 A 
BRANCH  26  41
HETATM   41  C   UNK N   1      29.568  11.471   1.574  0.00  0.00     0.031 C 
HETATM   42  C   UNK N   1      28.706  12.388   2.430  0.00  0.00     0.010 C 
ENDBRANCH  26  41
BRANCH  21  43
HETATM   43  C   UNK N   1      33.338   7.841   5.633  0.00  0.00     0.278 C 
HETATM   44  O   UNK N   1      34.251   8.207   4.907  0.00  0.00    -0.264 OA
BRANCH  43  45
HETATM   45  O   UNK N   1      33.357   6.540   6.043  0.00  0.00    -0.325 OA
HETATM   46  C   UNK N   1      33.623   5.466   5.222  0.00  0.00     0.213 C 
ENDBRANCH  43  45
ENDBRANCH  21  43
ENDBRANCH   1  21
BRANCH   6  47
HETATM   47  O   UNK N   1      34.440   8.655   8.286  0.00  0.00    -0.355 OA
HETATM   48  C   UNK N   1      35.745   8.253   8.476  0.00  0.00     0.210 C 
ENDBRANCH   6  47
BRANCH  19  49
HETATM   49  C   UNK N   1      34.036  16.620   8.359  0.00  0.00     0.298 C 
HETATM   50  O   UNK N   1      34.742  16.779   7.376  0.00  0.00    -0.262 OA
BRANCH  49  51
HETATM   51  O   UNK N   1      34.315  17.264   9.521  0.00  0.00    -0.324 OA
HETATM   52  C   UNK N   1      35.364  16.922  10.337  0.00  0.00     0.213 C 
ENDBRANCH  49  51
ENDBRANCH  19  49
BRANCH  19  53
HETATM   53  O   UNK N   1      32.218  15.788   9.567  0.00  0.00    -0.375 OA
HETATM   54  H   UNK N   1      32.233  16.220  10.436  0.00  0.00     0.211 HD
ENDBRANCH  19  53
BRANCH  14  55
HETATM   55  C   UNK N   1      33.013  16.617   5.138  0.00  0.00     0.014 C 
HETATM   56  C   UNK N   1      32.549  17.850   4.376  0.00  0.00     0.006 C 
ENDBRANCH  14  55
BRANCH  18  57
HETATM   57  O   UNK N   1      31.333  17.516   7.403  0.00  0.00    -0.311 OA
BRANCH  57  58
HETATM   58  C   UNK N   1      30.272  17.944   8.130  0.00  0.00     0.255 C 
HETATM   59  O   UNK N   1      30.408  18.307   9.288  0.00  0.00    -0.266 OA
HETATM   60  C   UNK N   1      28.916  17.931   7.517  0.00  0.00     0.126 C 
ENDBRANCH  57  58
ENDBRANCH  18  57
TORSDOF 11
ENDMDL
MODEL 9
REMARK VINA RESULT:      -6.5      2.279      4.987
REMARK  11 active torsions:
REMARK  status: ('A' for Active; 'I' for Inactive)
REMARK    1  A    between atoms: C_2  and  C_3 
REMARK    2  A    between atoms: C_7  and  C_22 
REMARK    3  A    between atoms: C_7  and  C_55 
REMARK    4  A    between atoms: C_27  and  O_28 
REMARK    5  A    between atoms: C_37  and  C_52 
REMARK    6  A    between atoms: C_41  and  O_48 
REMARK    7  A    between atoms: C_42  and  C_43 
REMARK    8  A    between atoms: C_42  and  O_47 
REMARK    9  A    between atoms: C_43  and  O_45 
REMARK   10  A    between atoms: O_48  and  C_49 
REMARK   11  A    between atoms: C_55  and  O_57 
ROOT
HETATM    1  C   UNK N   1      32.715  15.537   5.661  0.00  0.00     0.000 C 
HETATM    2  C   UNK N   1      31.531  15.239   4.985  0.00  0.00     0.022 C 
HETATM    3  C   UNK N   1      30.458  16.092   5.089  0.00  0.00    -0.018 C 
HETATM    4  C   UNK N   1      30.471  17.153   5.943  0.00  0.00     0.040 C 
HETATM    5  C   UNK N   1      31.633  17.563   6.570  0.00  0.00     0.067 C 
HETATM    6  C   UNK N   1      32.798  16.783   6.400  0.00  0.00     0.078 C 
HETATM    7  N   UNK N   1      29.158  17.546   6.234  0.00  0.00    -0.375 N 
HETATM    8  C   UNK N   1      28.321  16.484   5.709  0.00  0.00     0.146 C 
HETATM    9  C   UNK N   1      29.102  15.928   4.522  0.00  0.00     0.047 C 
HETATM   10  C   UNK N   1      29.130  16.683   3.206  0.00  0.00     0.049 C 
HETATM   11  C   UNK N   1      29.592  15.594   2.216  0.00  0.00     0.274 C 
HETATM   12  N   UNK N   1      29.418  14.288   2.878  0.00  0.00     0.098 N 
HETATM   13  C   UNK N   1      28.648  14.576   4.102  0.00  0.00     0.253 C 
HETATM   14  C   UNK N   1      27.104  14.547   3.847  0.00  0.00     0.039 C 
HETATM   15  C   UNK N   1      26.874  13.097   3.507  0.00  0.00    -0.015 C 
HETATM   16  C   UNK N   1      27.671  12.515   2.595  0.00  0.00    -0.000 C 
HETATM   17  C   UNK N   1      28.787  13.321   1.953  0.00  0.00     0.300 C 
HETATM   18  C   UNK N   1      26.373  15.017   5.148  0.00  0.00     0.193 C 
HETATM   19  C   UNK N   1      26.793  16.415   5.756  0.00  0.00     0.194 C 
HETATM   20  C   UNK N   1      28.830  18.315   7.408  0.00  0.00     0.150 C 
ENDROOT
BRANCH   1  21
HETATM   21  C   UNK N   1      33.714  14.383   5.819  0.00  0.00     0.121 C 
HETATM   22  C   UNK N   1      34.616  14.641   7.025  0.00  0.00     0.041 C 
HETATM   23  C   UNK N   1      34.285  13.884   8.313  0.00  0.00     0.038 C 
HETATM   24  C   UNK N   1      34.725  14.715   9.451  0.00  0.00    -0.016 C 
HETATM   25  C   UNK N   1      35.058  12.572   8.361  0.00  0.00     0.281 C 
HETATM   26  C   UNK N   1      36.011  14.746   9.802  0.00  0.00    -0.056 C 
HETATM   27  C   UNK N   1      37.045  13.865   9.100  0.00  0.00     0.306 C 
HETATM   28  N   UNK N   1      36.508  12.800   8.213  0.00  0.00     0.093 N 
HETATM   29  C   UNK N   1      36.907  13.054   6.814  0.00  0.00     0.277 C 
HETATM   30  C   UNK N   1      36.115  12.214   5.792  0.00  0.00     0.072 C 
HETATM   31  C   UNK N   1      35.625  13.058   4.644  0.00  0.00    -0.020 A 
HETATM   32  C   UNK N   1      34.645  14.077   4.640  0.00  0.00     0.040 A 
HETATM   33  C   UNK N   1      35.988  12.899   3.333  0.00  0.00    -0.001 A 
HETATM   34  N   UNK N   1      34.474  14.557   3.384  0.00  0.00    -0.357 N 
HETATM   35  C   UNK N   1      35.289  13.816   2.595  0.00  0.00     0.043 A 
HETATM   36  H   UNK N   1      33.881  15.291   3.103  0.00  0.00     0.166 HD
HETATM   37  C   UNK N   1      35.378  13.863   1.209  0.00  0.00     0.030 A 
HETATM   38  C   UNK N   1      36.221  12.929   0.573  0.00  0.00     0.002 A 
HETATM   39  C   UNK N   1      36.946  11.985   1.334  0.00  0.00     0.001 A 
HETATM   40  C   UNK N   1      36.836  11.965   2.736  0.00  0.00     0.014 A 
BRANCH  26  41
HETATM   41  C   UNK N   1      36.431  15.669  10.902  0.00  0.00     0.031 C 
HETATM   42  C   UNK N   1      36.060  15.100  12.263  0.00  0.00     0.010 C 
ENDBRANCH  26  41
BRANCH  21  43
HETATM   43  C   UNK N   1      32.776  13.147   5.988  0.00  0.00     0.278 C 
HETATM   44  O   UNK N   1      31.942  13.162   6.881  0.00  0.00    -0.264 OA
BRANCH  43  45
HETATM   45  O   UNK N   1      32.747  12.086   5.132  0.00  0.00    -0.325 OA
HETATM   46  C   UNK N   1      31.650  11.715   4.385  0.00  0.00     0.213 C 
ENDBRANCH  43  45
ENDBRANCH  21  43
ENDBRANCH   1  21
BRANCH   6  47
HETATM   47  O   UNK N   1      33.941  17.169   7.014  0.00  0.00    -0.355 OA
HETATM   48  C   UNK N   1      34.008  18.190   7.939  0.00  0.00     0.210 C 
ENDBRANCH   6  47
BRANCH  19  49
HETATM   49  C   UNK N   1      26.207  17.652   5.126  0.00  0.00     0.298 C 
HETATM   50  O   UNK N   1      26.886  18.386   4.425  0.00  0.00    -0.262 OA
BRANCH  49  51
HETATM   51  O   UNK N   1      24.884  17.899   5.304  0.00  0.00    -0.324 OA
HETATM   52  C   UNK N   1      24.068  18.376   4.309  0.00  0.00     0.213 C 
ENDBRANCH  49  51
ENDBRANCH  19  49
BRANCH  19  53
HETATM   53  O   UNK N   1      26.399  16.410   7.095  0.00  0.00    -0.375 OA
HETATM   54  H   UNK N   1      26.381  16.925   7.917  0.00  0.00     0.211 HD
ENDBRANCH  19  53
BRANCH  14  55
HETATM   55  C   UNK N   1      26.655  15.410   2.637  0.00  0.00     0.014 C 
HETATM   56  C   UNK N   1      25.377  14.938   1.958  0.00  0.00     0.006 C 
ENDBRANCH  14  55
BRANCH  18  57
HETATM   57  O   UNK N   1      25.002  14.902   5.039  0.00  0.00    -0.311 OA
BRANCH  57  58
HETATM   58  C   UNK N   1      24.241  14.218   5.929  0.00  0.00     0.255 C 
HETATM   59  O   UNK N   1      24.388  13.016   6.088  0.00  0.00    -0.266 OA
HETATM   60  C   UNK N   1      23.185  14.938   6.690  0.00  0.00     0.126 C 
ENDBRANCH  57  58
ENDBRANCH  18  57
TORSDOF 11
ENDMDL
