MODEL 1
REMARK VINA RESULT:      -8.5      0.000      0.000
REMARK  11 active torsions:
REMARK  status: ('A' for Active; 'I' for Inactive)
REMARK    1  A    between atoms: C_3  and  O_18 
REMARK    2  A    between atoms: C_6  and  C_7 
REMARK    3  A    between atoms: C_7  and  C_8 
REMARK    4  A    between atoms: C_8  and  C_9 
REMARK    5  A    between atoms: C_9  and  C_10 
REMARK    6  A    between atoms: C_10  and  N_11 
REMARK    7  A    between atoms: O_18  and  C_19 
REMARK    8  A    between atoms: C_19  and  C_20 
REMARK    9  A    between atoms: C_23  and  C_26 
REMARK   10  A    between atoms: C_27  and  C_28 
REMARK   11  A    between atoms: C_31  and  C_34 
ROOT
HETATM    1  C   UNK N   1      36.432  15.633  10.568  0.00  0.00     0.234 C 
ENDROOT
BRANCH   1   2
HETATM    2  O   UNK N   1      35.651  16.697  10.244  0.00  0.00    -0.345 OA
BRANCH   2   3
HETATM    3  C   UNK N   1      35.000  16.735   9.071  0.00  0.00     0.069 A 
HETATM    4  C   UNK N   1      34.869  15.557   8.349  0.00  0.00     0.037 A 
HETATM    5  C   UNK N   1      34.268  15.581   7.101  0.00  0.00     0.010 A 
HETATM    6  C   UNK N   1      33.781  16.783   6.582  0.00  0.00    -0.058 A 
HETATM    7  C   UNK N   1      33.867  17.965   7.318  0.00  0.00     0.010 A 
HETATM    8  C   UNK N   1      34.468  17.940   8.567  0.00  0.00     0.037 A 
BRANCH   6   9
HETATM    9  C   UNK N   1      33.428  16.860   5.152  0.00  0.00     0.038 C 
BRANCH   9  10
HETATM   10  C   UNK N   1      32.014  17.447   5.075  0.00  0.00     0.006 C 
BRANCH  10  11
HETATM   11  C   UNK N   1      30.957  16.523   5.703  0.00  0.00     0.022 C 
BRANCH  11  12
HETATM   12  C   UNK N   1      29.723  17.291   6.156  0.00  0.00     0.150 C 
BRANCH  12  13
HETATM   13  N   UNK N   1      29.833  17.573   7.577  0.00  0.00    -0.288 N 
HETATM   14  C   UNK N   1      29.119  18.475   8.263  0.00  0.00     0.130 A 
HETATM   15  C   UNK N   1      29.513  18.349   9.583  0.00  0.00     0.127 A 
HETATM   16  N   UNK N   1      30.448  17.377   9.638  0.00  0.00    -0.296 N 
HETATM   17  N   UNK N   1      30.623  16.925   8.407  0.00  0.00    -0.241 N 
ATOM     18  HN  UNK N   1      30.931  17.050  10.475  1.00  0.00     0.187 HD
ATOM     19  HN  UNK N   1      31.273  16.185   8.142  1.00  0.00     0.208 HD
ENDBRANCH  12  13
ENDBRANCH  11  12
ENDBRANCH  10  11
ENDBRANCH   9  10
ENDBRANCH   6   9
ENDBRANCH   2   3
ENDBRANCH   1   2
BRANCH   1  20
HETATM   20  C   UNK N   1      35.820  14.920  11.710  0.00  0.00     0.058 A 
HETATM   21  C   UNK N   1      34.826  13.951  11.705  0.00  0.00     0.171 A 
HETATM   22  O   UNK N   1      34.781  13.458  12.923  0.00  0.00    -0.304 OA
HETATM   23  C   UNK N   1      35.684  14.087  13.629  0.00  0.00     0.147 A 
HETATM   24  N   UNK N   1      36.339  15.011  12.913  0.00  0.00    -0.337 N 
ATOM     25  HN  UNK N   1      37.074  15.642  13.229  1.00  0.00     0.168 HD
BRANCH  23  26
HETATM   26  C   UNK N   1      36.239  13.632  14.874  0.00  0.00     0.057 C 
HETATM   27  C   UNK N   1      35.286  13.210  15.694  0.00  0.00     0.015 C 
BRANCH  27  28
HETATM   28  C   UNK N   1      35.504  12.481  16.877  0.00  0.00    -0.036 A 
HETATM   29  C   UNK N   1      35.733  11.108  16.885  0.00  0.00     0.012 A 
HETATM   30  C   UNK N   1      35.670  10.432  18.098  0.00  0.00     0.017 A 
HETATM   31  C   UNK N   1      35.328  11.134  19.266  0.00  0.00     0.048 A 
HETATM   32  C   UNK N   1      35.143  12.516  19.235  0.00  0.00     0.017 A 
HETATM   33  C   UNK N   1      35.246  13.186  18.041  0.00  0.00     0.012 A 
BRANCH  31  34
HETATM   34  C   UNK N   1      35.042  10.419  20.529  0.00  0.00     0.417 C 
HETATM   35  F   UNK N   1      34.749   9.098  20.261  0.00  0.00    -0.166 F 
HETATM   36  F   UNK N   1      36.178  10.491  21.318  0.00  0.00    -0.166 F 
HETATM   37  F   UNK N   1      33.988  11.009  21.201  0.00  0.00    -0.166 F 
ENDBRANCH  31  34
ENDBRANCH  27  28
ENDBRANCH  23  26
ENDBRANCH   1  20
TORSDOF 11
ENDMDL
MODEL 2
REMARK VINA RESULT:      -8.2      1.062      1.708
REMARK  11 active torsions:
REMARK  status: ('A' for Active; 'I' for Inactive)
REMARK    1  A    between atoms: C_3  and  O_18 
REMARK    2  A    between atoms: C_6  and  C_7 
REMARK    3  A    between atoms: C_7  and  C_8 
REMARK    4  A    between atoms: C_8  and  C_9 
REMARK    5  A    between atoms: C_9  and  C_10 
REMARK    6  A    between atoms: C_10  and  N_11 
REMARK    7  A    between atoms: O_18  and  C_19 
REMARK    8  A    between atoms: C_19  and  C_20 
REMARK    9  A    between atoms: C_23  and  C_26 
REMARK   10  A    between atoms: C_27  and  C_28 
REMARK   11  A    between atoms: C_31  and  C_34 
ROOT
HETATM    1  C   UNK N   1      34.031  15.072   9.955  0.00  0.00     0.234 C 
ENDROOT
BRANCH   1   2
HETATM    2  O   UNK N   1      34.839  15.126   8.864  0.00  0.00    -0.345 OA
BRANCH   2   3
HETATM    3  C   UNK N   1      34.443  15.763   7.751  0.00  0.00     0.069 A 
HETATM    4  C   UNK N   1      34.171  17.121   7.828  0.00  0.00     0.037 A 
HETATM    5  C   UNK N   1      33.688  17.788   6.713  0.00  0.00     0.010 A 
HETATM    6  C   UNK N   1      33.496  17.097   5.514  0.00  0.00    -0.058 A 
HETATM    7  C   UNK N   1      33.808  15.742   5.414  0.00  0.00     0.010 A 
HETATM    8  C   UNK N   1      34.291  15.075   6.529  0.00  0.00     0.037 A 
BRANCH   6   9
HETATM    9  C   UNK N   1      32.707  17.727   4.439  0.00  0.00     0.038 C 
BRANCH   9  10
HETATM   10  C   UNK N   1      31.377  16.970   4.362  0.00  0.00     0.006 C 
BRANCH  10  11
HETATM   11  C   UNK N   1      30.360  17.455   5.409  0.00  0.00     0.022 C 
BRANCH  11  12
HETATM   12  C   UNK N   1      30.227  16.481   6.571  0.00  0.00     0.150 C 
BRANCH  12  13
HETATM   13  N   UNK N   1      29.982  17.226   7.792  0.00  0.00    -0.288 N 
HETATM   14  C   UNK N   1      28.979  18.088   8.007  0.00  0.00     0.130 A 
HETATM   15  C   UNK N   1      29.106  18.501   9.321  0.00  0.00     0.127 A 
HETATM   16  N   UNK N   1      30.180  17.873   9.844  0.00  0.00    -0.296 N 
HETATM   17  N   UNK N   1      30.692  17.107   8.895  0.00  0.00    -0.241 N 
ATOM     18  HN  UNK N   1      30.532  17.970  10.796  1.00  0.00     0.187 HD
ATOM     19  HN  UNK N   1      31.515  16.513   9.002  1.00  0.00     0.208 HD
ENDBRANCH  12  13
ENDBRANCH  11  12
ENDBRANCH  10  11
ENDBRANCH   9  10
ENDBRANCH   6   9
ENDBRANCH   2   3
ENDBRANCH   1   2
BRANCH   1  20
HETATM   20  C   UNK N   1      34.845  14.710  11.136  0.00  0.00     0.058 A 
HETATM   21  C   UNK N   1      35.700  15.505  11.886  0.00  0.00     0.171 A 
HETATM   22  O   UNK N   1      36.011  14.809  12.957  0.00  0.00    -0.304 OA
HETATM   23  C   UNK N   1      35.391  13.661  12.867  0.00  0.00     0.147 A 
HETATM   24  N   UNK N   1      34.669  13.558  11.743  0.00  0.00    -0.337 N 
ATOM     25  HN  UNK N   1      34.109  12.766  11.430  1.00  0.00     0.168 HD
BRANCH  23  26
HETATM   26  C   UNK N   1      35.137  12.760  13.957  0.00  0.00     0.057 C 
HETATM   27  C   UNK N   1      35.611  13.246  15.097  0.00  0.00     0.015 C 
BRANCH  27  28
HETATM   28  C   UNK N   1      35.316  12.738  16.375  0.00  0.00    -0.036 A 
HETATM   29  C   UNK N   1      35.236  13.545  17.506  0.00  0.00     0.012 A 
HETATM   30  C   UNK N   1      35.207  12.935  18.755  0.00  0.00     0.017 A 
HETATM   31  C   UNK N   1      35.312  11.537  18.847  0.00  0.00     0.048 A 
HETATM   32  C   UNK N   1      35.350  10.752  17.695  0.00  0.00     0.017 A 
HETATM   33  C   UNK N   1      35.338  11.356  16.462  0.00  0.00     0.012 A 
BRANCH  31  34
HETATM   34  C   UNK N   1      35.500  10.870  20.153  0.00  0.00     0.417 C 
HETATM   35  F   UNK N   1      35.722   9.522  19.962  0.00  0.00    -0.166 F 
HETATM   36  F   UNK N   1      36.608  11.440  20.760  0.00  0.00    -0.166 F 
HETATM   37  F   UNK N   1      34.397  11.056  20.964  0.00  0.00    -0.166 F 
ENDBRANCH  31  34
ENDBRANCH  27  28
ENDBRANCH  23  26
ENDBRANCH   1  20
TORSDOF 11
ENDMDL
MODEL 3
REMARK VINA RESULT:      -8.0      6.584     12.806
REMARK  11 active torsions:
REMARK  status: ('A' for Active; 'I' for Inactive)
REMARK    1  A    between atoms: C_3  and  O_18 
REMARK    2  A    between atoms: C_6  and  C_7 
REMARK    3  A    between atoms: C_7  and  C_8 
REMARK    4  A    between atoms: C_8  and  C_9 
REMARK    5  A    between atoms: C_9  and  C_10 
REMARK    6  A    between atoms: C_10  and  N_11 
REMARK    7  A    between atoms: O_18  and  C_19 
REMARK    8  A    between atoms: C_19  and  C_20 
REMARK    9  A    between atoms: C_23  and  C_26 
REMARK   10  A    between atoms: C_27  and  C_28 
REMARK   11  A    between atoms: C_31  and  C_34 
ROOT
HETATM    1  C   UNK N   1      35.081  12.349  13.149  0.00  0.00     0.234 C 
ENDROOT
BRANCH   1   2
HETATM    2  O   UNK N   1      34.179  12.338  14.165  0.00  0.00    -0.345 OA
BRANCH   2   3
HETATM    3  C   UNK N   1      34.586  12.249  15.441  0.00  0.00     0.069 A 
HETATM    4  C   UNK N   1      34.824  10.990  15.972  0.00  0.00     0.037 A 
HETATM    5  C   UNK N   1      35.172  10.864  17.307  0.00  0.00     0.010 A 
HETATM    6  C   UNK N   1      35.301  12.003  18.107  0.00  0.00    -0.058 A 
HETATM    7  C   UNK N   1      35.109  13.276  17.571  0.00  0.00     0.010 A 
HETATM    8  C   UNK N   1      34.760  13.401  16.236  0.00  0.00     0.037 A 
BRANCH   6   9
HETATM    9  C   UNK N   1      35.369  11.849  19.572  0.00  0.00     0.038 C 
BRANCH   9  10
HETATM   10  C   UNK N   1      36.224  10.608  19.849  0.00  0.00     0.006 C 
BRANCH  10  11
HETATM   11  C   UNK N   1      35.517   9.599  20.771  0.00  0.00     0.022 C 
BRANCH  11  12
HETATM   12  C   UNK N   1      34.002   9.740  20.714  0.00  0.00     0.150 C 
BRANCH  12  13
HETATM   13  N   UNK N   1      33.501  10.042  22.044  0.00  0.00    -0.288 N 
HETATM   14  C   UNK N   1      33.468   9.203  23.088  0.00  0.00     0.130 A 
HETATM   15  C   UNK N   1      32.977   9.939  24.152  0.00  0.00     0.127 A 
HETATM   16  N   UNK N   1      32.734  11.189  23.706  0.00  0.00    -0.296 N 
HETATM   17  N   UNK N   1      33.060  11.223  22.424  0.00  0.00    -0.241 N 
ATOM     18  HN  UNK N   1      32.367  11.965  24.255  1.00  0.00     0.187 HD
ATOM     19  HN  UNK N   1      32.981  12.042  21.821  1.00  0.00     0.208 HD
ENDBRANCH  12  13
ENDBRANCH  11  12
ENDBRANCH  10  11
ENDBRANCH   9  10
ENDBRANCH   6   9
ENDBRANCH   2   3
ENDBRANCH   1   2
BRANCH   1  20
HETATM   20  C   UNK N   1      35.221  13.733  12.648  0.00  0.00     0.058 A 
HETATM   21  C   UNK N   1      36.109  14.722  13.046  0.00  0.00     0.171 A 
HETATM   22  O   UNK N   1      36.007  15.692  12.164  0.00  0.00    -0.304 OA
HETATM   23  C   UNK N   1      35.112  15.322  11.285  0.00  0.00     0.147 A 
HETATM   24  N   UNK N   1      34.592  14.118  11.561  0.00  0.00    -0.337 N 
ATOM     25  HN  UNK N   1      33.873  13.615  11.044  1.00  0.00     0.168 HD
BRANCH  23  26
HETATM   26  C   UNK N   1      34.953  15.878   9.969  0.00  0.00     0.057 C 
HETATM   27  C   UNK N   1      33.727  15.666   9.508  0.00  0.00     0.015 C 
BRANCH  27  28
HETATM   28  C   UNK N   1      33.173  16.287   8.374  0.00  0.00    -0.036 A 
HETATM   29  C   UNK N   1      31.819  16.215   8.061  0.00  0.00     0.012 A 
HETATM   30  C   UNK N   1      31.408  16.621   6.797  0.00  0.00     0.017 A 
HETATM   31  C   UNK N   1      32.366  17.040   5.857  0.00  0.00     0.048 A 
HETATM   32  C   UNK N   1      33.710  17.141   6.212  0.00  0.00     0.017 A 
HETATM   33  C   UNK N   1      34.107  16.775   7.475  0.00  0.00     0.012 A 
BRANCH  31  34
HETATM   34  C   UNK N   1      31.996  17.274   4.445  0.00  0.00     0.417 C 
HETATM   35  F   UNK N   1      30.996  18.222   4.375  0.00  0.00    -0.166 F 
HETATM   36  F   UNK N   1      33.123  17.741   3.788  0.00  0.00    -0.166 F 
HETATM   37  F   UNK N   1      31.577  16.102   3.845  0.00  0.00    -0.166 F 
ENDBRANCH  31  34
ENDBRANCH  27  28
ENDBRANCH  23  26
ENDBRANCH   1  20
TORSDOF 11
ENDMDL
MODEL 4
REMARK VINA RESULT:      -8.0      6.424     12.467
REMARK  11 active torsions:
REMARK  status: ('A' for Active; 'I' for Inactive)
REMARK    1  A    between atoms: C_3  and  O_18 
REMARK    2  A    between atoms: C_6  and  C_7 
REMARK    3  A    between atoms: C_7  and  C_8 
REMARK    4  A    between atoms: C_8  and  C_9 
REMARK    5  A    between atoms: C_9  and  C_10 
REMARK    6  A    between atoms: C_10  and  N_11 
REMARK    7  A    between atoms: O_18  and  C_19 
REMARK    8  A    between atoms: C_19  and  C_20 
REMARK    9  A    between atoms: C_23  and  C_26 
REMARK   10  A    between atoms: C_27  and  C_28 
REMARK   11  A    between atoms: C_31  and  C_34 
ROOT
HETATM    1  C   UNK N   1      35.814  15.631  12.253  0.00  0.00     0.234 C 
ENDROOT
BRANCH   1   2
HETATM    2  O   UNK N   1      35.746  14.304  12.540  0.00  0.00    -0.345 OA
BRANCH   2   3
HETATM    3  C   UNK N   1      35.716  13.881  13.814  0.00  0.00     0.069 A 
HETATM    4  C   UNK N   1      34.729  12.981  14.188  0.00  0.00     0.037 A 
HETATM    5  C   UNK N   1      34.628  12.586  15.512  0.00  0.00     0.010 A 
HETATM    6  C   UNK N   1      35.530  13.079  16.460  0.00  0.00    -0.058 A 
HETATM    7  C   UNK N   1      36.553  13.949  16.085  0.00  0.00     0.010 A 
HETATM    8  C   UNK N   1      36.653  14.343  14.761  0.00  0.00     0.037 A 
BRANCH   6   9
HETATM    9  C   UNK N   1      35.235  12.901  17.894  0.00  0.00     0.038 C 
BRANCH   9  10
HETATM   10  C   UNK N   1      35.438  11.414  18.207  0.00  0.00     0.006 C 
BRANCH  10  11
HETATM   11  C   UNK N   1      35.362  11.114  19.714  0.00  0.00     0.022 C 
BRANCH  11  12
HETATM   12  C   UNK N   1      34.525   9.877  20.008  0.00  0.00     0.150 C 
BRANCH  12  13
HETATM   13  N   UNK N   1      33.750  10.102  21.215  0.00  0.00    -0.288 N 
HETATM   14  C   UNK N   1      33.133   9.165  21.948  0.00  0.00     0.130 A 
HETATM   15  C   UNK N   1      32.583   9.828  23.031  0.00  0.00     0.127 A 
HETATM   16  N   UNK N   1      32.890  11.136  22.905  0.00  0.00    -0.296 N 
HETATM   17  N   UNK N   1      33.596  11.274  21.796  0.00  0.00    -0.241 N 
ATOM     18  HN  UNK N   1      32.625  11.883  23.548  1.00  0.00     0.187 HD
ATOM     19  HN  UNK N   1      33.967  12.157  21.443  1.00  0.00     0.208 HD
ENDBRANCH  12  13
ENDBRANCH  11  12
ENDBRANCH  10  11
ENDBRANCH   9  10
ENDBRANCH   6   9
ENDBRANCH   2   3
ENDBRANCH   1   2
BRANCH   1  20
HETATM   20  C   UNK N   1      35.542  15.823  10.812  0.00  0.00     0.058 A 
HETATM   21  C   UNK N   1      35.780  14.957   9.754  0.00  0.00     0.171 A 
HETATM   22  O   UNK N   1      35.165  15.467   8.710  0.00  0.00    -0.304 OA
HETATM   23  C   UNK N   1      34.591  16.575   9.102  0.00  0.00     0.147 A 
HETATM   24  N   UNK N   1      34.815  16.835  10.397  0.00  0.00    -0.337 N 
ATOM     25  HN  UNK N   1      34.494  17.637  10.938  1.00  0.00     0.168 HD
BRANCH  23  26
HETATM   26  C   UNK N   1      33.524  17.252   8.418  0.00  0.00     0.057 C 
HETATM   27  C   UNK N   1      32.537  16.413   8.128  0.00  0.00     0.015 C 
BRANCH  27  28
HETATM   28  C   UNK N   1      31.257  16.795   7.689  0.00  0.00    -0.036 A 
HETATM   29  C   UNK N   1      30.811  16.580   6.388  0.00  0.00     0.012 A 
HETATM   30  C   UNK N   1      29.651  17.222   5.970  0.00  0.00     0.017 A 
HETATM   31  C   UNK N   1      28.993  18.105   6.844  0.00  0.00     0.048 A 
HETATM   32  C   UNK N   1      29.440  18.269   8.154  0.00  0.00     0.017 A 
HETATM   33  C   UNK N   1      30.564  17.602   8.576  0.00  0.00     0.012 A 
BRANCH  31  34
HETATM   34  C   UNK N   1      27.887  18.964   6.369  0.00  0.00     0.417 C 
HETATM   35  F   UNK N   1      27.552  19.877   7.349  0.00  0.00    -0.166 F 
HETATM   36  F   UNK N   1      28.332  19.637   5.243  0.00  0.00    -0.166 F 
HETATM   37  F   UNK N   1      26.783  18.205   6.035  0.00  0.00    -0.166 F 
ENDBRANCH  31  34
ENDBRANCH  27  28
ENDBRANCH  23  26
ENDBRANCH   1  20
TORSDOF 11
ENDMDL
MODEL 5
REMARK VINA RESULT:      -7.9      1.592      2.361
REMARK  11 active torsions:
REMARK  status: ('A' for Active; 'I' for Inactive)
REMARK    1  A    between atoms: C_3  and  O_18 
REMARK    2  A    between atoms: C_6  and  C_7 
REMARK    3  A    between atoms: C_7  and  C_8 
REMARK    4  A    between atoms: C_8  and  C_9 
REMARK    5  A    between atoms: C_9  and  C_10 
REMARK    6  A    between atoms: C_10  and  N_11 
REMARK    7  A    between atoms: O_18  and  C_19 
REMARK    8  A    between atoms: C_19  and  C_20 
REMARK    9  A    between atoms: C_23  and  C_26 
REMARK   10  A    between atoms: C_27  and  C_28 
REMARK   11  A    between atoms: C_31  and  C_34 
ROOT
HETATM    1  C   UNK N   1      36.798  14.488  10.403  0.00  0.00     0.234 C 
ENDROOT
BRANCH   1   2
HETATM    2  O   UNK N   1      36.437  15.719   9.955  0.00  0.00    -0.345 OA
BRANCH   2   3
HETATM    3  C   UNK N   1      35.342  15.876   9.195  0.00  0.00     0.069 A 
HETATM    4  C   UNK N   1      34.545  16.992   9.407  0.00  0.00     0.037 A 
HETATM    5  C   UNK N   1      33.368  17.140   8.690  0.00  0.00     0.010 A 
HETATM    6  C   UNK N   1      33.000  16.179   7.745  0.00  0.00    -0.058 A 
HETATM    7  C   UNK N   1      33.816  15.078   7.492  0.00  0.00     0.010 A 
HETATM    8  C   UNK N   1      34.992  14.930   8.209  0.00  0.00     0.037 A 
BRANCH   6   9
HETATM    9  C   UNK N   1      31.623  16.182   7.215  0.00  0.00     0.038 C 
BRANCH   9  10
HETATM   10  C   UNK N   1      30.759  16.942   8.228  0.00  0.00     0.006 C 
BRANCH  10  11
HETATM   11  C   UNK N   1      29.646  17.762   7.555  0.00  0.00     0.022 C 
BRANCH  11  12
HETATM   12  C   UNK N   1      29.444  17.364   6.099  0.00  0.00     0.150 C 
BRANCH  12  13
HETATM   13  N   UNK N   1      28.652  18.382   5.432  0.00  0.00    -0.288 N 
HETATM   14  C   UNK N   1      27.934  19.344   6.027  0.00  0.00     0.130 A 
HETATM   15  C   UNK N   1      27.407  20.114   5.005  0.00  0.00     0.127 A 
HETATM   16  N   UNK N   1      27.828  19.584   3.838  0.00  0.00    -0.296 N 
HETATM   17  N   UNK N   1      28.580  18.534   4.126  0.00  0.00    -0.241 N 
ATOM     18  HN  UNK N   1      27.607  19.928   2.904  1.00  0.00     0.187 HD
ATOM     19  HN  UNK N   1      29.035  17.933   3.439  1.00  0.00     0.208 HD
ENDBRANCH  12  13
ENDBRANCH  11  12
ENDBRANCH  10  11
ENDBRANCH   9  10
ENDBRANCH   6   9
ENDBRANCH   2   3
ENDBRANCH   1   2
BRANCH   1  20
HETATM   20  C   UNK N   1      36.098  14.219  11.677  0.00  0.00     0.058 A 
HETATM   21  C   UNK N   1      34.838  13.676  11.885  0.00  0.00     0.171 A 
HETATM   22  O   UNK N   1      34.751  13.421  13.172  0.00  0.00    -0.304 OA
HETATM   23  C   UNK N   1      35.882  13.787  13.718  0.00  0.00     0.147 A 
HETATM   24  N   UNK N   1      36.737  14.300  12.822  0.00  0.00    -0.337 N 
ATOM     25  HN  UNK N   1      37.672  14.669  12.991  1.00  0.00     0.168 HD
BRANCH  23  26
HETATM   26  C   UNK N   1      36.371  13.358  14.999  0.00  0.00     0.057 C 
HETATM   27  C   UNK N   1      35.374  12.972  15.784  0.00  0.00     0.015 C 
BRANCH  27  28
HETATM   28  C   UNK N   1      35.525  12.273  16.995  0.00  0.00    -0.036 A 
HETATM   29  C   UNK N   1      35.687  10.892  17.052  0.00  0.00     0.012 A 
HETATM   30  C   UNK N   1      35.559  10.260  18.283  0.00  0.00     0.017 A 
HETATM   31  C   UNK N   1      35.220  11.015  19.419  0.00  0.00     0.048 A 
HETATM   32  C   UNK N   1      35.104  12.402  19.339  0.00  0.00     0.017 A 
HETATM   33  C   UNK N   1      35.270  13.028  18.128  0.00  0.00     0.012 A 
BRANCH  31  34
HETATM   34  C   UNK N   1      34.867  10.356  20.695  0.00  0.00     0.417 C 
HETATM   35  F   UNK N   1      35.967  10.333  21.529  0.00  0.00    -0.166 F 
HETATM   36  F   UNK N   1      33.855  11.096  21.284  0.00  0.00    -0.166 F 
HETATM   37  F   UNK N   1      34.415   9.069  20.476  0.00  0.00    -0.166 F 
ENDBRANCH  31  34
ENDBRANCH  27  28
ENDBRANCH  23  26
ENDBRANCH   1  20
TORSDOF 11
ENDMDL
MODEL 6
REMARK VINA RESULT:      -7.7      1.858      2.298
REMARK  11 active torsions:
REMARK  status: ('A' for Active; 'I' for Inactive)
REMARK    1  A    between atoms: C_3  and  O_18 
REMARK    2  A    between atoms: C_6  and  C_7 
REMARK    3  A    between atoms: C_7  and  C_8 
REMARK    4  A    between atoms: C_8  and  C_9 
REMARK    5  A    between atoms: C_9  and  C_10 
REMARK    6  A    between atoms: C_10  and  N_11 
REMARK    7  A    between atoms: O_18  and  C_19 
REMARK    8  A    between atoms: C_19  and  C_20 
REMARK    9  A    between atoms: C_23  and  C_26 
REMARK   10  A    between atoms: C_27  and  C_28 
REMARK   11  A    between atoms: C_31  and  C_34 
ROOT
HETATM    1  C   UNK N   1      35.670  15.298   9.163  0.00  0.00     0.234 C 
ENDROOT
BRANCH   1   2
HETATM    2  O   UNK N   1      34.829  16.366   9.183  0.00  0.00    -0.345 OA
BRANCH   2   3
HETATM    3  C   UNK N   1      33.864  16.494   8.257  0.00  0.00     0.069 A 
HETATM    4  C   UNK N   1      32.581  16.076   8.578  0.00  0.00     0.037 A 
HETATM    5  C   UNK N   1      31.583  16.127   7.618  0.00  0.00     0.010 A 
HETATM    6  C   UNK N   1      31.868  16.614   6.340  0.00  0.00    -0.058 A 
HETATM    7  C   UNK N   1      33.144  17.078   6.020  0.00  0.00     0.010 A 
HETATM    8  C   UNK N   1      34.141  17.028   6.982  0.00  0.00     0.037 A 
BRANCH   6   9
HETATM    9  C   UNK N   1      30.901  16.384   5.250  0.00  0.00     0.038 C 
BRANCH   9  10
HETATM   10  C   UNK N   1      30.198  17.721   4.990  0.00  0.00     0.006 C 
BRANCH  10  11
HETATM   11  C   UNK N   1      28.740  17.725   5.482  0.00  0.00     0.022 C 
BRANCH  11  12
HETATM   12  C   UNK N   1      28.624  18.208   6.921  0.00  0.00     0.150 C 
BRANCH  12  13
HETATM   13  N   UNK N   1      27.766  19.379   6.963  0.00  0.00    -0.288 N 
HETATM   14  C   UNK N   1      27.450  20.168   5.927  0.00  0.00     0.130 A 
HETATM   15  C   UNK N   1      26.562  21.107   6.419  0.00  0.00     0.127 A 
HETATM   16  N   UNK N   1      26.381  20.847   7.731  0.00  0.00    -0.296 N 
HETATM   17  N   UNK N   1      27.123  19.795   8.034  0.00  0.00    -0.241 N 
ATOM     18  HN  UNK N   1      25.781  21.366   8.372  1.00  0.00     0.187 HD
ATOM     19  HN  UNK N   1      27.187  19.370   8.959  1.00  0.00     0.208 HD
ENDBRANCH  12  13
ENDBRANCH  11  12
ENDBRANCH  10  11
ENDBRANCH   9  10
ENDBRANCH   6   9
ENDBRANCH   2   3
ENDBRANCH   1   2
BRANCH   1  20
HETATM   20  C   UNK N   1      35.349  14.416  10.305  0.00  0.00     0.058 A 
HETATM   21  C   UNK N   1      35.169  13.039  10.323  0.00  0.00     0.171 A 
HETATM   22  O   UNK N   1      35.133  12.686  11.589  0.00  0.00    -0.304 OA
HETATM   23  C   UNK N   1      35.277  13.774  12.300  0.00  0.00     0.147 A 
HETATM   24  N   UNK N   1      35.400  14.869  11.537  0.00  0.00    -0.337 N 
ATOM     25  HN  UNK N   1      35.509  15.835  11.842  1.00  0.00     0.168 HD
BRANCH  23  26
HETATM   26  C   UNK N   1      35.671  13.826  13.681  0.00  0.00     0.057 C 
HETATM   27  C   UNK N   1      35.033  12.905  14.392  0.00  0.00     0.015 C 
BRANCH  27  28
HETATM   28  C   UNK N   1      35.365  12.528  15.706  0.00  0.00    -0.036 A 
HETATM   29  C   UNK N   1      35.728  11.228  16.048  0.00  0.00     0.012 A 
HETATM   30  C   UNK N   1      35.776  10.886  17.394  0.00  0.00     0.017 A 
HETATM   31  C   UNK N   1      35.411  11.834  18.365  0.00  0.00     0.048 A 
HETATM   32  C   UNK N   1      35.092  13.140  17.995  0.00  0.00     0.017 A 
HETATM   33  C   UNK N   1      35.083  13.486  16.666  0.00  0.00     0.012 A 
BRANCH  31  34
HETATM   34  C   UNK N   1      35.244  11.449  19.783  0.00  0.00     0.417 C 
HETATM   35  F   UNK N   1      34.538  10.266  19.864  0.00  0.00    -0.166 F 
HETATM   36  F   UNK N   1      36.508  11.272  20.321  0.00  0.00    -0.166 F 
HETATM   37  F   UNK N   1      34.588  12.439  20.488  0.00  0.00    -0.166 F 
ENDBRANCH  31  34
ENDBRANCH  27  28
ENDBRANCH  23  26
ENDBRANCH   1  20
TORSDOF 11
ENDMDL
MODEL 7
REMARK VINA RESULT:      -7.7      1.412      2.388
REMARK  11 active torsions:
REMARK  status: ('A' for Active; 'I' for Inactive)
REMARK    1  A    between atoms: C_3  and  O_18 
REMARK    2  A    between atoms: C_6  and  C_7 
REMARK    3  A    between atoms: C_7  and  C_8 
REMARK    4  A    between atoms: C_8  and  C_9 
REMARK    5  A    between atoms: C_9  and  C_10 
REMARK    6  A    between atoms: C_10  and  N_11 
REMARK    7  A    between atoms: O_18  and  C_19 
REMARK    8  A    between atoms: C_19  and  C_20 
REMARK    9  A    between atoms: C_23  and  C_26 
REMARK   10  A    between atoms: C_27  and  C_28 
REMARK   11  A    between atoms: C_31  and  C_34 
ROOT
HETATM    1  C   UNK N   1      36.658  15.210  10.949  0.00  0.00     0.234 C 
ENDROOT
BRANCH   1   2
HETATM    2  O   UNK N   1      36.164  14.725   9.779  0.00  0.00    -0.345 OA
BRANCH   2   3
HETATM    3  C   UNK N   1      35.209  15.393   9.111  0.00  0.00     0.069 A 
HETATM    4  C   UNK N   1      34.932  16.699   9.487  0.00  0.00     0.037 A 
HETATM    5  C   UNK N   1      33.901  17.387   8.865  0.00  0.00     0.010 A 
HETATM    6  C   UNK N   1      33.160  16.771   7.853  0.00  0.00    -0.058 A 
HETATM    7  C   UNK N   1      33.461  15.474   7.438  0.00  0.00     0.010 A 
HETATM    8  C   UNK N   1      34.492  14.787   8.059  0.00  0.00     0.037 A 
BRANCH   6   9
HETATM    9  C   UNK N   1      31.892  17.382   7.416  0.00  0.00     0.038 C 
BRANCH   9  10
HETATM   10  C   UNK N   1      31.331  18.149   8.619  0.00  0.00     0.006 C 
BRANCH  10  11
HETATM   11  C   UNK N   1      29.884  17.747   8.951  0.00  0.00     0.022 C 
BRANCH  11  12
HETATM   12  C   UNK N   1      28.880  18.398   8.010  0.00  0.00     0.150 C 
BRANCH  12  13
HETATM   13  N   UNK N   1      28.089  17.363   7.368  0.00  0.00    -0.288 N 
HETATM   14  C   UNK N   1      28.335  16.801   6.177  0.00  0.00     0.130 A 
HETATM   15  C   UNK N   1      27.366  15.828   6.007  0.00  0.00     0.127 A 
HETATM   16  N   UNK N   1      26.575  15.845   7.100  0.00  0.00    -0.296 N 
HETATM   17  N   UNK N   1      27.036  16.785   7.909  0.00  0.00    -0.241 N 
ATOM     18  HN  UNK N   1      25.771  15.243   7.273  1.00  0.00     0.187 HD
ATOM     19  HN  UNK N   1      26.635  17.026   8.815  1.00  0.00     0.208 HD
ENDBRANCH  12  13
ENDBRANCH  11  12
ENDBRANCH  10  11
ENDBRANCH   9  10
ENDBRANCH   6   9
ENDBRANCH   2   3
ENDBRANCH   1   2
BRANCH   1  20
HETATM   20  C   UNK N   1      35.950  14.560  12.072  0.00  0.00     0.058 A 
HETATM   21  C   UNK N   1      34.933  13.615  12.037  0.00  0.00     0.171 A 
HETATM   22  O   UNK N   1      34.791  13.175  13.267  0.00  0.00    -0.304 OA
HETATM   23  C   UNK N   1      35.660  13.811  14.009  0.00  0.00     0.147 A 
HETATM   24  N   UNK N   1      36.387  14.689  13.304  0.00  0.00    -0.337 N 
ATOM     25  HN  UNK N   1      37.115  15.315  13.646  1.00  0.00     0.168 HD
BRANCH  23  26
HETATM   26  C   UNK N   1      36.115  13.395  15.307  0.00  0.00     0.057 C 
HETATM   27  C   UNK N   1      35.094  13.069  16.089  0.00  0.00     0.015 C 
BRANCH  27  28
HETATM   28  C   UNK N   1      35.201  12.395  17.318  0.00  0.00    -0.036 A 
HETATM   29  C   UNK N   1      35.128  13.049  18.545  0.00  0.00     0.012 A 
HETATM   30  C   UNK N   1      35.510  12.358  19.688  0.00  0.00     0.017 A 
HETATM   31  C   UNK N   1      36.005  11.047  19.574  0.00  0.00     0.048 A 
HETATM   32  C   UNK N   1      36.028  10.404  18.338  0.00  0.00     0.017 A 
HETATM   33  C   UNK N   1      35.613  11.077  17.215  0.00  0.00     0.012 A 
BRANCH  31  34
HETATM   34  C   UNK N   1      36.617  10.360  20.732  0.00  0.00     0.417 C 
HETATM   35  F   UNK N   1      35.630   9.821  21.530  0.00  0.00    -0.166 F 
HETATM   36  F   UNK N   1      37.421   9.345  20.240  0.00  0.00    -0.166 F 
HETATM   37  F   UNK N   1      37.394  11.234  21.468  0.00  0.00    -0.166 F 
ENDBRANCH  31  34
ENDBRANCH  27  28
ENDBRANCH  23  26
ENDBRANCH   1  20
TORSDOF 11
ENDMDL
MODEL 8
REMARK VINA RESULT:      -7.5      6.545     12.294
REMARK  11 active torsions:
REMARK  status: ('A' for Active; 'I' for Inactive)
REMARK    1  A    between atoms: C_3  and  O_18 
REMARK    2  A    between atoms: C_6  and  C_7 
REMARK    3  A    between atoms: C_7  and  C_8 
REMARK    4  A    between atoms: C_8  and  C_9 
REMARK    5  A    between atoms: C_9  and  C_10 
REMARK    6  A    between atoms: C_10  and  N_11 
REMARK    7  A    between atoms: O_18  and  C_19 
REMARK    8  A    between atoms: C_19  and  C_20 
REMARK    9  A    between atoms: C_23  and  C_26 
REMARK   10  A    between atoms: C_27  and  C_28 
REMARK   11  A    between atoms: C_31  and  C_34 
ROOT
HETATM    1  C   UNK N   1      34.020  14.501  10.753  0.00  0.00     0.234 C 
ENDROOT
BRANCH   1   2
HETATM    2  O   UNK N   1      35.346  14.229  10.877  0.00  0.00    -0.345 OA
BRANCH   2   3
HETATM    3  C   UNK N   1      35.793  13.443  11.870  0.00  0.00     0.069 A 
HETATM    4  C   UNK N   1      36.254  14.045  13.031  0.00  0.00     0.037 A 
HETATM    5  C   UNK N   1      36.791  13.263  14.042  0.00  0.00     0.010 A 
HETATM    6  C   UNK N   1      36.849  11.874  13.895  0.00  0.00    -0.058 A 
HETATM    7  C   UNK N   1      36.347  11.256  12.750  0.00  0.00     0.010 A 
HETATM    8  C   UNK N   1      35.810  12.039  11.741  0.00  0.00     0.037 A 
BRANCH   6   9
HETATM    9  C   UNK N   1      37.685  11.087  14.821  0.00  0.00     0.038 C 
BRANCH   9  10
HETATM   10  C   UNK N   1      36.790   9.986  15.400  0.00  0.00     0.006 C 
BRANCH  10  11
HETATM   11  C   UNK N   1      36.601  10.119  16.921  0.00  0.00     0.022 C 
BRANCH  11  12
HETATM   12  C   UNK N   1      35.191  10.564  17.284  0.00  0.00     0.150 C 
BRANCH  12  13
HETATM   13  N   UNK N   1      35.245  11.898  17.856  0.00  0.00    -0.288 N 
HETATM   14  C   UNK N   1      35.223  13.053  17.178  0.00  0.00     0.130 A 
HETATM   15  C   UNK N   1      35.226  14.055  18.132  0.00  0.00     0.127 A 
HETATM   16  N   UNK N   1      35.250  13.463  19.344  0.00  0.00    -0.296 N 
HETATM   17  N   UNK N   1      35.262  12.155  19.148  0.00  0.00    -0.241 N 
ATOM     18  HN  UNK N   1      35.257  13.937  20.247  1.00  0.00     0.187 HD
ATOM     19  HN  UNK N   1      35.281  11.452  19.886  1.00  0.00     0.208 HD
ENDBRANCH  12  13
ENDBRANCH  11  12
ENDBRANCH  10  11
ENDBRANCH   9  10
ENDBRANCH   6   9
ENDBRANCH   2   3
ENDBRANCH   1   2
BRANCH   1  20
HETATM   20  C   UNK N   1      33.859  15.762   9.999  0.00  0.00     0.058 A 
HETATM   21  C   UNK N   1      34.826  16.681   9.614  0.00  0.00     0.171 A 
HETATM   22  O   UNK N   1      34.242  17.507   8.775  0.00  0.00    -0.304 OA
HETATM   23  C   UNK N   1      32.997  17.123   8.657  0.00  0.00     0.147 A 
HETATM   24  N   UNK N   1      32.720  16.051   9.413  0.00  0.00    -0.337 N 
ATOM     25  HN  UNK N   1      31.828  15.569   9.510  1.00  0.00     0.168 HD
BRANCH  23  26
HETATM   26  C   UNK N   1      32.107  17.484   7.587  0.00  0.00     0.057 C 
HETATM   27  C   UNK N   1      30.841  17.300   7.939  0.00  0.00     0.015 C 
BRANCH  27  28
HETATM   28  C   UNK N   1      29.729  17.783   7.226  0.00  0.00    -0.036 A 
HETATM   29  C   UNK N   1      29.580  17.610   5.853  0.00  0.00     0.012 A 
HETATM   30  C   UNK N   1      28.599  18.343   5.196  0.00  0.00     0.017 A 
HETATM   31  C   UNK N   1      27.824  19.269   5.915  0.00  0.00     0.048 A 
HETATM   32  C   UNK N   1      27.968  19.390   7.296  0.00  0.00     0.017 A 
HETATM   33  C   UNK N   1      28.912  18.636   7.950  0.00  0.00     0.012 A 
BRANCH  31  34
HETATM   34  C   UNK N   1      26.925  20.214   5.219  0.00  0.00     0.417 C 
HETATM   35  F   UNK N   1      27.097  21.484   5.731  0.00  0.00    -0.166 F 
HETATM   36  F   UNK N   1      27.264  20.206   3.877  0.00  0.00    -0.166 F 
HETATM   37  F   UNK N   1      25.605  19.827   5.354  0.00  0.00    -0.166 F 
ENDBRANCH  31  34
ENDBRANCH  27  28
ENDBRANCH  23  26
ENDBRANCH   1  20
TORSDOF 11
ENDMDL
MODEL 9
REMARK VINA RESULT:      -7.5      6.772     12.762
REMARK  11 active torsions:
REMARK  status: ('A' for Active; 'I' for Inactive)
REMARK    1  A    between atoms: C_3  and  O_18 
REMARK    2  A    between atoms: C_6  and  C_7 
REMARK    3  A    between atoms: C_7  and  C_8 
REMARK    4  A    between atoms: C_8  and  C_9 
REMARK    5  A    between atoms: C_9  and  C_10 
REMARK    6  A    between atoms: C_10  and  N_11 
REMARK    7  A    between atoms: O_18  and  C_19 
REMARK    8  A    between atoms: C_19  and  C_20 
REMARK    9  A    between atoms: C_23  and  C_26 
REMARK   10  A    between atoms: C_27  and  C_28 
REMARK   11  A    between atoms: C_31  and  C_34 
ROOT
HETATM    1  C   UNK N   1      35.798  14.235  12.406  0.00  0.00     0.234 C 
ENDROOT
BRANCH   1   2
HETATM    2  O   UNK N   1      34.909  13.232  12.629  0.00  0.00    -0.345 OA
BRANCH   2   3
HETATM    3  C   UNK N   1      34.860  12.613  13.819  0.00  0.00     0.069 A 
HETATM    4  C   UNK N   1      35.557  13.170  14.882  0.00  0.00     0.037 A 
HETATM    5  C   UNK N   1      35.586  12.513  16.102  0.00  0.00     0.010 A 
HETATM    6  C   UNK N   1      34.901  11.306  16.262  0.00  0.00    -0.058 A 
HETATM    7  C   UNK N   1      34.161  10.761  15.213  0.00  0.00     0.010 A 
HETATM    8  C   UNK N   1      34.132  11.418  13.994  0.00  0.00     0.037 A 
BRANCH   6   9
HETATM    9  C   UNK N   1      35.182  10.470  17.445  0.00  0.00     0.038 C 
BRANCH   9  10
HETATM   10  C   UNK N   1      35.564  11.425  18.582  0.00  0.00     0.006 C 
BRANCH  10  11
HETATM   11  C   UNK N   1      35.596  10.726  19.951  0.00  0.00     0.022 C 
BRANCH  11  12
HETATM   12  C   UNK N   1      35.058   9.304  19.879  0.00  0.00     0.150 C 
BRANCH  12  13
HETATM   13  N   UNK N   1      33.691   9.286  20.371  0.00  0.00    -0.288 N 
HETATM   14  C   UNK N   1      32.655   8.652  19.807  0.00  0.00     0.130 A 
HETATM   15  C   UNK N   1      31.577   8.857  20.651  0.00  0.00     0.127 A 
HETATM   16  N   UNK N   1      32.009   9.608  21.686  0.00  0.00    -0.296 N 
HETATM   17  N   UNK N   1      33.294   9.854  21.490  0.00  0.00    -0.241 N 
ATOM     18  HN  UNK N   1      31.448   9.927  22.476  1.00  0.00     0.187 HD
ATOM     19  HN  UNK N   1      33.887  10.402  22.113  1.00  0.00     0.208 HD
ENDBRANCH  12  13
ENDBRANCH  11  12
ENDBRANCH  10  11
ENDBRANCH   9  10
ENDBRANCH   6   9
ENDBRANCH   2   3
ENDBRANCH   1   2
BRANCH   1  20
HETATM   20  C   UNK N   1      35.155  15.265  11.562  0.00  0.00     0.058 A 
HETATM   21  C   UNK N   1      35.667  16.477  11.119  0.00  0.00     0.171 A 
HETATM   22  O   UNK N   1      34.822  16.931  10.219  0.00  0.00    -0.304 OA
HETATM   23  C   UNK N   1      33.854  16.057  10.120  0.00  0.00     0.147 A 
HETATM   24  N   UNK N   1      34.021  15.016  10.949  0.00  0.00    -0.337 N 
ATOM     25  HN  UNK N   1      33.406  14.213  11.074  1.00  0.00     0.168 HD
BRANCH  23  26
HETATM   26  C   UNK N   1      32.935  15.948   9.022  0.00  0.00     0.057 C 
HETATM   27  C   UNK N   1      32.952  17.045   8.276  0.00  0.00     0.015 C 
BRANCH  27  28
HETATM   28  C   UNK N   1      32.364  17.164   7.004  0.00  0.00    -0.036 A 
HETATM   29  C   UNK N   1      31.036  16.830   6.754  0.00  0.00     0.012 A 
HETATM   30  C   UNK N   1      30.617  16.723   5.433  0.00  0.00     0.017 A 
HETATM   31  C   UNK N   1      31.546  16.900   4.393  0.00  0.00     0.048 A 
HETATM   32  C   UNK N   1      32.860  17.274   4.673  0.00  0.00     0.017 A 
HETATM   33  C   UNK N   1      33.260  17.418   5.979  0.00  0.00     0.012 A 
BRANCH  31  34
HETATM   34  C   UNK N   1      31.192  16.586   2.992  0.00  0.00     0.417 C 
HETATM   35  F   UNK N   1      32.020  17.282   2.135  0.00  0.00    -0.166 F 
HETATM   36  F   UNK N   1      31.374  15.225   2.808  0.00  0.00    -0.166 F 
HETATM   37  F   UNK N   1      29.873  16.904   2.735  0.00  0.00    -0.166 F 
ENDBRANCH  31  34
ENDBRANCH  27  28
ENDBRANCH  23  26
ENDBRANCH   1  20
TORSDOF 11
ENDMDL
