MODEL 1
REMARK VINA RESULT:      -8.4      0.000      0.000
REMARK  5 active torsions:
REMARK  status: ('A' for Active; 'I' for Inactive)
REMARK    1  A    between atoms: N_3  and  O_2 
REMARK    2  A    between atoms: N_7  and  C_13 
REMARK    3  A    between atoms: C_19  and  C_28 
REMARK    4  A    between atoms: N_21  and  C_25 
REMARK    5  A    between atoms: C_28  and  O_30 
ROOT
HETATM    1  C   UNK N   1      26.901  18.553   5.525  0.00  0.00     0.144 A 
HETATM    2  C   UNK N   1      27.272  19.617   4.676  0.00  0.00     0.161 A 
HETATM    3  C   UNK N   1      26.305  20.215   3.868  0.00  0.00     0.065 A 
HETATM    4  C   UNK N   1      24.980  19.766   3.902  0.00  0.00     0.062 A 
HETATM    5  C   UNK N   1      23.991  20.350   3.098  0.00  0.00     0.204 A 
HETATM    6  O   UNK N   1      24.278  21.270   2.348  0.00  0.00    -0.286 OA
HETATM    7  C   UNK N   1      22.669  19.862   3.162  0.00  0.00     0.104 A 
HETATM    8  C   UNK N   1      22.381  18.814   4.044  0.00  0.00     0.115 A 
HETATM    9  N   UNK N   1      23.348  18.246   4.821  0.00  0.00    -0.337 N 
HETATM   10  C   UNK N   1      24.639  18.704   4.763  0.00  0.00     0.123 A 
HETATM   11  N   UNK N   1      25.604  18.140   5.539  0.00  0.00    -0.325 N 
ATOM     12  HN  UNK N   1      25.344  17.374   6.161  1.00  0.00     0.169 HD
HETATM   13  F   UNK N   1      28.546  20.078   4.621  0.00  0.00    -0.202 F 
ENDROOT
BRANCH   1  14
HETATM   14  N   UNK N   1      27.831  17.913   6.396  0.00  0.00    -0.358 N 
HETATM   15  C   UNK N   1      28.919  17.083   5.933  0.00  0.00     0.180 C 
HETATM   16  C   UNK N   1      29.791  17.019   7.123  0.00  0.00     0.041 C 
HETATM   17  N   UNK N   1      30.952  16.462   7.095  0.00  0.00    -0.273 N 
HETATM   18  C   UNK N   1      29.210  17.747   8.289  0.00  0.00     0.049 A 
ATOM     19  HN  UNK N   1      31.268  16.007   6.238  1.00  0.00     0.193 HD
HETATM   20  C   UNK N   1      27.867  18.250   7.804  0.00  0.00     0.144 C 
HETATM   21  C   UNK N   1      29.191  17.096   9.641  0.00  0.00     0.132 A 
HETATM   22  C   UNK N   1      30.042  18.824   8.921  0.00  0.00     0.132 A 
HETATM   23  N   UNK N   1      29.974  18.181  10.232  0.00  0.00    -0.419 N 
HETATM   24  H   UNK N   1      30.323  18.398  11.165  0.00  0.00     0.153 HD
BRANCH  17  25
HETATM   25  O   UNK N   1      31.740  16.468   8.149  0.00  0.00    -0.285 OA
HETATM   26  C   UNK N   1      32.251  15.291   8.630  0.00  0.00     0.237 C 
ENDBRANCH  17  25
ENDBRANCH   1  14
BRANCH   9  27
HETATM   27  C   UNK N   1      22.962  17.172   5.747  0.00  0.00     0.091 A 
HETATM   28  C   UNK N   1      21.616  16.576   5.352  0.00  0.00     0.028 A 
HETATM   29  C   UNK N   1      22.884  15.828   5.030  0.00  0.00     0.028 A 
ENDBRANCH   9  27
BRANCH   7  30
HETATM   30  C   UNK N   1      21.571  20.410   2.326  0.00  0.00     0.181 C 
HETATM   31  O   UNK N   1      20.923  19.685   1.588  0.00  0.00    -0.646 OA
BRANCH  30  32
HETATM   32  O   UNK N   1      21.268  21.722   2.392  0.00  0.00    -0.772 OA
HETATM   33  H   UNK N   1      21.771  22.347   1.910  0.00  0.00     0.167 HD
ENDBRANCH  30  32
ENDBRANCH   7  30
TORSDOF 5
ENDMDL
MODEL 2
REMARK VINA RESULT:      -7.8      3.449      8.771
REMARK  5 active torsions:
REMARK  status: ('A' for Active; 'I' for Inactive)
REMARK    1  A    between atoms: N_3  and  O_2 
REMARK    2  A    between atoms: N_7  and  C_13 
REMARK    3  A    between atoms: C_19  and  C_28 
REMARK    4  A    between atoms: N_21  and  C_25 
REMARK    5  A    between atoms: C_28  and  O_30 
ROOT
HETATM    1  C   UNK N   1      29.763  16.907   4.430  0.00  0.00     0.144 A 
HETATM    2  C   UNK N   1      30.976  16.939   3.709  0.00  0.00     0.161 A 
HETATM    3  C   UNK N   1      32.171  17.167   4.392  0.00  0.00     0.065 A 
HETATM    4  C   UNK N   1      32.167  17.358   5.778  0.00  0.00     0.062 A 
HETATM    5  C   UNK N   1      33.355  17.590   6.486  0.00  0.00     0.204 A 
HETATM    6  O   UNK N   1      34.421  17.629   5.892  0.00  0.00    -0.286 OA
HETATM    7  C   UNK N   1      33.302  17.781   7.882  0.00  0.00     0.104 A 
HETATM    8  C   UNK N   1      32.060  17.717   8.524  0.00  0.00     0.115 A 
HETATM    9  N   UNK N   1      30.907  17.496   7.830  0.00  0.00    -0.337 N 
HETATM   10  C   UNK N   1      30.941  17.317   6.471  0.00  0.00     0.123 A 
HETATM   11  N   UNK N   1      29.791  17.093   5.779  0.00  0.00    -0.325 N 
ATOM     12  HN  UNK N   1      28.911  17.062   6.292  1.00  0.00     0.169 HD
HETATM   13  F   UNK N   1      31.015  16.754   2.366  0.00  0.00    -0.202 F 
ENDROOT
BRANCH   1  14
HETATM   14  N   UNK N   1      28.509  16.654   3.801  0.00  0.00    -0.358 N 
HETATM   15  C   UNK N   1      28.314  15.649   2.783  0.00  0.00     0.180 C 
HETATM   16  C   UNK N   1      26.845  15.497   2.771  0.00  0.00     0.041 C 
HETATM   17  N   UNK N   1      26.253  14.593   2.071  0.00  0.00    -0.273 N 
HETATM   18  C   UNK N   1      26.174  16.434   3.720  0.00  0.00     0.049 A 
ATOM     19  HN  UNK N   1      26.807  13.986   1.467  1.00  0.00     0.193 HD
HETATM   20  C   UNK N   1      27.296  17.252   4.319  0.00  0.00     0.144 C 
HETATM   21  C   UNK N   1      24.983  17.229   3.267  0.00  0.00     0.132 A 
HETATM   22  C   UNK N   1      25.266  15.840   4.757  0.00  0.00     0.132 A 
HETATM   23  N   UNK N   1      24.137  16.655   4.313  0.00  0.00    -0.419 N 
HETATM   24  H   UNK N   1      23.168  16.774   4.609  0.00  0.00     0.153 HD
BRANCH  17  25
HETATM   25  O   UNK N   1      24.947  14.435   2.120  0.00  0.00    -0.285 OA
HETATM   26  C   UNK N   1      24.228  14.309   0.960  0.00  0.00     0.237 C 
ENDBRANCH  17  25
ENDBRANCH   1  14
BRANCH   9  27
HETATM   27  C   UNK N   1      29.645  17.409   8.578  0.00  0.00     0.091 A 
HETATM   28  C   UNK N   1      29.653  18.364   9.766  0.00  0.00     0.028 A 
HETATM   29  C   UNK N   1      28.880  18.727   8.524  0.00  0.00     0.028 A 
ENDBRANCH   9  27
BRANCH   7  30
HETATM   30  C   UNK N   1      34.512  18.056   8.700  0.00  0.00     0.181 C 
HETATM   31  O   UNK N   1      34.832  17.314   9.615  0.00  0.00    -0.646 OA
BRANCH  30  32
HETATM   32  O   UNK N   1      35.280  19.128   8.422  0.00  0.00    -0.772 OA
HETATM   33  H   UNK N   1      35.878  19.459   9.062  0.00  0.00     0.167 HD
ENDBRANCH  30  32
ENDBRANCH   7  30
TORSDOF 5
ENDMDL
MODEL 3
REMARK VINA RESULT:      -7.4      1.349      2.221
REMARK  5 active torsions:
REMARK  status: ('A' for Active; 'I' for Inactive)
REMARK    1  A    between atoms: N_3  and  O_2 
REMARK    2  A    between atoms: N_7  and  C_13 
REMARK    3  A    between atoms: C_19  and  C_28 
REMARK    4  A    between atoms: N_21  and  C_25 
REMARK    5  A    between atoms: C_28  and  O_30 
ROOT
HETATM    1  C   UNK N   1      26.997  18.569   4.836  0.00  0.00     0.144 A 
HETATM    2  C   UNK N   1      26.913  19.756   4.077  0.00  0.00     0.161 A 
HETATM    3  C   UNK N   1      25.666  20.195   3.630  0.00  0.00     0.065 A 
HETATM    4  C   UNK N   1      24.511  19.468   3.936  0.00  0.00     0.062 A 
HETATM    5  C   UNK N   1      23.247  19.888   3.497  0.00  0.00     0.204 A 
HETATM    6  O   UNK N   1      23.139  20.908   2.834  0.00  0.00    -0.286 OA
HETATM    7  C   UNK N   1      22.110  19.122   3.825  0.00  0.00     0.104 A 
HETATM    8  C   UNK N   1      22.277  17.966   4.598  0.00  0.00     0.115 A 
HETATM    9  N   UNK N   1      23.509  17.559   5.018  0.00  0.00    -0.337 N 
HETATM   10  C   UNK N   1      24.625  18.289   4.699  0.00  0.00     0.123 A 
HETATM   11  N   UNK N   1      25.854  17.885   5.121  0.00  0.00    -0.325 N 
ATOM     12  HN  UNK N   1      25.923  17.031   5.675  1.00  0.00     0.169 HD
HETATM   13  F   UNK N   1      28.013  20.485   3.766  0.00  0.00    -0.202 F 
ENDROOT
BRANCH   1  14
HETATM   14  N   UNK N   1      28.233  18.076   5.346  0.00  0.00    -0.358 N 
HETATM   15  C   UNK N   1      28.652  18.237   6.718  0.00  0.00     0.180 C 
HETATM   16  C   UNK N   1      29.733  17.236   6.833  0.00  0.00     0.041 C 
HETATM   17  N   UNK N   1      30.305  16.968   7.956  0.00  0.00    -0.273 N 
HETATM   18  C   UNK N   1      29.993  16.534   5.542  0.00  0.00     0.049 A 
ATOM     19  HN  UNK N   1      30.040  17.494   8.790  1.00  0.00     0.193 HD
HETATM   20  C   UNK N   1      29.046  17.178   4.552  0.00  0.00     0.144 C 
HETATM   21  C   UNK N   1      31.402  16.367   5.054  0.00  0.00     0.132 A 
HETATM   22  C   UNK N   1      29.911  15.036   5.536  0.00  0.00     0.132 A 
HETATM   23  N   UNK N   1      31.276  14.910   5.027  0.00  0.00    -0.419 N 
HETATM   24  H   UNK N   1      31.882  14.134   4.764  0.00  0.00     0.153 HD
BRANCH  17  25
HETATM   25  O   UNK N   1      31.225  16.031   8.050  0.00  0.00    -0.285 OA
HETATM   26  C   UNK N   1      32.429  16.309   8.643  0.00  0.00     0.237 C 
ENDBRANCH  17  25
ENDBRANCH   1  14
BRANCH   9  27
HETATM   27  C   UNK N   1      23.601  16.353   5.853  0.00  0.00     0.091 A 
HETATM   28  C   UNK N   1      22.299  15.561   5.805  0.00  0.00     0.028 A 
HETATM   29  C   UNK N   1      23.487  15.088   5.009  0.00  0.00     0.028 A 
ENDBRANCH   9  27
BRANCH   7  30
HETATM   30  C   UNK N   1      20.741  19.486   3.379  0.00  0.00     0.181 C 
HETATM   31  O   UNK N   1      20.084  18.725   2.686  0.00  0.00    -0.646 OA
BRANCH  30  32
HETATM   32  O   UNK N   1      20.204  20.664   3.754  0.00  0.00    -0.772 OA
HETATM   33  H   UNK N   1      19.987  21.310   3.112  0.00  0.00     0.167 HD
ENDBRANCH  30  32
ENDBRANCH   7  30
TORSDOF 5
ENDMDL
MODEL 4
REMARK VINA RESULT:      -7.4      9.590     12.444
REMARK  5 active torsions:
REMARK  status: ('A' for Active; 'I' for Inactive)
REMARK    1  A    between atoms: N_3  and  O_2 
REMARK    2  A    between atoms: N_7  and  C_13 
REMARK    3  A    between atoms: C_19  and  C_28 
REMARK    4  A    between atoms: N_21  and  C_25 
REMARK    5  A    between atoms: C_28  and  O_30 
ROOT
HETATM    1  C   UNK N   1      35.279  13.388  12.335  0.00  0.00     0.144 A 
HETATM    2  C   UNK N   1      35.994  14.519  12.784  0.00  0.00     0.161 A 
HETATM    3  C   UNK N   1      35.990  15.681  12.012  0.00  0.00     0.065 A 
HETATM    4  C   UNK N   1      35.280  15.725  10.806  0.00  0.00     0.062 A 
HETATM    5  C   UNK N   1      35.263  16.880  10.012  0.00  0.00     0.204 A 
HETATM    6  O   UNK N   1      35.874  17.875  10.368  0.00  0.00    -0.286 OA
HETATM    7  C   UNK N   1      34.538  16.878   8.803  0.00  0.00     0.104 A 
HETATM    8  C   UNK N   1      33.841  15.720   8.438  0.00  0.00     0.115 A 
HETATM    9  N   UNK N   1      33.865  14.598   9.212  0.00  0.00    -0.337 N 
HETATM   10  C   UNK N   1      34.573  14.581  10.386  0.00  0.00     0.123 A 
HETATM   11  N   UNK N   1      34.595  13.463  11.160  0.00  0.00    -0.325 N 
ATOM     12  HN  UNK N   1      34.077  12.642  10.846  1.00  0.00     0.169 HD
HETATM   13  F   UNK N   1      36.688  14.510  13.949  0.00  0.00    -0.202 F 
ENDROOT
BRANCH   1  14
HETATM   14  N   UNK N   1      35.219  12.178  13.085  0.00  0.00    -0.358 N 
HETATM   15  C   UNK N   1      35.797  10.932  12.639  0.00  0.00     0.180 C 
HETATM   16  C   UNK N   1      35.841  10.143  13.888  0.00  0.00     0.041 C 
HETATM   17  N   UNK N   1      36.409   8.989  13.952  0.00  0.00    -0.273 N 
HETATM   18  C   UNK N   1      35.248  10.881  15.042  0.00  0.00     0.049 A 
ATOM     19  HN  UNK N   1      36.804   8.578  13.105  1.00  0.00     0.193 HD
HETATM   20  C   UNK N   1      34.761  12.189  14.459  0.00  0.00     0.144 C 
HETATM   21  C   UNK N   1      34.272  10.188  15.948  0.00  0.00     0.132 A 
HETATM   22  C   UNK N   1      36.104  11.068  16.260  0.00  0.00     0.132 A 
HETATM   23  N   UNK N   1      35.116  10.420  17.120  0.00  0.00    -0.419 N 
HETATM   24  H   UNK N   1      35.044  10.216  18.117  0.00  0.00     0.153 HD
BRANCH  17  25
HETATM   25  O   UNK N   1      36.490   8.328  15.087  0.00  0.00    -0.285 OA
HETATM   26  C   UNK N   1      36.083   7.021  15.150  0.00  0.00     0.237 C 
ENDBRANCH  17  25
ENDBRANCH   1  14
BRANCH   9  27
HETATM   27  C   UNK N   1      33.082  13.431   8.779  0.00  0.00     0.091 A 
HETATM   28  C   UNK N   1      32.843  13.468   7.274  0.00  0.00     0.028 A 
HETATM   29  C   UNK N   1      33.889  12.543   7.839  0.00  0.00     0.028 A 
ENDBRANCH   9  27
BRANCH   7  30
HETATM   30  C   UNK N   1      34.489  18.052   7.895  0.00  0.00     0.181 C 
HETATM   31  O   UNK N   1      34.130  17.934   6.734  0.00  0.00    -0.646 OA
BRANCH  30  32
HETATM   32  O   UNK N   1      34.828  19.273   8.357  0.00  0.00    -0.772 OA
HETATM   33  H   UNK N   1      34.894  19.999   7.769  0.00  0.00     0.167 HD
ENDBRANCH  30  32
ENDBRANCH   7  30
TORSDOF 5
ENDMDL
MODEL 5
REMARK VINA RESULT:      -7.0      2.150      2.566
REMARK  5 active torsions:
REMARK  status: ('A' for Active; 'I' for Inactive)
REMARK    1  A    between atoms: N_3  and  O_2 
REMARK    2  A    between atoms: N_7  and  C_13 
REMARK    3  A    between atoms: C_19  and  C_28 
REMARK    4  A    between atoms: N_21  and  C_25 
REMARK    5  A    between atoms: C_28  and  O_30 
ROOT
HETATM    1  C   UNK N   1      26.650  17.911   4.073  0.00  0.00     0.144 A 
HETATM    2  C   UNK N   1      26.733  19.281   3.747  0.00  0.00     0.161 A 
HETATM    3  C   UNK N   1      25.560  19.994   3.492  0.00  0.00     0.065 A 
HETATM    4  C   UNK N   1      24.317  19.357   3.562  0.00  0.00     0.062 A 
HETATM    5  C   UNK N   1      23.126  20.052   3.308  0.00  0.00     0.204 A 
HETATM    6  O   UNK N   1      23.161  21.238   3.018  0.00  0.00    -0.286 OA
HETATM    7  C   UNK N   1      21.895  19.368   3.387  0.00  0.00     0.104 A 
HETATM    8  C   UNK N   1      21.900  18.012   3.734  0.00  0.00     0.115 A 
HETATM    9  N   UNK N   1      23.061  17.340   3.975  0.00  0.00    -0.337 N 
HETATM   10  C   UNK N   1      24.266  17.989   3.894  0.00  0.00     0.123 A 
HETATM   11  N   UNK N   1      25.425  17.319   4.138  0.00  0.00    -0.325 N 
ATOM     12  HN  UNK N   1      25.375  16.329   4.380  1.00  0.00     0.169 HD
HETATM   13  F   UNK N   1      27.922  19.929   3.674  0.00  0.00    -0.202 F 
ENDROOT
BRANCH   1  14
HETATM   14  N   UNK N   1      27.804  17.128   4.371  0.00  0.00    -0.358 N 
HETATM   15  C   UNK N   1      28.233  16.003   3.574  0.00  0.00     0.180 C 
HETATM   16  C   UNK N   1      29.628  15.817   4.023  0.00  0.00     0.041 C 
HETATM   17  N   UNK N   1      30.424  14.973   3.463  0.00  0.00    -0.273 N 
HETATM   18  C   UNK N   1      30.005  16.772   5.106  0.00  0.00     0.049 A 
ATOM     19  HN  UNK N   1      30.072  14.376   2.713  1.00  0.00     0.193 HD
HETATM   20  C   UNK N   1      28.746  17.566   5.380  0.00  0.00     0.144 C 
HETATM   21  C   UNK N   1      30.715  16.271   6.330  0.00  0.00     0.132 A 
HETATM   22  C   UNK N   1      31.206  17.643   4.878  0.00  0.00     0.132 A 
HETATM   23  N   UNK N   1      31.854  17.159   6.095  0.00  0.00    -0.419 N 
HETATM   24  H   UNK N   1      32.730  17.358   6.578  0.00  0.00     0.153 HD
BRANCH  17  25
HETATM   25  O   UNK N   1      31.680  14.863   3.838  0.00  0.00    -0.285 OA
HETATM   26  C   UNK N   1      32.206  13.630   4.122  0.00  0.00     0.237 C 
ENDBRANCH  17  25
ENDBRANCH   1  14
BRANCH   9  27
HETATM   27  C   UNK N   1      22.984  15.925   4.367  0.00  0.00     0.091 A 
HETATM   28  C   UNK N   1      21.625  15.337   4.003  0.00  0.00     0.028 A 
HETATM   29  C   UNK N   1      22.825  15.023   3.148  0.00  0.00     0.028 A 
ENDBRANCH   9  27
BRANCH   7  30
HETATM   30  C   UNK N   1      20.593  20.026   3.109  0.00  0.00     0.181 C 
HETATM   31  O   UNK N   1      19.807  19.548   2.306  0.00  0.00    -0.646 OA
BRANCH  30  32
HETATM   32  O   UNK N   1      20.261  21.158   3.761  0.00  0.00    -0.772 OA
HETATM   33  H   UNK N   1      19.360  21.387   3.881  0.00  0.00     0.167 HD
ENDBRANCH  30  32
ENDBRANCH   7  30
TORSDOF 5
ENDMDL
MODEL 6
REMARK VINA RESULT:      -6.9      4.761     11.065
REMARK  5 active torsions:
REMARK  status: ('A' for Active; 'I' for Inactive)
REMARK    1  A    between atoms: N_3  and  O_2 
REMARK    2  A    between atoms: N_7  and  C_13 
REMARK    3  A    between atoms: C_19  and  C_28 
REMARK    4  A    between atoms: N_21  and  C_25 
REMARK    5  A    between atoms: C_28  and  O_30 
ROOT
HETATM    1  C   UNK N   1      32.758  16.785   7.723  0.00  0.00     0.144 A 
HETATM    2  C   UNK N   1      33.563  17.738   8.381  0.00  0.00     0.161 A 
HETATM    3  C   UNK N   1      34.618  17.303   9.186  0.00  0.00     0.065 A 
HETATM    4  C   UNK N   1      34.874  15.935   9.334  0.00  0.00     0.062 A 
HETATM    5  C   UNK N   1      35.926  15.474  10.139  0.00  0.00     0.204 A 
HETATM    6  O   UNK N   1      36.640  16.272  10.727  0.00  0.00    -0.286 OA
HETATM    7  C   UNK N   1      36.145  14.087  10.263  0.00  0.00     0.104 A 
HETATM    8  C   UNK N   1      35.311  13.208   9.562  0.00  0.00     0.115 A 
HETATM    9  N   UNK N   1      34.286  13.662   8.786  0.00  0.00    -0.337 N 
HETATM   10  C   UNK N   1      34.054  15.007   8.662  0.00  0.00     0.123 A 
HETATM   11  N   UNK N   1      33.034  15.461   7.884  0.00  0.00    -0.325 N 
ATOM     12  HN  UNK N   1      32.450  14.779   7.400  1.00  0.00     0.169 HD
HETATM   13  F   UNK N   1      33.344  19.070   8.255  0.00  0.00    -0.202 F 
ENDROOT
BRANCH   1  14
HETATM   14  N   UNK N   1      31.681  17.158   6.866  0.00  0.00    -0.358 N 
HETATM   15  C   UNK N   1      31.746  17.089   5.425  0.00  0.00     0.180 C 
HETATM   16  C   UNK N   1      30.321  17.164   5.045  0.00  0.00     0.041 C 
HETATM   17  N   UNK N   1      29.925  17.013   3.828  0.00  0.00    -0.273 N 
HETATM   18  C   UNK N   1      29.429  17.334   6.229  0.00  0.00     0.049 A 
ATOM     19  HN  UNK N   1      30.618  16.883   3.090  1.00  0.00     0.193 HD
HETATM   20  C   UNK N   1      30.366  17.419   7.414  0.00  0.00     0.144 C 
HETATM   21  C   UNK N   1      28.344  18.371   6.204  0.00  0.00     0.132 A 
HETATM   22  C   UNK N   1      28.334  16.326   6.424  0.00  0.00     0.132 A 
HETATM   23  N   UNK N   1      27.305  17.365   6.430  0.00  0.00    -0.419 N 
HETATM   24  H   UNK N   1      26.292  17.382   6.545  0.00  0.00     0.153 HD
BRANCH  17  25
HETATM   25  O   UNK N   1      28.646  17.025   3.518  0.00  0.00    -0.285 OA
HETATM   26  C   UNK N   1      28.087  15.951   2.875  0.00  0.00     0.237 C 
ENDBRANCH  17  25
ENDBRANCH   1  14
BRANCH   9  27
HETATM   27  C   UNK N   1      33.473  12.679   8.054  0.00  0.00     0.091 A 
HETATM   28  C   UNK N   1      34.208  11.349   7.938  0.00  0.00     0.028 A 
HETATM   29  C   UNK N   1      33.099  11.500   8.946  0.00  0.00     0.028 A 
ENDBRANCH   9  27
BRANCH   7  30
HETATM   30  C   UNK N   1      37.222  13.518  11.114  0.00  0.00     0.181 C 
HETATM   31  O   UNK N   1      38.144  12.888  10.620  0.00  0.00    -0.646 OA
BRANCH  30  32
HETATM   32  O   UNK N   1      37.196  13.711  12.447  0.00  0.00    -0.772 OA
HETATM   33  H   UNK N   1      36.849  14.505  12.803  0.00  0.00     0.167 HD
ENDBRANCH  30  32
ENDBRANCH   7  30
TORSDOF 5
ENDMDL
MODEL 7
REMARK VINA RESULT:      -6.9      3.064      8.369
REMARK  5 active torsions:
REMARK  status: ('A' for Active; 'I' for Inactive)
REMARK    1  A    between atoms: N_3  and  O_2 
REMARK    2  A    between atoms: N_7  and  C_13 
REMARK    3  A    between atoms: C_19  and  C_28 
REMARK    4  A    between atoms: N_21  and  C_25 
REMARK    5  A    between atoms: C_28  and  O_30 
ROOT
HETATM    1  C   UNK N   1      27.736  16.429   4.940  0.00  0.00     0.144 A 
HETATM    2  C   UNK N   1      28.505  16.237   3.773  0.00  0.00     0.161 A 
HETATM    3  C   UNK N   1      29.891  16.382   3.837  0.00  0.00     0.065 A 
HETATM    4  C   UNK N   1      30.511  16.712   5.047  0.00  0.00     0.062 A 
HETATM    5  C   UNK N   1      31.902  16.866   5.135  0.00  0.00     0.204 A 
HETATM    6  O   UNK N   1      32.598  16.712   4.144  0.00  0.00    -0.286 OA
HETATM    7  C   UNK N   1      32.484  17.203   6.375  0.00  0.00     0.104 A 
HETATM    8  C   UNK N   1      31.651  17.359   7.489  0.00  0.00     0.115 A 
HETATM    9  N   UNK N   1      30.299  17.213   7.397  0.00  0.00    -0.337 N 
HETATM   10  C   UNK N   1      29.717  16.895   6.196  0.00  0.00     0.123 A 
HETATM   11  N   UNK N   1      28.368  16.746   6.104  0.00  0.00    -0.325 N 
ATOM     12  HN  UNK N   1      27.804  16.877   6.944  1.00  0.00     0.169 HD
HETATM   13  F   UNK N   1      27.935  15.913   2.586  0.00  0.00    -0.202 F 
ENDROOT
BRANCH   1  14
HETATM   14  N   UNK N   1      26.319  16.272   4.954  0.00  0.00    -0.358 N 
HETATM   15  C   UNK N   1      25.611  15.496   5.945  0.00  0.00     0.180 C 
HETATM   16  C   UNK N   1      24.223  15.976   5.783  0.00  0.00     0.041 C 
HETATM   17  N   UNK N   1      23.274  15.615   6.576  0.00  0.00    -0.273 N 
HETATM   18  C   UNK N   1      24.095  16.972   4.680  0.00  0.00     0.049 A 
ATOM     19  HN  UNK N   1      23.470  14.940   7.316  1.00  0.00     0.193 HD
HETATM   20  C   UNK N   1      25.484  17.079   4.088  0.00  0.00     0.144 C 
HETATM   21  C   UNK N   1      22.988  16.836   3.675  0.00  0.00     0.132 A 
HETATM   22  C   UNK N   1      23.501  18.309   5.016  0.00  0.00     0.132 A 
HETATM   23  N   UNK N   1      22.457  18.159   4.004  0.00  0.00    -0.419 N 
HETATM   24  H   UNK N   1      21.685  18.735   3.669  0.00  0.00     0.153 HD
BRANCH  17  25
HETATM   25  O   UNK N   1      22.057  16.099   6.452  0.00  0.00    -0.285 OA
HETATM   26  C   UNK N   1      21.212  16.115   7.531  0.00  0.00     0.237 C 
ENDBRANCH  17  25
ENDBRANCH   1  14
BRANCH   9  27
HETATM   27  C   UNK N   1      29.493  17.360   8.617  0.00  0.00     0.091 A 
HETATM   28  C   UNK N   1      30.006  18.517   9.467  0.00  0.00     0.028 A 
HETATM   29  C   UNK N   1      28.762  18.698   8.637  0.00  0.00     0.028 A 
ENDBRANCH   9  27
BRANCH   7  30
HETATM   30  C   UNK N   1      33.946  17.407   6.546  0.00  0.00     0.181 C 
HETATM   31  O   UNK N   1      34.377  18.364   7.170  0.00  0.00    -0.646 OA
BRANCH  30  32
HETATM   32  O   UNK N   1      34.813  16.517   6.022  0.00  0.00    -0.772 OA
HETATM   33  H   UNK N   1      35.408  16.055   6.578  0.00  0.00     0.167 HD
ENDBRANCH  30  32
ENDBRANCH   7  30
TORSDOF 5
ENDMDL
MODEL 8
REMARK VINA RESULT:      -6.7     14.712     17.261
REMARK  5 active torsions:
REMARK  status: ('A' for Active; 'I' for Inactive)
REMARK    1  A    between atoms: N_3  and  O_2 
REMARK    2  A    between atoms: N_7  and  C_13 
REMARK    3  A    between atoms: C_19  and  C_28 
REMARK    4  A    between atoms: N_21  and  C_25 
REMARK    5  A    between atoms: C_28  and  O_30 
ROOT
HETATM    1  C   UNK N   1      35.630  11.372  17.153  0.00  0.00     0.144 A 
HETATM    2  C   UNK N   1      35.220  12.705  16.936  0.00  0.00     0.161 A 
HETATM    3  C   UNK N   1      35.503  13.316  15.714  0.00  0.00     0.065 A 
HETATM    4  C   UNK N   1      36.183  12.613  14.714  0.00  0.00     0.062 A 
HETATM    5  C   UNK N   1      36.481  13.207  13.479  0.00  0.00     0.204 A 
HETATM    6  O   UNK N   1      36.145  14.360  13.260  0.00  0.00    -0.286 OA
HETATM    7  C   UNK N   1      37.171  12.462  12.501  0.00  0.00     0.104 A 
HETATM    8  C   UNK N   1      37.527  11.139  12.789  0.00  0.00     0.115 A 
HETATM    9  N   UNK N   1      37.239  10.568  13.994  0.00  0.00    -0.337 N 
HETATM   10  C   UNK N   1      36.577  11.283  14.958  0.00  0.00     0.123 A 
HETATM   11  N   UNK N   1      36.287  10.712  16.159  0.00  0.00    -0.325 N 
ATOM     12  HN  UNK N   1      36.574   9.747  16.323  1.00  0.00     0.169 HD
HETATM   13  F   UNK N   1      34.557  13.412  17.884  0.00  0.00    -0.202 F 
ENDROOT
BRANCH   1  14
HETATM   14  N   UNK N   1      35.352  10.677  18.366  0.00  0.00    -0.358 N 
HETATM   15  C   UNK N   1      35.399  11.296  19.670  0.00  0.00     0.180 C 
HETATM   16  C   UNK N   1      34.655  10.328  20.502  0.00  0.00     0.041 C 
HETATM   17  N   UNK N   1      34.360  10.565  21.733  0.00  0.00    -0.273 N 
HETATM   18  C   UNK N   1      34.223   9.130  19.724  0.00  0.00     0.049 A 
ATOM     19  HN  UNK N   1      34.687  11.427  22.169  1.00  0.00     0.193 HD
HETATM   20  C   UNK N   1      34.780   9.347  18.334  0.00  0.00     0.144 C 
HETATM   21  C   UNK N   1      34.443   7.756  20.287  0.00  0.00     0.132 A 
HETATM   22  C   UNK N   1      32.760   8.794  19.720  0.00  0.00     0.132 A 
HETATM   23  N   UNK N   1      33.013   7.450  20.236  0.00  0.00    -0.419 N 
HETATM   24  H   UNK N   1      32.436   6.640  20.463  0.00  0.00     0.153 HD
BRANCH  17  25
HETATM   25  O   UNK N   1      33.644   9.716  22.441  0.00  0.00    -0.285 OA
HETATM   26  C   UNK N   1      32.622  10.173  23.231  0.00  0.00     0.237 C 
ENDBRANCH  17  25
ENDBRANCH   1  14
BRANCH   9  27
HETATM   27  C   UNK N   1      37.615   9.164  14.211  0.00  0.00     0.091 A 
HETATM   28  C   UNK N   1      38.691   8.732  13.220  0.00  0.00     0.028 A 
HETATM   29  C   UNK N   1      39.072   9.044  14.644  0.00  0.00     0.028 A 
ENDBRANCH   9  27
BRANCH   7  30
HETATM   30  C   UNK N   1      37.544  13.026  11.178  0.00  0.00     0.181 C 
HETATM   31  O   UNK N   1      36.706  13.185  10.305  0.00  0.00    -0.646 OA
BRANCH  30  32
HETATM   32  O   UNK N   1      38.821  13.385  10.938  0.00  0.00    -0.772 OA
HETATM   33  H   UNK N   1      39.525  12.950  11.377  0.00  0.00     0.167 HD
ENDBRANCH  30  32
ENDBRANCH   7  30
TORSDOF 5
ENDMDL
MODEL 9
REMARK VINA RESULT:      -6.6      6.334     13.465
REMARK  5 active torsions:
REMARK  status: ('A' for Active; 'I' for Inactive)
REMARK    1  A    between atoms: N_3  and  O_2 
REMARK    2  A    between atoms: N_7  and  C_13 
REMARK    3  A    between atoms: C_19  and  C_28 
REMARK    4  A    between atoms: N_21  and  C_25 
REMARK    5  A    between atoms: C_28  and  O_30 
ROOT
HETATM    1  C   UNK N   1      34.385  14.462  10.519  0.00  0.00     0.144 A 
HETATM    2  C   UNK N   1      35.005  15.328  11.444  0.00  0.00     0.161 A 
HETATM    3  C   UNK N   1      35.707  14.788  12.522  0.00  0.00     0.065 A 
HETATM    4  C   UNK N   1      35.797  13.400  12.681  0.00  0.00     0.062 A 
HETATM    5  C   UNK N   1      36.495  12.834  13.757  0.00  0.00     0.204 A 
HETATM    6  O   UNK N   1      37.040  13.555  14.578  0.00  0.00    -0.286 OA
HETATM    7  C   UNK N   1      36.557  11.430  13.880  0.00  0.00     0.104 A 
HETATM    8  C   UNK N   1      35.928  10.642  12.910  0.00  0.00     0.115 A 
HETATM    9  N   UNK N   1      35.246  11.198  11.868  0.00  0.00    -0.337 N 
HETATM   10  C   UNK N   1      35.170  12.561  11.740  0.00  0.00     0.123 A 
HETATM   11  N   UNK N   1      34.493  13.116  10.699  0.00  0.00    -0.325 N 
ATOM     12  HN  UNK N   1      34.046  12.497  10.022  1.00  0.00     0.169 HD
HETATM   13  F   UNK N   1      34.940  16.677  11.316  0.00  0.00    -0.202 F 
ENDROOT
BRANCH   1  14
HETATM   14  N   UNK N   1      33.674  14.944   9.382  0.00  0.00    -0.358 N 
HETATM   15  C   UNK N   1      32.242  15.133   9.355  0.00  0.00     0.180 C 
HETATM   16  C   UNK N   1      32.064  16.005   8.176  0.00  0.00     0.041 C 
HETATM   17  N   UNK N   1      30.923  16.515   7.865  0.00  0.00    -0.273 N 
HETATM   18  C   UNK N   1      33.355  16.282   7.479  0.00  0.00     0.049 A 
ATOM     19  HN  UNK N   1      30.101  16.277   8.420  1.00  0.00     0.193 HD
HETATM   20  C   UNK N   1      34.390  15.490   8.248  0.00  0.00     0.144 C 
HETATM   21  C   UNK N   1      33.439  16.154   5.986  0.00  0.00     0.132 A 
HETATM   22  C   UNK N   1      33.745  17.719   7.286  0.00  0.00     0.132 A 
HETATM   23  N   UNK N   1      33.852  17.550   5.838  0.00  0.00    -0.419 N 
HETATM   24  H   UNK N   1      34.108  18.151   5.055  0.00  0.00     0.153 HD
BRANCH  17  25
HETATM   25  O   UNK N   1      30.796  17.337   6.844  0.00  0.00    -0.285 OA
HETATM   26  C   UNK N   1      29.817  17.124   5.910  0.00  0.00     0.237 C 
ENDBRANCH  17  25
ENDBRANCH   1  14
BRANCH   9  27
HETATM   27  C   UNK N   1      34.640  10.304  10.871  0.00  0.00     0.091 A 
HETATM   28  C   UNK N   1      34.511   8.888  11.420  0.00  0.00     0.028 A 
HETATM   29  C   UNK N   1      33.294   9.773  11.352  0.00  0.00     0.028 A 
ENDBRANCH   9  27
BRANCH   7  30
HETATM   30  C   UNK N   1      37.255  10.754  15.003  0.00  0.00     0.181 C 
HETATM   31  O   UNK N   1      38.285  10.126  14.814  0.00  0.00    -0.646 OA
BRANCH  30  32
HETATM   32  O   UNK N   1      36.761  10.845  16.254  0.00  0.00    -0.772 OA
HETATM   33  H   UNK N   1      37.173  11.399  16.886  0.00  0.00     0.167 HD
ENDBRANCH  30  32
ENDBRANCH   7  30
TORSDOF 5
ENDMDL
