MODEL 1
REMARK VINA RESULT:      -6.2      0.000      0.000
REMARK  6 active torsions:
REMARK  status: ('A' for Active; 'I' for Inactive)
REMARK    1  A    between atoms: C_10  and  C_9 
REMARK    2  A    between atoms: C_12  and  C_9 
REMARK    3  A    between atoms: C_13  and  C_11 
REMARK    4  A    between atoms: C_14  and  C_11 
REMARK    5  A    between atoms: O_17  and  C_14 
REMARK    6  A    between atoms: N_15  and  S_20 
ROOT
HETATM    1  C   UNK N   1      37.179  11.632  13.259  0.00  0.00     0.023 C 
HETATM    2  C   UNK N   1      36.832  12.964  13.905  0.00  0.00     0.090 C 
ENDROOT
BRANCH   2   3
HETATM    3  C   UNK N   1      36.253  12.732  15.281  0.00  0.00    -0.047 A 
HETATM    4  C   UNK N   1      36.118  11.429  15.778  0.00  0.00     0.008 A 
HETATM    5  C   UNK N   1      35.694  11.219  17.093  0.00  0.00     0.007 A 
HETATM    6  C   UNK N   1      35.399  12.311  17.917  0.00  0.00    -0.058 A 
HETATM    7  C   UNK N   1      35.493  13.611  17.414  0.00  0.00     0.007 A 
HETATM    8  C   UNK N   1      35.919  13.822  16.102  0.00  0.00     0.008 A 
BRANCH   6   9
HETATM    9  C   UNK N   1      35.047  12.080  19.352  0.00  0.00     0.042 C 
BRANCH   9  10
HETATM   10  C   UNK N   1      35.386  10.655  19.795  0.00  0.00    -0.019 C 
HETATM   11  C   UNK N   1      36.678  10.666  20.584  0.00  0.00     0.010 C 
HETATM   12  C   UNK N   1      34.289  10.048  20.655  0.00  0.00     0.010 C 
ENDBRANCH   9  10
ENDBRANCH   6   9
ENDBRANCH   2   3
BRANCH   2  13
HETATM   13  C   UNK N   1      35.850  13.732  13.040  0.00  0.00     0.133 C 
HETATM   14  N   UNK N   1      36.267  14.727  12.322  0.00  0.00    -0.268 N 
ATOM     15  HN  UNK N   1      37.247  15.004  12.377  1.00  0.00     0.180 HD
BRANCH  14  16
HETATM   16  S   UNK N   1      35.182  15.615  11.253  0.00  0.00     0.228 S 
HETATM   17  C   UNK N   1      35.252  15.769   9.447  0.00  0.00     0.186 C 
HETATM   18  O   UNK N   1      35.330  14.262  10.543  0.00  0.00    -0.206 OA
HETATM   19  O   UNK N   1      36.505  16.293  10.856  0.00  0.00    -0.206 OA
ENDBRANCH  14  16
BRANCH  13  20
HETATM   20  O   UNK N   1      34.546  13.392  13.018  0.00  0.00    -0.348 OA
HETATM   21  H   UNK N   1      33.883  14.054  12.981  0.00  0.00     0.219 HD
ENDBRANCH  13  20
ENDBRANCH   2  13
TORSDOF 6
ENDMDL
MODEL 2
REMARK VINA RESULT:      -6.1      2.106      3.302
REMARK  6 active torsions:
REMARK  status: ('A' for Active; 'I' for Inactive)
REMARK    1  A    between atoms: C_10  and  C_9 
REMARK    2  A    between atoms: C_12  and  C_9 
REMARK    3  A    between atoms: C_13  and  C_11 
REMARK    4  A    between atoms: C_14  and  C_11 
REMARK    5  A    between atoms: O_17  and  C_14 
REMARK    6  A    between atoms: N_15  and  S_20 
ROOT
HETATM    1  C   UNK N   1      34.529  12.260  10.078  0.00  0.00     0.023 C 
HETATM    2  C   UNK N   1      35.253  13.459  10.671  0.00  0.00     0.090 C 
ENDROOT
BRANCH   2   3
HETATM    3  C   UNK N   1      35.443  13.261  12.157  0.00  0.00    -0.047 A 
HETATM    4  C   UNK N   1      34.922  12.123  12.787  0.00  0.00     0.008 A 
HETATM    5  C   UNK N   1      35.199  11.881  14.136  0.00  0.00     0.007 A 
HETATM    6  C   UNK N   1      35.991  12.776  14.863  0.00  0.00    -0.058 A 
HETATM    7  C   UNK N   1      36.478  13.934  14.249  0.00  0.00     0.007 A 
HETATM    8  C   UNK N   1      36.206  14.176  12.902  0.00  0.00     0.008 A 
BRANCH   6   9
HETATM    9  C   UNK N   1      36.365  12.456  16.274  0.00  0.00     0.042 C 
BRANCH   9  10
HETATM   10  C   UNK N   1      35.142  12.440  17.194  0.00  0.00    -0.019 C 
HETATM   11  C   UNK N   1      35.137  11.162  18.004  0.00  0.00     0.010 C 
HETATM   12  C   UNK N   1      35.126  13.627  18.144  0.00  0.00     0.010 C 
ENDBRANCH   9  10
ENDBRANCH   6   9
ENDBRANCH   2   3
BRANCH   2  13
HETATM   13  C   UNK N   1      34.475  14.733  10.401  0.00  0.00     0.133 C 
HETATM   14  N   UNK N   1      34.936  15.602   9.558  0.00  0.00    -0.268 N 
ATOM     15  HN  UNK N   1      35.838  15.433   9.112  1.00  0.00     0.180 HD
BRANCH  14  16
HETATM   16  S   UNK N   1      34.044  17.071   9.161  0.00  0.00     0.228 S 
HETATM   17  C   UNK N   1      34.578  18.478   8.149  0.00  0.00     0.186 C 
HETATM   18  O   UNK N   1      34.623  16.645   7.804  0.00  0.00    -0.206 OA
HETATM   19  O   UNK N   1      35.280  17.718   9.810  0.00  0.00    -0.206 OA
ENDBRANCH  14  16
BRANCH  13  20
HETATM   20  O   UNK N   1      33.312  14.972  11.038  0.00  0.00    -0.348 OA
HETATM   21  H   UNK N   1      32.506  14.628  10.704  0.00  0.00     0.219 HD
ENDBRANCH  13  20
ENDBRANCH   2  13
TORSDOF 6
ENDMDL
MODEL 3
REMARK VINA RESULT:      -5.8     16.247     19.123
REMARK  6 active torsions:
REMARK  status: ('A' for Active; 'I' for Inactive)
REMARK    1  A    between atoms: C_10  and  C_9 
REMARK    2  A    between atoms: C_12  and  C_9 
REMARK    3  A    between atoms: C_13  and  C_11 
REMARK    4  A    between atoms: C_14  and  C_11 
REMARK    5  A    between atoms: O_17  and  C_14 
REMARK    6  A    between atoms: N_15  and  S_20 
ROOT
HETATM    1  C   UNK N   1      20.268  20.399   3.334  0.00  0.00     0.023 C 
HETATM    2  C   UNK N   1      20.986  19.061   3.421  0.00  0.00     0.090 C 
ENDROOT
BRANCH   2   3
HETATM    3  C   UNK N   1      22.482  19.279   3.397  0.00  0.00    -0.047 A 
HETATM    4  C   UNK N   1      23.019  20.403   2.755  0.00  0.00     0.008 A 
HETATM    5  C   UNK N   1      24.390  20.666   2.834  0.00  0.00     0.007 A 
HETATM    6  C   UNK N   1      25.230  19.806   3.549  0.00  0.00    -0.058 A 
HETATM    7  C   UNK N   1      24.704  18.662   4.157  0.00  0.00     0.007 A 
HETATM    8  C   UNK N   1      23.337  18.399   4.082  0.00  0.00     0.008 A 
BRANCH   6   9
HETATM    9  C   UNK N   1      26.675  20.153   3.714  0.00  0.00     0.042 C 
BRANCH   9  10
HETATM   10  C   UNK N   1      27.205  19.728   5.086  0.00  0.00    -0.019 C 
HETATM   11  C   UNK N   1      28.428  18.855   4.906  0.00  0.00     0.010 C 
HETATM   12  C   UNK N   1      27.575  20.923   5.950  0.00  0.00     0.010 C 
ENDBRANCH   9  10
ENDBRANCH   6   9
ENDBRANCH   2   3
BRANCH   2  13
HETATM   13  C   UNK N   1      20.564  18.159   2.277  0.00  0.00     0.133 C 
HETATM   14  N   UNK N   1      20.440  16.884   2.475  0.00  0.00    -0.268 N 
ATOM     15  HN  UNK N   1      20.665  16.499   3.392  1.00  0.00     0.180 HD
BRANCH  14  16
HETATM   16  S   UNK N   1      19.894  15.798   1.197  0.00  0.00     0.228 S 
HETATM   17  C   UNK N   1      20.414  14.092   0.868  0.00  0.00     0.186 C 
HETATM   18  O   UNK N   1      19.849  14.907   2.448  0.00  0.00    -0.206 OA
HETATM   19  O   UNK N   1      21.401  15.781   0.888  0.00  0.00    -0.206 OA
ENDBRANCH  14  16
BRANCH  13  20
HETATM   20  O   UNK N   1      20.324  18.671   1.054  0.00  0.00    -0.348 OA
HETATM   21  H   UNK N   1      20.810  18.373   0.309  0.00  0.00     0.219 HD
ENDBRANCH  13  20
ENDBRANCH   2  13
TORSDOF 6
ENDMDL
MODEL 4
REMARK VINA RESULT:      -5.8      5.611     11.404
REMARK  6 active torsions:
REMARK  status: ('A' for Active; 'I' for Inactive)
REMARK    1  A    between atoms: C_10  and  C_9 
REMARK    2  A    between atoms: C_12  and  C_9 
REMARK    3  A    between atoms: C_13  and  C_11 
REMARK    4  A    between atoms: C_14  and  C_11 
REMARK    5  A    between atoms: O_17  and  C_14 
REMARK    6  A    between atoms: N_15  and  S_20 
ROOT
HETATM    1  C   UNK N   1      34.049  18.309   8.132  0.00  0.00     0.023 C 
HETATM    2  C   UNK N   1      33.346  17.021   7.733  0.00  0.00     0.090 C 
ENDROOT
BRANCH   2   3
HETATM    3  C   UNK N   1      31.874  17.287   7.513  0.00  0.00    -0.047 A 
HETATM    4  C   UNK N   1      31.103  17.861   8.533  0.00  0.00     0.008 A 
HETATM    5  C   UNK N   1      29.772  18.215   8.291  0.00  0.00     0.007 A 
HETATM    6  C   UNK N   1      29.205  17.992   7.032  0.00  0.00    -0.058 A 
HETATM    7  C   UNK N   1      29.958  17.383   6.024  0.00  0.00     0.007 A 
HETATM    8  C   UNK N   1      31.287  17.031   6.263  0.00  0.00     0.008 A 
BRANCH   6   9
HETATM    9  C   UNK N   1      27.816  18.468   6.752  0.00  0.00     0.042 C 
BRANCH   9  10
HETATM   10  C   UNK N   1      27.813  19.849   6.092  0.00  0.00    -0.019 C 
HETATM   11  C   UNK N   1      27.437  19.710   4.633  0.00  0.00     0.010 C 
HETATM   12  C   UNK N   1      26.837  20.802   6.764  0.00  0.00     0.010 C 
ENDBRANCH   9  10
ENDBRANCH   6   9
ENDBRANCH   2   3
BRANCH   2  13
HETATM   13  C   UNK N   1      33.540  15.960   8.799  0.00  0.00     0.133 C 
HETATM   14  N   UNK N   1      34.293  16.207   9.823  0.00  0.00    -0.268 N 
ATOM     15  HN  UNK N   1      34.777  17.103   9.880  1.00  0.00     0.180 HD
BRANCH  14  16
HETATM   16  S   UNK N   1      34.506  15.033  11.122  0.00  0.00     0.228 S 
HETATM   17  C   UNK N   1      36.044  14.497  11.918  0.00  0.00     0.186 C 
HETATM   18  O   UNK N   1      35.384  16.208  11.575  0.00  0.00    -0.206 OA
HETATM   19  O   UNK N   1      35.420  14.382  10.068  0.00  0.00    -0.206 OA
ENDBRANCH  14  16
BRANCH  13  20
HETATM   20  O   UNK N   1      32.941  14.758   8.685  0.00  0.00    -0.348 OA
HETATM   21  H   UNK N   1      33.354  13.987   9.021  0.00  0.00     0.219 HD
ENDBRANCH  13  20
ENDBRANCH   2  13
TORSDOF 6
ENDMDL
MODEL 5
REMARK VINA RESULT:      -5.8      2.045      3.401
REMARK  6 active torsions:
REMARK  status: ('A' for Active; 'I' for Inactive)
REMARK    1  A    between atoms: C_10  and  C_9 
REMARK    2  A    between atoms: C_12  and  C_9 
REMARK    3  A    between atoms: C_13  and  C_11 
REMARK    4  A    between atoms: C_14  and  C_11 
REMARK    5  A    between atoms: O_17  and  C_14 
REMARK    6  A    between atoms: N_15  and  S_20 
ROOT
HETATM    1  C   UNK N   1      35.846  14.586  17.741  0.00  0.00     0.023 C 
HETATM    2  C   UNK N   1      35.211  13.561  16.814  0.00  0.00     0.090 C 
ENDROOT
BRANCH   2   3
HETATM    3  C   UNK N   1      35.215  12.201  17.471  0.00  0.00    -0.047 A 
HETATM    4  C   UNK N   1      35.387  12.090  18.858  0.00  0.00     0.008 A 
HETATM    5  C   UNK N   1      35.273  10.843  19.481  0.00  0.00     0.007 A 
HETATM    6  C   UNK N   1      34.993   9.702  18.721  0.00  0.00    -0.058 A 
HETATM    7  C   UNK N   1      34.862   9.802  17.333  0.00  0.00     0.007 A 
HETATM    8  C   UNK N   1      34.972  11.045  16.710  0.00  0.00     0.008 A 
BRANCH   6   9
HETATM    9  C   UNK N   1      34.771   8.393  19.408  0.00  0.00     0.042 C 
BRANCH   9  10
HETATM   10  C   UNK N   1      33.331   7.904  19.241  0.00  0.00    -0.019 C 
HETATM   11  C   UNK N   1      33.259   6.428  19.568  0.00  0.00     0.010 C 
HETATM   12  C   UNK N   1      32.363   8.656  20.141  0.00  0.00     0.010 C 
ENDBRANCH   9  10
ENDBRANCH   6   9
ENDBRANCH   2   3
BRANCH   2  13
HETATM   13  C   UNK N   1      35.953  13.513  15.491  0.00  0.00     0.133 C 
HETATM   14  N   UNK N   1      35.288  13.547  14.379  0.00  0.00    -0.268 N 
ATOM     15  HN  UNK N   1      34.269  13.568  14.410  1.00  0.00     0.180 HD
BRANCH  14  16
HETATM   16  S   UNK N   1      36.102  13.555  12.814  0.00  0.00     0.228 S 
HETATM   17  C   UNK N   1      36.020  14.808  11.506  0.00  0.00     0.186 C 
HETATM   18  O   UNK N   1      36.345  14.979  13.335  0.00  0.00    -0.206 OA
HETATM   19  O   UNK N   1      34.649  13.675  12.322  0.00  0.00    -0.206 OA
ENDBRANCH  14  16
BRANCH  13  20
HETATM   20  O   UNK N   1      37.297  13.427  15.463  0.00  0.00    -0.348 OA
HETATM   21  H   UNK N   1      37.785  13.821  14.766  0.00  0.00     0.219 HD
ENDBRANCH  13  20
ENDBRANCH   2  13
TORSDOF 6
ENDMDL
MODEL 6
REMARK VINA RESULT:      -5.7      2.096      2.608
REMARK  6 active torsions:
REMARK  status: ('A' for Active; 'I' for Inactive)
REMARK    1  A    between atoms: C_10  and  C_9 
REMARK    2  A    between atoms: C_12  and  C_9 
REMARK    3  A    between atoms: C_13  and  C_11 
REMARK    4  A    between atoms: C_14  and  C_11 
REMARK    5  A    between atoms: O_17  and  C_14 
REMARK    6  A    between atoms: N_15  and  S_20 
ROOT
HETATM    1  C   UNK N   1      37.166  14.614  15.358  0.00  0.00     0.023 C 
HETATM    2  C   UNK N   1      35.825  13.908  15.227  0.00  0.00     0.090 C 
ENDROOT
BRANCH   2   3
HETATM    3  C   UNK N   1      35.688  12.861  16.308  0.00  0.00    -0.047 A 
HETATM    4  C   UNK N   1      36.163  11.561  16.092  0.00  0.00     0.008 A 
HETATM    5  C   UNK N   1      36.143  10.626  17.132  0.00  0.00     0.007 A 
HETATM    6  C   UNK N   1      35.644  10.984  18.389  0.00  0.00    -0.058 A 
HETATM    7  C   UNK N   1      35.132  12.268  18.596  0.00  0.00     0.007 A 
HETATM    8  C   UNK N   1      35.153  13.203  17.561  0.00  0.00     0.008 A 
BRANCH   6   9
HETATM    9  C   UNK N   1      35.723  10.011  19.520  0.00  0.00     0.042 C 
BRANCH   9  10
HETATM   10  C   UNK N   1      34.340   9.710  20.104  0.00  0.00    -0.019 C 
HETATM   11  C   UNK N   1      33.607   8.748  19.194  0.00  0.00     0.010 C 
HETATM   12  C   UNK N   1      34.427   9.102  21.495  0.00  0.00     0.010 C 
ENDBRANCH   9  10
ENDBRANCH   6   9
ENDBRANCH   2   3
BRANCH   2  13
HETATM   13  C   UNK N   1      35.694  13.274  13.855  0.00  0.00     0.133 C 
HETATM   14  N   UNK N   1      36.739  13.152  13.100  0.00  0.00    -0.268 N 
ATOM     15  HN  UNK N   1      37.634  13.518  13.426  1.00  0.00     0.180 HD
BRANCH  14  16
HETATM   16  S   UNK N   1      36.655  12.369  11.522  0.00  0.00     0.228 S 
HETATM   17  C   UNK N   1      37.683  11.022  10.874  0.00  0.00     0.186 C 
HETATM   18  O   UNK N   1      36.762  11.180  12.489  0.00  0.00    -0.206 OA
HETATM   19  O   UNK N   1      38.122  12.831  11.474  0.00  0.00    -0.206 OA
ENDBRANCH  14  16
BRANCH  13  20
HETATM   20  O   UNK N   1      34.496  12.845  13.412  0.00  0.00    -0.348 OA
HETATM   21  H   UNK N   1      34.213  11.967  13.579  0.00  0.00     0.219 HD
ENDBRANCH  13  20
ENDBRANCH   2  13
TORSDOF 6
ENDMDL
MODEL 7
REMARK VINA RESULT:      -5.6     15.170     18.866
REMARK  6 active torsions:
REMARK  status: ('A' for Active; 'I' for Inactive)
REMARK    1  A    between atoms: C_10  and  C_9 
REMARK    2  A    between atoms: C_12  and  C_9 
REMARK    3  A    between atoms: C_13  and  C_11 
REMARK    4  A    between atoms: C_14  and  C_11 
REMARK    5  A    between atoms: O_17  and  C_14 
REMARK    6  A    between atoms: N_15  and  S_20 
ROOT
HETATM    1  C   UNK N   1      18.622  16.886   8.683  0.00  0.00     0.023 C 
HETATM    2  C   UNK N   1      20.062  16.408   8.581  0.00  0.00     0.090 C 
ENDROOT
BRANCH   2   3
HETATM    3  C   UNK N   1      20.477  16.333   7.130  0.00  0.00    -0.047 A 
HETATM    4  C   UNK N   1      19.759  15.530   6.234  0.00  0.00     0.008 A 
HETATM    5  C   UNK N   1      20.069  15.551   4.871  0.00  0.00     0.007 A 
HETATM    6  C   UNK N   1      21.099  16.370   4.398  0.00  0.00    -0.058 A 
HETATM    7  C   UNK N   1      21.845  17.141   5.294  0.00  0.00     0.007 A 
HETATM    8  C   UNK N   1      21.536  17.124   6.654  0.00  0.00     0.008 A 
BRANCH   6   9
HETATM    9  C   UNK N   1      21.354  16.463   2.928  0.00  0.00     0.042 C 
BRANCH   9  10
HETATM   10  C   UNK N   1      20.205  17.164   2.199  0.00  0.00    -0.019 C 
HETATM   11  C   UNK N   1      20.442  18.659   2.202  0.00  0.00     0.010 C 
HETATM   12  C   UNK N   1      20.067  16.690   0.760  0.00  0.00     0.010 C 
ENDBRANCH   9  10
ENDBRANCH   6   9
ENDBRANCH   2   3
BRANCH   2  13
HETATM   13  C   UNK N   1      20.219  15.055   9.249  0.00  0.00     0.133 C 
HETATM   14  N   UNK N   1      21.401  14.542   9.393  0.00  0.00    -0.268 N 
ATOM     15  HN  UNK N   1      22.208  15.042   9.022  1.00  0.00     0.180 HD
BRANCH  14  16
HETATM   16  S   UNK N   1      21.647  13.001  10.215  0.00  0.00     0.228 S 
HETATM   17  C   UNK N   1      22.721  11.622   9.730  0.00  0.00     0.186 C 
HETATM   18  O   UNK N   1      23.079  13.447   9.885  0.00  0.00    -0.206 OA
HETATM   19  O   UNK N   1      21.192  12.465   8.846  0.00  0.00    -0.206 OA
ENDBRANCH  14  16
BRANCH  13  20
HETATM   20  O   UNK N   1      19.139  14.378   9.685  0.00  0.00    -0.348 OA
HETATM   21  H   UNK N   1      19.238  13.644  10.260  0.00  0.00     0.219 HD
ENDBRANCH  13  20
ENDBRANCH   2  13
TORSDOF 6
ENDMDL
MODEL 8
REMARK VINA RESULT:      -5.5      6.093      9.012
REMARK  6 active torsions:
REMARK  status: ('A' for Active; 'I' for Inactive)
REMARK    1  A    between atoms: C_10  and  C_9 
REMARK    2  A    between atoms: C_12  and  C_9 
REMARK    3  A    between atoms: C_13  and  C_11 
REMARK    4  A    between atoms: C_14  and  C_11 
REMARK    5  A    between atoms: O_17  and  C_14 
REMARK    6  A    between atoms: N_15  and  S_20 
ROOT
HETATM    1  C   UNK N   1      36.930  10.555  21.110  0.00  0.00     0.023 C 
HETATM    2  C   UNK N   1      35.772   9.977  20.311  0.00  0.00     0.090 C 
ENDROOT
BRANCH   2   3
HETATM    3  C   UNK N   1      35.476  10.862  19.123  0.00  0.00    -0.047 A 
HETATM    4  C   UNK N   1      35.304  12.242  19.298  0.00  0.00     0.008 A 
HETATM    5  C   UNK N   1      35.148  13.076  18.187  0.00  0.00     0.007 A 
HETATM    6  C   UNK N   1      35.158  12.536  16.897  0.00  0.00    -0.058 A 
HETATM    7  C   UNK N   1      35.289  11.155  16.719  0.00  0.00     0.007 A 
HETATM    8  C   UNK N   1      35.447  10.322  17.826  0.00  0.00     0.008 A 
BRANCH   6   9
HETATM    9  C   UNK N   1      35.095  13.446  15.713  0.00  0.00     0.042 C 
BRANCH   9  10
HETATM   10  C   UNK N   1      36.476  13.659  15.089  0.00  0.00    -0.019 C 
HETATM   11  C   UNK N   1      36.331  13.846  13.594  0.00  0.00     0.010 C 
HETATM   12  C   UNK N   1      37.185  14.873  15.670  0.00  0.00     0.010 C 
ENDBRANCH   9  10
ENDBRANCH   6   9
ENDBRANCH   2   3
BRANCH   2  13
HETATM   13  C   UNK N   1      34.542   9.837  21.187  0.00  0.00     0.133 C 
HETATM   14  N   UNK N   1      34.646   9.985  22.471  0.00  0.00    -0.268 N 
ATOM     15  HN  UNK N   1      35.565  10.157  22.878  1.00  0.00     0.180 HD
BRANCH  14  16
HETATM   16  S   UNK N   1      33.239   9.893  23.530  0.00  0.00     0.228 S 
HETATM   17  C   UNK N   1      33.012   8.883  25.019  0.00  0.00     0.186 C 
HETATM   18  O   UNK N   1      34.407  10.016  24.520  0.00  0.00    -0.206 OA
HETATM   19  O   UNK N   1      33.342   8.405  23.150  0.00  0.00    -0.206 OA
ENDBRANCH  14  16
BRANCH  13  20
HETATM   20  O   UNK N   1      33.343   9.553  20.643  0.00  0.00    -0.348 OA
HETATM   21  H   UNK N   1      32.916  10.171  20.082  0.00  0.00     0.219 HD
ENDBRANCH  13  20
ENDBRANCH   2  13
TORSDOF 6
ENDMDL
MODEL 9
REMARK VINA RESULT:      -5.4      1.916      2.940
REMARK  6 active torsions:
REMARK  status: ('A' for Active; 'I' for Inactive)
REMARK    1  A    between atoms: C_10  and  C_9 
REMARK    2  A    between atoms: C_12  and  C_9 
REMARK    3  A    between atoms: C_13  and  C_11 
REMARK    4  A    between atoms: C_14  and  C_11 
REMARK    5  A    between atoms: O_17  and  C_14 
REMARK    6  A    between atoms: N_15  and  S_20 
ROOT
HETATM    1  C   UNK N   1      36.931  12.303  10.516  0.00  0.00     0.023 C 
HETATM    2  C   UNK N   1      37.046  13.558  11.367  0.00  0.00     0.090 C 
ENDROOT
BRANCH   2   3
HETATM    3  C   UNK N   1      36.305  13.365  12.670  0.00  0.00    -0.047 A 
HETATM    4  C   UNK N   1      35.256  12.440  12.753  0.00  0.00     0.008 A 
HETATM    5  C   UNK N   1      34.650  12.176  13.985  0.00  0.00     0.007 A 
HETATM    6  C   UNK N   1      35.086  12.838  15.138  0.00  0.00    -0.058 A 
HETATM    7  C   UNK N   1      36.105  13.791  15.053  0.00  0.00     0.007 A 
HETATM    8  C   UNK N   1      36.713  14.054  13.825  0.00  0.00     0.008 A 
BRANCH   6   9
HETATM    9  C   UNK N   1      34.503  12.473  16.465  0.00  0.00     0.042 C 
BRANCH   9  10
HETATM   10  C   UNK N   1      35.464  11.612  17.288  0.00  0.00    -0.019 C 
HETATM   11  C   UNK N   1      35.302  11.938  18.757  0.00  0.00     0.010 C 
HETATM   12  C   UNK N   1      35.219  10.126  17.083  0.00  0.00     0.010 C 
ENDBRANCH   9  10
ENDBRANCH   6   9
ENDBRANCH   2   3
BRANCH   2  13
HETATM   13  C   UNK N   1      36.496  14.757  10.617  0.00  0.00     0.133 C 
HETATM   14  N   UNK N   1      35.553  14.592   9.743  0.00  0.00    -0.268 N 
ATOM     15  HN  UNK N   1      35.219  13.649   9.544  1.00  0.00     0.180 HD
BRANCH  14  16
HETATM   16  S   UNK N   1      34.836  15.957   8.887  0.00  0.00     0.228 S 
HETATM   17  C   UNK N   1      33.083  16.389   8.721  0.00  0.00     0.186 C 
HETATM   18  O   UNK N   1      34.093  15.966  10.231  0.00  0.00    -0.206 OA
HETATM   19  O   UNK N   1      34.102  14.815   8.162  0.00  0.00    -0.206 OA
ENDBRANCH  14  16
BRANCH  13  20
HETATM   20  O   UNK N   1      36.985  15.991  10.848  0.00  0.00    -0.348 OA
HETATM   21  H   UNK N   1      37.883  16.189  10.664  0.00  0.00     0.219 HD
ENDBRANCH  13  20
ENDBRANCH   2  13
TORSDOF 6
ENDMDL
