MODEL 1
REMARK VINA RESULT:      -8.7      0.000      0.000
REMARK  5 active torsions:
REMARK  status: ('A' for Active; 'I' for Inactive)
REMARK    1  A    between atoms: C_2  and  C_3 
REMARK    2  A    between atoms: C_2  and  O_16 
REMARK    3  A    between atoms: C_5  and  C_9 
REMARK    4  A    between atoms: O_16  and  C_17 
REMARK    5  A    between atoms: C_22  and  C_25 
ROOT
HETATM    1  O   UNK N   1      34.706  14.550  11.771  0.00  0.00    -0.309 OA
ENDROOT
BRANCH   1   2
HETATM    2  C   UNK N   1      35.793  13.722  12.019  0.00  0.00     0.179 C 
HETATM    3  C   UNK N   1      35.631  12.291  11.521  0.00  0.00     0.047 C 
BRANCH   2   4
HETATM    4  C   UNK N   1      36.054  13.735  13.491  0.00  0.00     0.064 A 
HETATM    5  C   UNK N   1      35.502  12.860  14.406  0.00  0.00     0.070 A 
HETATM    6  C   UNK N   1      35.974  13.320  15.613  0.00  0.00     0.111 A 
HETATM    7  O   UNK N   1      36.738  14.369  15.405  0.00  0.00    -0.237 OA
HETATM    8  N   UNK N   1      36.807  14.647  14.136  0.00  0.00    -0.262 N 
ATOM      9  HN  UNK N   1      37.332  15.410  13.709  1.00  0.00     0.194 HD
BRANCH   6  10
HETATM   10  C   UNK N   1      35.617  12.779  16.931  0.00  0.00     0.001 A 
HETATM   11  C   UNK N   1      35.396  13.644  18.014  0.00  0.00     0.014 A 
HETATM   12  C   UNK N   1      35.108  13.128  19.279  0.00  0.00     0.003 A 
HETATM   13  C   UNK N   1      35.050  11.746  19.472  0.00  0.00     0.024 A 
HETATM   14  C   UNK N   1      35.271  10.880  18.396  0.00  0.00     0.035 A 
HETATM   15  C   UNK N   1      35.553  11.396  17.128  0.00  0.00     0.038 A 
HETATM   16 Cl   UNK N   1      35.218   9.149  18.641  0.00  0.00    -0.084 Cl
ENDBRANCH   6  10
ENDBRANCH   2   4
ENDBRANCH   1   2
BRANCH   1  17
HETATM   17  C   UNK N   1      34.544  15.507  10.830  0.00  0.00     0.242 A 
HETATM   18  N   UNK N   1      34.940  16.792  10.935  0.00  0.00    -0.263 N 
HETATM   19  N   UNK N   1      34.539  17.411   9.833  0.00  0.00    -0.281 N 
ATOM     20  HN  UNK N   1      35.452  17.208  11.712  1.00  0.00     0.190 HD
HETATM   21  C   UNK N   1      33.907  16.496   9.063  0.00  0.00     0.135 A 
ATOM     22  HN  UNK N   1      34.681  18.396   9.608  1.00  0.00     0.188 HD
HETATM   23  N   UNK N   1      33.909  15.294   9.670  0.00  0.00    -0.300 N 
HETATM   24  C   UNK N   1      33.334  14.030   9.228  0.00  0.00     0.161 C 
BRANCH  21  25
HETATM   25  C   UNK N   1      33.265  16.817   7.771  0.00  0.00     0.012 A 
HETATM   26  C   UNK N   1      31.869  16.847   7.680  0.00  0.00     0.032 A 
HETATM   27  C   UNK N   1      31.263  17.093   6.447  0.00  0.00     0.088 A 
HETATM   28  N   UNK N   1      32.025  17.307   5.340  0.00  0.00    -0.375 N 
HETATM   29  C   UNK N   1      33.383  17.292   5.403  0.00  0.00     0.088 A 
ATOM     30  HN  UNK N   1      31.569  17.483   4.445  1.00  0.00     0.164 HD
HETATM   31  C   UNK N   1      34.025  17.040   6.617  0.00  0.00     0.032 A 
ENDBRANCH  21  25
ENDBRANCH   1  17
TORSDOF 5
ENDMDL
MODEL 2
REMARK VINA RESULT:      -8.4      0.994      1.645
REMARK  5 active torsions:
REMARK  status: ('A' for Active; 'I' for Inactive)
REMARK    1  A    between atoms: C_2  and  C_3 
REMARK    2  A    between atoms: C_2  and  O_16 
REMARK    3  A    between atoms: C_5  and  C_9 
REMARK    4  A    between atoms: O_16  and  C_17 
REMARK    5  A    between atoms: C_22  and  C_25 
ROOT
HETATM    1  O   UNK N   1      35.054  14.675  11.525  0.00  0.00    -0.309 OA
ENDROOT
BRANCH   1   2
HETATM    2  C   UNK N   1      36.283  14.099  11.817  0.00  0.00     0.179 C 
HETATM    3  C   UNK N   1      36.517  12.736  11.176  0.00  0.00     0.047 C 
BRANCH   2   4
HETATM    4  C   UNK N   1      36.402  14.001  13.305  0.00  0.00     0.064 A 
HETATM    5  C   UNK N   1      36.019  12.913  14.065  0.00  0.00     0.070 A 
HETATM    6  C   UNK N   1      36.248  13.330  15.356  0.00  0.00     0.111 A 
HETATM    7  O   UNK N   1      36.727  14.553  15.335  0.00  0.00    -0.237 OA
HETATM    8  N   UNK N   1      36.832  14.988  14.113  0.00  0.00    -0.262 N 
ATOM      9  HN  UNK N   1      37.175  15.904  13.822  1.00  0.00     0.194 HD
BRANCH   6  10
HETATM   10  C   UNK N   1      35.931  12.564  16.568  0.00  0.00     0.001 A 
HETATM   11  C   UNK N   1      36.016  11.164  16.562  0.00  0.00     0.014 A 
HETATM   12  C   UNK N   1      35.664  10.432  17.699  0.00  0.00     0.003 A 
HETATM   13  C   UNK N   1      35.216  11.095  18.844  0.00  0.00     0.024 A 
HETATM   14  C   UNK N   1      35.129  12.491  18.854  0.00  0.00     0.035 A 
HETATM   15  C   UNK N   1      35.487  13.224  17.719  0.00  0.00     0.038 A 
HETATM   16 Cl   UNK N   1      34.550  13.320  20.280  0.00  0.00    -0.084 Cl
ENDBRANCH   6  10
ENDBRANCH   2   4
ENDBRANCH   1   2
BRANCH   1  17
HETATM   17  C   UNK N   1      34.736  15.615  10.606  0.00  0.00     0.242 A 
HETATM   18  N   UNK N   1      34.976  16.938  10.715  0.00  0.00    -0.263 N 
HETATM   19  N   UNK N   1      34.455  17.514   9.640  0.00  0.00    -0.281 N 
ATOM     20  HN  UNK N   1      35.465  17.406  11.477  1.00  0.00     0.190 HD
HETATM   21  C   UNK N   1      33.908  16.536   8.883  0.00  0.00     0.135 A 
ATOM     22  HN  UNK N   1      34.465  18.511   9.425  1.00  0.00     0.188 HD
HETATM   23  N   UNK N   1      34.083  15.337   9.470  0.00  0.00    -0.300 N 
HETATM   24  C   UNK N   1      33.650  14.017   9.032  0.00  0.00     0.161 C 
BRANCH  21  25
HETATM   25  C   UNK N   1      33.177  16.789   7.623  0.00  0.00     0.012 A 
HETATM   26  C   UNK N   1      33.889  17.074   6.453  0.00  0.00     0.032 A 
HETATM   27  C   UNK N   1      33.195  17.371   5.278  0.00  0.00     0.088 A 
HETATM   28  N   UNK N   1      31.835  17.377   5.270  0.00  0.00    -0.375 N 
HETATM   29  C   UNK N   1      31.119  17.094   6.390  0.00  0.00     0.088 A 
ATOM     30  HN  UNK N   1      31.342  17.598   4.405  1.00  0.00     0.164 HD
HETATM   31  C   UNK N   1      31.777  16.803   7.587  0.00  0.00     0.032 A 
ENDBRANCH  21  25
ENDBRANCH   1  17
TORSDOF 5
ENDMDL
MODEL 3
REMARK VINA RESULT:      -8.0      1.733      2.516
REMARK  5 active torsions:
REMARK  status: ('A' for Active; 'I' for Inactive)
REMARK    1  A    between atoms: C_2  and  C_3 
REMARK    2  A    between atoms: C_2  and  O_16 
REMARK    3  A    between atoms: C_5  and  C_9 
REMARK    4  A    between atoms: O_16  and  C_17 
REMARK    5  A    between atoms: C_22  and  C_25 
ROOT
HETATM    1  O   UNK N   1      35.403  15.292  10.017  0.00  0.00    -0.309 OA
ENDROOT
BRANCH   1   2
HETATM    2  C   UNK N   1      36.121  14.155  10.363  0.00  0.00     0.179 C 
HETATM    3  C   UNK N   1      35.543  12.849   9.829  0.00  0.00     0.047 C 
BRANCH   2   4
HETATM    4  C   UNK N   1      36.217  14.109  11.855  0.00  0.00     0.064 A 
HETATM    5  C   UNK N   1      36.000  12.989  12.633  0.00  0.00     0.070 A 
HETATM    6  C   UNK N   1      36.125  13.464  13.918  0.00  0.00     0.111 A 
HETATM    7  O   UNK N   1      36.396  14.749  13.877  0.00  0.00    -0.237 OA
HETATM    8  N   UNK N   1      36.458  15.170  12.648  0.00  0.00    -0.262 N 
ATOM      9  HN  UNK N   1      36.652  16.124  12.341  1.00  0.00     0.194 HD
BRANCH   6  10
HETATM   10  C   UNK N   1      35.909  12.682  15.142  0.00  0.00     0.001 A 
HETATM   11  C   UNK N   1      35.913  11.280  15.094  0.00  0.00     0.014 A 
HETATM   12  C   UNK N   1      35.655  10.535  16.248  0.00  0.00     0.003 A 
HETATM   13  C   UNK N   1      35.382  11.189  17.452  0.00  0.00     0.024 A 
HETATM   14  C   UNK N   1      35.376  12.586  17.504  0.00  0.00     0.035 A 
HETATM   15  C   UNK N   1      35.640  13.331  16.352  0.00  0.00     0.038 A 
HETATM   16 Cl   UNK N   1      35.015  13.404  19.007  0.00  0.00    -0.084 Cl
ENDBRANCH   6  10
ENDBRANCH   2   4
ENDBRANCH   1   2
BRANCH   1  17
HETATM   17  C   UNK N   1      34.072  15.455   9.843  0.00  0.00     0.242 A 
HETATM   18  N   UNK N   1      33.104  14.931  10.622  0.00  0.00    -0.263 N 
HETATM   19  N   UNK N   1      31.944  15.270  10.077  0.00  0.00    -0.281 N 
ATOM     20  HN  UNK N   1      33.238  14.381  11.469  1.00  0.00     0.190 HD
HETATM   21  C   UNK N   1      32.216  16.004   8.974  0.00  0.00     0.135 A 
ATOM     22  HN  UNK N   1      31.018  15.024  10.426  1.00  0.00     0.188 HD
HETATM   23  N   UNK N   1      33.546  16.136   8.817  0.00  0.00    -0.300 N 
HETATM   24  C   UNK N   1      34.294  16.820   7.769  0.00  0.00     0.161 C 
BRANCH  21  25
HETATM   25  C   UNK N   1      31.176  16.520   8.058  0.00  0.00     0.012 A 
HETATM   26  C   UNK N   1      30.305  17.524   8.495  0.00  0.00     0.032 A 
HETATM   27  C   UNK N   1      29.286  17.970   7.650  0.00  0.00     0.088 A 
HETATM   28  N   UNK N   1      29.145  17.434   6.407  0.00  0.00    -0.375 N 
HETATM   29  C   UNK N   1      29.984  16.465   5.955  0.00  0.00     0.088 A 
ATOM     30  HN  UNK N   1      28.395  17.768   5.802  1.00  0.00     0.164 HD
HETATM   31  C   UNK N   1      31.008  15.987   6.775  0.00  0.00     0.032 A 
ENDBRANCH  21  25
ENDBRANCH   1  17
TORSDOF 5
ENDMDL
MODEL 4
REMARK VINA RESULT:      -7.7      5.668     11.230
REMARK  5 active torsions:
REMARK  status: ('A' for Active; 'I' for Inactive)
REMARK    1  A    between atoms: C_2  and  C_3 
REMARK    2  A    between atoms: C_2  and  O_16 
REMARK    3  A    between atoms: C_5  and  C_9 
REMARK    4  A    between atoms: O_16  and  C_17 
REMARK    5  A    between atoms: C_22  and  C_25 
ROOT
HETATM    1  O   UNK N   1      31.679  15.884   7.973  0.00  0.00    -0.309 OA
ENDROOT
BRANCH   1   2
HETATM    2  C   UNK N   1      31.625  15.609   6.613  0.00  0.00     0.179 C 
HETATM    3  C   UNK N   1      32.840  16.078   5.820  0.00  0.00     0.047 C 
BRANCH   2   4
HETATM    4  C   UNK N   1      30.378  16.228   6.068  0.00  0.00     0.064 A 
HETATM    5  C   UNK N   1      30.071  17.573   6.112  0.00  0.00     0.070 A 
HETATM    6  C   UNK N   1      28.808  17.631   5.568  0.00  0.00     0.111 A 
HETATM    7  O   UNK N   1      28.427  16.418   5.237  0.00  0.00    -0.237 OA
HETATM    8  N   UNK N   1      29.350  15.547   5.526  0.00  0.00    -0.262 N 
ATOM      9  HN  UNK N   1      29.304  14.540   5.371  1.00  0.00     0.194 HD
BRANCH   6  10
HETATM   10  C   UNK N   1      27.984  18.840   5.452  0.00  0.00     0.001 A 
HETATM   11  C   UNK N   1      27.770  19.660   6.570  0.00  0.00     0.014 A 
HETATM   12  C   UNK N   1      26.943  20.782   6.472  0.00  0.00     0.003 A 
HETATM   13  C   UNK N   1      26.317  21.084   5.260  0.00  0.00     0.024 A 
HETATM   14  C   UNK N   1      26.527  20.268   4.144  0.00  0.00     0.035 A 
HETATM   15  C   UNK N   1      27.359  19.149   4.238  0.00  0.00     0.038 A 
HETATM   16 Cl   UNK N   1      25.729  20.635   2.631  0.00  0.00    -0.084 Cl
ENDBRANCH   6  10
ENDBRANCH   2   4
ENDBRANCH   1   2
BRANCH   1  17
HETATM   17  C   UNK N   1      32.751  16.015   8.788  0.00  0.00     0.242 A 
HETATM   18  N   UNK N   1      33.283  17.180   9.209  0.00  0.00    -0.263 N 
HETATM   19  N   UNK N   1      34.353  16.877   9.932  0.00  0.00    -0.281 N 
ATOM     20  HN  UNK N   1      32.931  18.116   9.012  1.00  0.00     0.190 HD
HETATM   21  C   UNK N   1      34.459  15.529   9.949  0.00  0.00     0.135 A 
ATOM     22  HN  UNK N   1      34.980  17.539  10.390  1.00  0.00     0.188 HD
HETATM   23  N   UNK N   1      33.457  14.972   9.243  0.00  0.00    -0.300 N 
HETATM   24  C   UNK N   1      33.179  13.567   8.974  0.00  0.00     0.161 C 
BRANCH  21  25
HETATM   25  C   UNK N   1      35.565  14.803  10.609  0.00  0.00     0.012 A 
HETATM   26  C   UNK N   1      36.695  14.441   9.869  0.00  0.00     0.032 A 
HETATM   27  C   UNK N   1      37.713  13.705  10.478  0.00  0.00     0.088 A 
HETATM   28  N   UNK N   1      37.609  13.347  11.787  0.00  0.00    -0.375 N 
HETATM   29  C   UNK N   1      36.525  13.694  12.532  0.00  0.00     0.088 A 
ATOM     30  HN  UNK N   1      38.359  12.807  12.218  1.00  0.00     0.164 HD
HETATM   31  C   UNK N   1      35.483  14.422  11.954  0.00  0.00     0.032 A 
ENDBRANCH  21  25
ENDBRANCH   1  17
TORSDOF 5
ENDMDL
MODEL 5
REMARK VINA RESULT:      -7.7      3.487     10.019
REMARK  5 active torsions:
REMARK  status: ('A' for Active; 'I' for Inactive)
REMARK    1  A    between atoms: C_2  and  C_3 
REMARK    2  A    between atoms: C_2  and  O_16 
REMARK    3  A    between atoms: C_5  and  C_9 
REMARK    4  A    between atoms: O_16  and  C_17 
REMARK    5  A    between atoms: C_22  and  C_25 
ROOT
HETATM    1  O   UNK N   1      35.739  14.001  12.853  0.00  0.00    -0.309 OA
ENDROOT
BRANCH   1   2
HETATM    2  C   UNK N   1      35.939  13.657  11.523  0.00  0.00     0.179 C 
HETATM    3  C   UNK N   1      37.373  13.278  11.172  0.00  0.00     0.047 C 
BRANCH   2   4
HETATM    4  C   UNK N   1      35.482  14.804  10.678  0.00  0.00     0.064 A 
HETATM    5  C   UNK N   1      34.520  14.732   9.691  0.00  0.00     0.070 A 
HETATM    6  C   UNK N   1      34.514  16.001   9.159  0.00  0.00     0.111 A 
HETATM    7  O   UNK N   1      35.397  16.739   9.794  0.00  0.00    -0.237 OA
HETATM    8  N   UNK N   1      36.000  16.046  10.716  0.00  0.00    -0.262 N 
ATOM      9  HN  UNK N   1      36.726  16.381  11.349  1.00  0.00     0.194 HD
BRANCH   6  10
HETATM   10  C   UNK N   1      33.711  16.441   8.012  0.00  0.00     0.001 A 
HETATM   11  C   UNK N   1      34.338  16.868   6.831  0.00  0.00     0.014 A 
HETATM   12  C   UNK N   1      33.576  17.336   5.758  0.00  0.00     0.003 A 
HETATM   13  C   UNK N   1      32.184  17.390   5.863  0.00  0.00     0.024 A 
HETATM   14  C   UNK N   1      31.555  16.967   7.038  0.00  0.00     0.035 A 
HETATM   15  C   UNK N   1      32.316  16.493   8.110  0.00  0.00     0.038 A 
HETATM   16 Cl   UNK N   1      29.813  17.053   7.176  0.00  0.00    -0.084 Cl
ENDBRANCH   6  10
ENDBRANCH   2   4
ENDBRANCH   1   2
BRANCH   1  17
HETATM   17  C   UNK N   1      35.358  13.232  13.898  0.00  0.00     0.242 A 
HETATM   18  N   UNK N   1      34.392  12.290  13.874  0.00  0.00    -0.263 N 
HETATM   19  N   UNK N   1      34.284  11.816  15.108  0.00  0.00    -0.281 N 
ATOM     20  HN  UNK N   1      33.849  11.998  13.062  1.00  0.00     0.190 HD
HETATM   21  C   UNK N   1      35.190  12.469  15.871  0.00  0.00     0.135 A 
ATOM     22  HN  UNK N   1      33.638  11.093  15.422  1.00  0.00     0.188 HD
HETATM   23  N   UNK N   1      35.878  13.355  15.126  0.00  0.00    -0.300 N 
HETATM   24  C   UNK N   1      36.929  14.283  15.522  0.00  0.00     0.161 C 
BRANCH  21  25
HETATM   25  C   UNK N   1      35.336  12.258  17.327  0.00  0.00     0.012 A 
HETATM   26  C   UNK N   1      35.690  10.994  17.812  0.00  0.00     0.032 A 
HETATM   27  C   UNK N   1      35.771  10.781  19.190  0.00  0.00     0.088 A 
HETATM   28  N   UNK N   1      35.512  11.798  20.055  0.00  0.00    -0.375 N 
HETATM   29  C   UNK N   1      35.175  13.038  19.610  0.00  0.00     0.088 A 
ATOM     30  HN  UNK N   1      35.572  11.627  21.059  1.00  0.00     0.164 HD
HETATM   31  C   UNK N   1      35.075  13.286  18.240  0.00  0.00     0.032 A 
ENDBRANCH  21  25
ENDBRANCH   1  17
TORSDOF 5
ENDMDL
MODEL 6
REMARK VINA RESULT:      -7.6      4.114     10.137
REMARK  5 active torsions:
REMARK  status: ('A' for Active; 'I' for Inactive)
REMARK    1  A    between atoms: C_2  and  C_3 
REMARK    2  A    between atoms: C_2  and  O_16 
REMARK    3  A    between atoms: C_5  and  C_9 
REMARK    4  A    between atoms: O_16  and  C_17 
REMARK    5  A    between atoms: C_22  and  C_25 
ROOT
HETATM    1  O   UNK N   1      34.716  14.738  11.903  0.00  0.00    -0.309 OA
ENDROOT
BRANCH   1   2
HETATM    2  C   UNK N   1      35.023  15.301  10.671  0.00  0.00     0.179 C 
HETATM    3  C   UNK N   1      35.727  16.651  10.745  0.00  0.00     0.047 C 
BRANCH   2   4
HETATM    4  C   UNK N   1      33.752  15.420   9.891  0.00  0.00     0.064 A 
HETATM    5  C   UNK N   1      33.628  16.028   8.658  0.00  0.00     0.070 A 
HETATM    6  C   UNK N   1      32.279  15.953   8.399  0.00  0.00     0.111 A 
HETATM    7  O   UNK N   1      31.682  15.347   9.400  0.00  0.00    -0.237 OA
HETATM    8  N   UNK N   1      32.541  15.013  10.318  0.00  0.00    -0.262 N 
ATOM      9  HN  UNK N   1      32.338  14.533  11.195  1.00  0.00     0.194 HD
BRANCH   6  10
HETATM   10  C   UNK N   1      31.601  16.531   7.232  0.00  0.00     0.001 A 
HETATM   11  C   UNK N   1      30.249  16.899   7.310  0.00  0.00     0.014 A 
HETATM   12  C   UNK N   1      29.590  17.399   6.185  0.00  0.00     0.003 A 
HETATM   13  C   UNK N   1      30.274  17.524   4.973  0.00  0.00     0.024 A 
HETATM   14  C   UNK N   1      31.621  17.157   4.891  0.00  0.00     0.035 A 
HETATM   15  C   UNK N   1      32.284  16.662   6.018  0.00  0.00     0.038 A 
HETATM   16 Cl   UNK N   1      32.473  17.295   3.370  0.00  0.00    -0.084 Cl
ENDBRANCH   6  10
ENDBRANCH   2   4
ENDBRANCH   1   2
BRANCH   1  17
HETATM   17  C   UNK N   1      35.536  14.229  12.850  0.00  0.00     0.242 A 
HETATM   18  N   UNK N   1      36.448  14.924  13.561  0.00  0.00    -0.263 N 
HETATM   19  N   UNK N   1      37.085  14.052  14.329  0.00  0.00    -0.281 N 
ATOM     20  HN  UNK N   1      36.615  15.929  13.516  1.00  0.00     0.190 HD
HETATM   21  C   UNK N   1      36.550  12.833  14.085  0.00  0.00     0.135 A 
ATOM     22  HN  UNK N   1      37.838  14.261  14.985  1.00  0.00     0.188 HD
HETATM   23  N   UNK N   1      35.572  12.928  13.165  0.00  0.00    -0.300 N 
HETATM   24  C   UNK N   1      34.739  11.883  12.585  0.00  0.00     0.161 C 
BRANCH  21  25
HETATM   25  C   UNK N   1      37.037  11.586  14.712  0.00  0.00     0.012 A 
HETATM   26  C   UNK N   1      38.116  10.900  14.144  0.00  0.00     0.032 A 
HETATM   27  C   UNK N   1      38.537   9.691  14.703  0.00  0.00     0.088 A 
HETATM   28  N   UNK N   1      37.905   9.187  15.797  0.00  0.00    -0.375 N 
HETATM   29  C   UNK N   1      36.860   9.838  16.374  0.00  0.00     0.088 A 
ATOM     30  HN  UNK N   1      38.222   8.302  16.193  1.00  0.00     0.164 HD
HETATM   31  C   UNK N   1      36.405  11.044  15.837  0.00  0.00     0.032 A 
ENDBRANCH  21  25
ENDBRANCH   1  17
TORSDOF 5
ENDMDL
MODEL 7
REMARK VINA RESULT:      -7.6      3.630      9.205
REMARK  5 active torsions:
REMARK  status: ('A' for Active; 'I' for Inactive)
REMARK    1  A    between atoms: C_2  and  C_3 
REMARK    2  A    between atoms: C_2  and  O_16 
REMARK    3  A    between atoms: C_5  and  C_9 
REMARK    4  A    between atoms: O_16  and  C_17 
REMARK    5  A    between atoms: C_22  and  C_25 
ROOT
HETATM    1  O   UNK N   1      36.787  12.092  11.374  0.00  0.00    -0.309 OA
ENDROOT
BRANCH   1   2
HETATM    2  C   UNK N   1      37.356  12.647  10.235  0.00  0.00     0.179 C 
HETATM    3  C   UNK N   1      38.857  12.890  10.327  0.00  0.00     0.047 C 
BRANCH   2   4
HETATM    4  C   UNK N   1      36.638  13.925   9.939  0.00  0.00     0.064 A 
HETATM    5  C   UNK N   1      35.590  14.064   9.051  0.00  0.00     0.070 A 
HETATM    6  C   UNK N   1      35.333  15.416   9.069  0.00  0.00     0.111 A 
HETATM    7  O   UNK N   1      36.163  16.001   9.904  0.00  0.00    -0.237 OA
HETATM    8  N   UNK N   1      36.965  15.130  10.445  0.00  0.00    -0.262 N 
ATOM      9  HN  UNK N   1      37.701  15.323  11.124  1.00  0.00     0.194 HD
BRANCH   6  10
HETATM   10  C   UNK N   1      34.346  16.108   8.231  0.00  0.00     0.001 A 
HETATM   11  C   UNK N   1      34.531  16.190   6.843  0.00  0.00     0.014 A 
HETATM   12  C   UNK N   1      33.620  16.893   6.051  0.00  0.00     0.003 A 
HETATM   13  C   UNK N   1      32.525  17.526   6.644  0.00  0.00     0.024 A 
HETATM   14  C   UNK N   1      32.337  17.448   8.028  0.00  0.00     0.035 A 
HETATM   15  C   UNK N   1      33.245  16.739   8.820  0.00  0.00     0.038 A 
HETATM   16 Cl   UNK N   1      30.977  18.256   8.773  0.00  0.00    -0.084 Cl
ENDBRANCH   6  10
ENDBRANCH   2   4
ENDBRANCH   1   2
BRANCH   1  17
HETATM   17  C   UNK N   1      37.071  12.313  12.677  0.00  0.00     0.242 A 
HETATM   18  N   UNK N   1      38.062  11.725  13.379  0.00  0.00    -0.263 N 
HETATM   19  N   UNK N   1      37.961  12.159  14.628  0.00  0.00    -0.281 N 
ATOM     20  HN  UNK N   1      38.756  11.071  13.019  1.00  0.00     0.190 HD
HETATM   21  C   UNK N   1      36.913  13.014  14.674  0.00  0.00     0.135 A 
ATOM     22  HN  UNK N   1      38.562  11.898  15.409  1.00  0.00     0.188 HD
HETATM   23  N   UNK N   1      36.349  13.127  13.457  0.00  0.00    -0.300 N 
HETATM   24  C   UNK N   1      35.195  13.913  13.038  0.00  0.00     0.161 C 
BRANCH  21  25
HETATM   25  C   UNK N   1      36.444  13.667  15.915  0.00  0.00     0.012 A 
HETATM   26  C   UNK N   1      37.011  14.880  16.317  0.00  0.00     0.032 A 
HETATM   27  C   UNK N   1      36.609  15.466  17.519  0.00  0.00     0.088 A 
HETATM   28  N   UNK N   1      35.666  14.862  18.292  0.00  0.00    -0.375 N 
HETATM   29  C   UNK N   1      35.091  13.687  17.920  0.00  0.00     0.088 A 
ATOM     30  HN  UNK N   1      35.383  15.300  19.169  1.00  0.00     0.164 HD
HETATM   31  C   UNK N   1      35.476  13.067  16.729  0.00  0.00     0.032 A 
ENDBRANCH  21  25
ENDBRANCH   1  17
TORSDOF 5
ENDMDL
MODEL 8
REMARK VINA RESULT:      -7.4      2.991      5.256
REMARK  5 active torsions:
REMARK  status: ('A' for Active; 'I' for Inactive)
REMARK    1  A    between atoms: C_2  and  C_3 
REMARK    2  A    between atoms: C_2  and  O_16 
REMARK    3  A    between atoms: C_5  and  C_9 
REMARK    4  A    between atoms: O_16  and  C_17 
REMARK    5  A    between atoms: C_22  and  C_25 
ROOT
HETATM    1  O   UNK N   1      32.620  15.895   7.983  0.00  0.00    -0.309 OA
ENDROOT
BRANCH   1   2
HETATM    2  C   UNK N   1      33.930  16.352   7.929  0.00  0.00     0.179 C 
HETATM    3  C   UNK N   1      34.811  15.640   6.909  0.00  0.00     0.047 C 
BRANCH   2   4
HETATM    4  C   UNK N   1      34.516  16.229   9.299  0.00  0.00     0.064 A 
HETATM    5  C   UNK N   1      34.757  15.040   9.959  0.00  0.00     0.070 A 
HETATM    6  C   UNK N   1      35.214  15.446  11.192  0.00  0.00     0.111 A 
HETATM    7  O   UNK N   1      35.238  16.760  11.230  0.00  0.00    -0.237 OA
HETATM    8  N   UNK N   1      34.822  17.263  10.105  0.00  0.00    -0.262 N 
ATOM      9  HN  UNK N   1      34.743  18.254   9.876  1.00  0.00     0.194 HD
BRANCH   6  10
HETATM   10  C   UNK N   1      35.545  14.559  12.314  0.00  0.00     0.001 A 
HETATM   11  C   UNK N   1      35.101  13.228  12.317  0.00  0.00     0.014 A 
HETATM   12  C   UNK N   1      35.371  12.398  13.408  0.00  0.00     0.003 A 
HETATM   13  C   UNK N   1      36.076  12.898  14.506  0.00  0.00     0.024 A 
HETATM   14  C   UNK N   1      36.519  14.224  14.507  0.00  0.00     0.035 A 
HETATM   15  C   UNK N   1      36.255  15.053  13.413  0.00  0.00     0.038 A 
HETATM   16 Cl   UNK N   1      37.385  14.855  15.890  0.00  0.00    -0.084 Cl
ENDBRANCH   6  10
ENDBRANCH   2   4
ENDBRANCH   1   2
BRANCH   1  17
HETATM   17  C   UNK N   1      31.459  16.584   7.903  0.00  0.00     0.242 A 
HETATM   18  N   UNK N   1      30.909  17.321   8.890  0.00  0.00    -0.263 N 
HETATM   19  N   UNK N   1      29.750  17.774   8.433  0.00  0.00    -0.281 N 
ATOM     20  HN  UNK N   1      31.309  17.497   9.811  1.00  0.00     0.190 HD
HETATM   21  C   UNK N   1      29.607  17.315   7.169  0.00  0.00     0.135 A 
ATOM     22  HN  UNK N   1      29.089  18.362   8.942  1.00  0.00     0.188 HD
HETATM   23  N   UNK N   1      30.674  16.573   6.818  0.00  0.00    -0.300 N 
HETATM   24  C   UNK N   1      30.945  15.869   5.571  0.00  0.00     0.161 C 
BRANCH  21  25
HETATM   25  C   UNK N   1      28.408  17.562   6.340  0.00  0.00     0.012 A 
HETATM   26  C   UNK N   1      27.350  16.646   6.362  0.00  0.00     0.032 A 
HETATM   27  C   UNK N   1      26.244  16.850   5.534  0.00  0.00     0.088 A 
HETATM   28  N   UNK N   1      26.193  17.936   4.716  0.00  0.00    -0.375 N 
HETATM   29  C   UNK N   1      27.202  18.845   4.683  0.00  0.00     0.088 A 
ATOM     30  HN  UNK N   1      25.379  18.070   4.116  1.00  0.00     0.164 HD
HETATM   31  C   UNK N   1      28.329  18.670   5.489  0.00  0.00     0.032 A 
ENDBRANCH  21  25
ENDBRANCH   1  17
TORSDOF 5
ENDMDL
MODEL 9
REMARK VINA RESULT:      -7.3      5.439     10.821
REMARK  5 active torsions:
REMARK  status: ('A' for Active; 'I' for Inactive)
REMARK    1  A    between atoms: C_2  and  C_3 
REMARK    2  A    between atoms: C_2  and  O_16 
REMARK    3  A    between atoms: C_5  and  C_9 
REMARK    4  A    between atoms: O_16  and  C_17 
REMARK    5  A    between atoms: C_22  and  C_25 
ROOT
HETATM    1  O   UNK N   1      32.860  15.997   7.218  0.00  0.00    -0.309 OA
ENDROOT
BRANCH   1   2
HETATM    2  C   UNK N   1      31.626  15.435   6.918  0.00  0.00     0.179 C 
HETATM    3  C   UNK N   1      31.522  14.834   5.521  0.00  0.00     0.047 C 
BRANCH   2   4
HETATM    4  C   UNK N   1      30.583  16.490   7.109  0.00  0.00     0.064 A 
HETATM    5  C   UNK N   1      29.851  17.079   6.097  0.00  0.00     0.070 A 
HETATM    6  C   UNK N   1      29.098  18.024   6.755  0.00  0.00     0.111 A 
HETATM    7  O   UNK N   1      29.375  17.976   8.039  0.00  0.00    -0.237 OA
HETATM    8  N   UNK N   1      30.268  17.062   8.286  0.00  0.00    -0.262 N 
ATOM      9  HN  UNK N   1      30.656  16.824   9.199  1.00  0.00     0.194 HD
BRANCH   6  10
HETATM   10  C   UNK N   1      28.193  18.989   6.119  0.00  0.00     0.001 A 
HETATM   11  C   UNK N   1      28.026  18.989   4.726  0.00  0.00     0.014 A 
HETATM   12  C   UNK N   1      27.206  19.940   4.115  0.00  0.00     0.003 A 
HETATM   13  C   UNK N   1      26.556  20.902   4.892  0.00  0.00     0.024 A 
HETATM   14  C   UNK N   1      26.720  20.906   6.281  0.00  0.00     0.035 A 
HETATM   15  C   UNK N   1      27.536  19.951   6.893  0.00  0.00     0.038 A 
HETATM   16 Cl   UNK N   1      25.921  22.122   7.252  0.00  0.00    -0.084 Cl
ENDBRANCH   6  10
ENDBRANCH   2   4
ENDBRANCH   1   2
BRANCH   1  17
HETATM   17  C   UNK N   1      33.609  15.892   8.339  0.00  0.00     0.242 A 
HETATM   18  N   UNK N   1      33.703  16.819   9.314  0.00  0.00    -0.263 N 
HETATM   19  N   UNK N   1      34.582  16.364  10.196  0.00  0.00    -0.281 N 
ATOM     20  HN  UNK N   1      33.195  17.702   9.364  1.00  0.00     0.190 HD
HETATM   21  C   UNK N   1      35.011  15.160   9.754  0.00  0.00     0.135 A 
ATOM     22  HN  UNK N   1      34.880  16.835  11.051  1.00  0.00     0.188 HD
HETATM   23  N   UNK N   1      34.404  14.845   8.594  0.00  0.00    -0.300 N 
HETATM   24  C   UNK N   1      34.566  13.667   7.752  0.00  0.00     0.161 C 
BRANCH  21  25
HETATM   25  C   UNK N   1      36.045  14.357  10.440  0.00  0.00     0.012 A 
HETATM   26  C   UNK N   1      35.786  13.833  11.711  0.00  0.00     0.032 A 
HETATM   27  C   UNK N   1      36.784  13.125  12.383  0.00  0.00     0.088 A 
HETATM   28  N   UNK N   1      38.001  12.942  11.802  0.00  0.00    -0.375 N 
HETATM   29  C   UNK N   1      38.276  13.433  10.565  0.00  0.00     0.088 A 
ATOM     30  HN  UNK N   1      38.722  12.425  12.306  1.00  0.00     0.164 HD
HETATM   31  C   UNK N   1      37.306  14.155   9.866  0.00  0.00     0.032 A 
ENDBRANCH  21  25
ENDBRANCH   1  17
TORSDOF 5
ENDMDL
