MODEL 1
REMARK VINA RESULT:      -7.0      0.000      0.000
REMARK  6 active torsions:
REMARK  status: ('A' for Active; 'I' for Inactive)
REMARK    1  A    between atoms: C_2  and  C_3 
REMARK    2  A    between atoms: C_3  and  O_5 
REMARK    3  A    between atoms: C_6  and  O_5 
REMARK    4  A    between atoms: C_6  and  C_26 
REMARK    5  A    between atoms: C_26  and  C_28 
REMARK    6  A    between atoms: C_28  and  O_29 
ROOT
HETATM    1  C   UNK N   1      27.298  25.947  -5.200  0.00  0.00     0.140 C 
HETATM    2  C   UNK N   1      27.365  25.503  -6.653  0.00  0.00     0.048 C 
HETATM    3  C   UNK N   1      27.015  24.024  -6.586  0.00  0.00     0.009 C 
HETATM    4  C   UNK N   1      27.941  23.531  -5.494  0.00  0.00     0.002 C 
HETATM    5  C   UNK N   1      27.819  24.653  -4.428  0.00  0.00    -0.001 C 
HETATM    6  C   UNK N   1      29.131  24.847  -3.634  0.00  0.00     0.013 C 
HETATM    7  C   UNK N   1      30.402  24.865  -4.478  0.00  0.00     0.007 C 
HETATM    8  C   UNK N   1      30.534  23.557  -5.256  0.00  0.00     0.002 C 
HETATM    9  C   UNK N   1      29.322  23.416  -6.180  0.00  0.00    -0.004 C 
HETATM   10  C   UNK N   1      29.439  22.163  -7.057  0.00  0.00     0.010 C 
HETATM   11  C   UNK N   1      29.614  20.912  -6.203  0.00  0.00     0.035 C 
HETATM   12  C   UNK N   1      30.822  21.077  -5.331  0.00  0.00    -0.068 C 
HETATM   13  C   UNK N   1      31.769  20.126  -5.340  0.00  0.00     0.053 C 
HETATM   14  C   UNK N   1      32.914  20.181  -4.413  0.00  0.00     0.149 C 
HETATM   15  O   UNK N   1      33.770  19.313  -4.452  0.00  0.00    -0.293 OA
HETATM   16  C   UNK N   1      32.970  21.239  -3.356  0.00  0.00     0.084 C 
HETATM   17  C   UNK N   1      32.321  22.516  -3.874  0.00  0.00     0.022 C 
HETATM   18  C   UNK N   1      30.897  22.296  -4.419  0.00  0.00    -0.016 C 
HETATM   19  C   UNK N   1      29.932  22.059  -3.262  0.00  0.00     0.020 C 
HETATM   20  C   UNK N   1      26.854  24.140  -3.374  0.00  0.00     0.019 C 
ENDROOT
BRANCH   1  21
HETATM   21  O   UNK N   1      28.153  27.027  -5.008  0.00  0.00    -0.301 OA
BRANCH  21  22
HETATM   22  C   UNK N   1      28.687  27.779  -6.012  0.00  0.00     0.259 C 
HETATM   23  O   UNK N   1      29.759  27.480  -6.520  0.00  0.00    -0.265 OA
BRANCH  22  24
HETATM   24  C   UNK N   1      27.950  28.982  -6.498  0.00  0.00     0.106 C 
HETATM   25  C   UNK N   1      27.891  30.035  -5.408  0.00  0.00     0.015 C 
ENDBRANCH  22  24
ENDBRANCH  21  22
ENDBRANCH   1  21
BRANCH   1  26
HETATM   26  C   UNK N   1      25.845  26.447  -5.048  0.00  0.00     0.185 C 
HETATM   27  O   UNK N   1      24.966  25.860  -5.666  0.00  0.00    -0.292 OA
BRANCH  26  28
HETATM   28  C   UNK N   1      25.428  27.599  -4.192  0.00  0.00     0.245 C 
BRANCH  28  29
HETATM   29  O   UNK N   1      26.006  27.482  -2.928  0.00  0.00    -0.393 OA
HETATM   30  H   UNK N   1      26.709  26.831  -2.774  0.00  0.00     0.209 HD
ENDBRANCH  28  29
ENDBRANCH  26  28
ENDBRANCH   1  26
TORSDOF 6
ENDMDL
MODEL 2
REMARK VINA RESULT:      -7.0      3.503      5.566
REMARK  6 active torsions:
REMARK  status: ('A' for Active; 'I' for Inactive)
REMARK    1  A    between atoms: C_2  and  C_3 
REMARK    2  A    between atoms: C_3  and  O_5 
REMARK    3  A    between atoms: C_6  and  O_5 
REMARK    4  A    between atoms: C_6  and  C_26 
REMARK    5  A    between atoms: C_26  and  C_28 
REMARK    6  A    between atoms: C_28  and  O_29 
ROOT
HETATM    1  C   UNK N   1      28.525  28.679  -3.861  0.00  0.00     0.140 C 
HETATM    2  C   UNK N   1      29.124  29.027  -5.214  0.00  0.00     0.048 C 
HETATM    3  C   UNK N   1      27.904  29.229  -6.099  0.00  0.00     0.009 C 
HETATM    4  C   UNK N   1      27.098  27.979  -5.813  0.00  0.00     0.002 C 
HETATM    5  C   UNK N   1      27.224  27.853  -4.271  0.00  0.00    -0.001 C 
HETATM    6  C   UNK N   1      27.210  26.378  -3.805  0.00  0.00     0.013 C 
HETATM    7  C   UNK N   1      28.082  25.432  -4.625  0.00  0.00     0.007 C 
HETATM    8  C   UNK N   1      27.641  25.447  -6.088  0.00  0.00     0.002 C 
HETATM    9  C   UNK N   1      27.801  26.870  -6.630  0.00  0.00    -0.004 C 
HETATM   10  C   UNK N   1      27.458  26.935  -8.123  0.00  0.00     0.010 C 
HETATM   11  C   UNK N   1      26.049  26.414  -8.384  0.00  0.00     0.035 C 
HETATM   12  C   UNK N   1      25.938  25.013  -7.863  0.00  0.00    -0.068 C 
HETATM   13  C   UNK N   1      25.490  24.046  -8.679  0.00  0.00     0.053 C 
HETATM   14  C   UNK N   1      25.247  22.679  -8.181  0.00  0.00     0.149 C 
HETATM   15  O   UNK N   1      24.856  21.814  -8.946  0.00  0.00    -0.293 OA
HETATM   16  C   UNK N   1      25.378  22.381  -6.720  0.00  0.00     0.084 C 
HETATM   17  C   UNK N   1      26.474  23.250  -6.116  0.00  0.00     0.022 C 
HETATM   18  C   UNK N   1      26.284  24.753  -6.401  0.00  0.00    -0.016 C 
HETATM   19  C   UNK N   1      25.135  25.297  -5.558  0.00  0.00     0.020 C 
HETATM   20  C   UNK N   1      25.938  28.407  -3.688  0.00  0.00     0.019 C 
ENDROOT
BRANCH   1  21
HETATM   21  O   UNK N   1      29.420  27.890  -3.148  0.00  0.00    -0.301 OA
BRANCH  21  22
HETATM   22  C   UNK N   1      30.775  27.928  -3.300  0.00  0.00     0.259 C 
HETATM   23  O   UNK N   1      31.451  28.763  -2.716  0.00  0.00    -0.265 OA
BRANCH  22  24
HETATM   24  C   UNK N   1      31.439  26.933  -4.193  0.00  0.00     0.106 C 
HETATM   25  C   UNK N   1      31.187  25.525  -3.687  0.00  0.00     0.015 C 
ENDBRANCH  22  24
ENDBRANCH  21  22
ENDBRANCH   1  21
BRANCH   1  26
HETATM   26  C   UNK N   1      28.420  30.049  -3.156  0.00  0.00     0.185 C 
HETATM   27  O   UNK N   1      28.540  31.059  -3.837  0.00  0.00    -0.292 OA
BRANCH  26  28
HETATM   28  C   UNK N   1      28.176  30.235  -1.693  0.00  0.00     0.245 C 
BRANCH  28  29
HETATM   29  O   UNK N   1      29.337  29.938  -0.978  0.00  0.00    -0.393 OA
HETATM   30  H   UNK N   1      29.446  30.265  -0.072  0.00  0.00     0.209 HD
ENDBRANCH  28  29
ENDBRANCH  26  28
ENDBRANCH   1  26
TORSDOF 6
ENDMDL
MODEL 3
REMARK VINA RESULT:      -6.9     14.841     16.804
REMARK  6 active torsions:
REMARK  status: ('A' for Active; 'I' for Inactive)
REMARK    1  A    between atoms: C_2  and  C_3 
REMARK    2  A    between atoms: C_3  and  O_5 
REMARK    3  A    between atoms: C_6  and  O_5 
REMARK    4  A    between atoms: C_6  and  C_26 
REMARK    5  A    between atoms: C_26  and  C_28 
REMARK    6  A    between atoms: C_28  and  O_29 
ROOT
HETATM    1  C   UNK N   1      21.425  15.305   3.768  0.00  0.00     0.140 C 
HETATM    2  C   UNK N   1      22.790  15.944   3.962  0.00  0.00     0.048 C 
HETATM    3  C   UNK N   1      23.712  14.751   4.165  0.00  0.00     0.009 C 
HETATM    4  C   UNK N   1      22.975  13.962   5.227  0.00  0.00     0.002 C 
HETATM    5  C   UNK N   1      21.506  14.037   4.731  0.00  0.00    -0.001 C 
HETATM    6  C   UNK N   1      20.497  14.037   5.903  0.00  0.00     0.013 C 
HETATM    7  C   UNK N   1      20.855  14.956   7.066  0.00  0.00     0.007 C 
HETATM    8  C   UNK N   1      22.216  14.566   7.643  0.00  0.00     0.002 C 
HETATM    9  C   UNK N   1      23.271  14.716   6.544  0.00  0.00    -0.004 C 
HETATM   10  C   UNK N   1      24.676  14.423   7.084  0.00  0.00     0.010 C 
HETATM   11  C   UNK N   1      24.744  13.034   7.712  0.00  0.00     0.035 C 
HETATM   12  C   UNK N   1      23.715  12.934   8.797  0.00  0.00    -0.068 C 
HETATM   13  C   UNK N   1      24.093  12.535  10.020  0.00  0.00     0.053 C 
HETATM   14  C   UNK N   1      23.103  12.304  11.088  0.00  0.00     0.149 C 
HETATM   15  O   UNK N   1      23.473  11.956  12.197  0.00  0.00    -0.293 OA
HETATM   16  C   UNK N   1      21.640  12.390  10.782  0.00  0.00     0.084 C 
HETATM   17  C   UNK N   1      21.402  13.446   9.710  0.00  0.00     0.022 C 
HETATM   18  C   UNK N   1      22.261  13.235   8.448  0.00  0.00    -0.016 C 
HETATM   19  C   UNK N   1      21.729  12.046   7.654  0.00  0.00     0.020 C 
HETATM   20  C   UNK N   1      21.220  12.720   4.034  0.00  0.00     0.019 C 
ENDROOT
BRANCH   1  21
HETATM   21  O   UNK N   1      20.437  16.192   4.183  0.00  0.00    -0.301 OA
BRANCH  21  22
HETATM   22  C   UNK N   1      20.613  17.537   4.318  0.00  0.00     0.259 C 
HETATM   23  O   UNK N   1      21.085  18.010   5.343  0.00  0.00    -0.265 OA
BRANCH  22  24
HETATM   24  C   UNK N   1      20.224  18.443   3.198  0.00  0.00     0.106 C 
HETATM   25  C   UNK N   1      20.811  19.825   3.413  0.00  0.00     0.015 C 
ENDBRANCH  22  24
ENDBRANCH  21  22
ENDBRANCH   1  21
BRANCH   1  26
HETATM   26  C   UNK N   1      21.320  15.148   2.235  0.00  0.00     0.185 C 
HETATM   27  O   UNK N   1      22.357  15.018   1.597  0.00  0.00    -0.292 OA
BRANCH  26  28
HETATM   28  C   UNK N   1      20.038  15.137   1.468  0.00  0.00     0.245 C 
BRANCH  28  29
HETATM   29  O   UNK N   1      18.996  14.716   2.295  0.00  0.00    -0.393 OA
HETATM   30  H   UNK N   1      18.318  14.112   1.952  0.00  0.00     0.209 HD
ENDBRANCH  28  29
ENDBRANCH  26  28
ENDBRANCH   1  26
TORSDOF 6
ENDMDL
MODEL 4
REMARK VINA RESULT:      -6.7     21.488     25.494
REMARK  6 active torsions:
REMARK  status: ('A' for Active; 'I' for Inactive)
REMARK    1  A    between atoms: C_2  and  C_3 
REMARK    2  A    between atoms: C_3  and  O_5 
REMARK    3  A    between atoms: C_6  and  O_5 
REMARK    4  A    between atoms: C_6  and  C_26 
REMARK    5  A    between atoms: C_26  and  C_28 
REMARK    6  A    between atoms: C_28  and  O_29 
ROOT
HETATM    1  C   UNK N   1      36.034  12.157  12.920  0.00  0.00     0.140 C 
HETATM    2  C   UNK N   1      35.381  13.440  13.409  0.00  0.00     0.048 C 
HETATM    3  C   UNK N   1      36.260  13.861  14.577  0.00  0.00     0.009 C 
HETATM    4  C   UNK N   1      36.346  12.581  15.382  0.00  0.00     0.002 C 
HETATM    5  C   UNK N   1      36.568  11.513  14.278  0.00  0.00    -0.001 C 
HETATM    6  C   UNK N   1      35.936  10.152  14.651  0.00  0.00     0.013 C 
HETATM    7  C   UNK N   1      34.527  10.229  15.230  0.00  0.00     0.007 C 
HETATM    8  C   UNK N   1      34.525  11.088  16.494  0.00  0.00     0.002 C 
HETATM    9  C   UNK N   1      34.991  12.499  16.124  0.00  0.00    -0.004 C 
HETATM   10  C   UNK N   1      34.928  13.437  17.335  0.00  0.00     0.010 C 
HETATM   11  C   UNK N   1      35.746  12.886  18.498  0.00  0.00     0.035 C 
HETATM   12  C   UNK N   1      35.245  11.517  18.847  0.00  0.00    -0.068 C 
HETATM   13  C   UNK N   1      34.906  11.250  20.117  0.00  0.00     0.053 C 
HETATM   14  C   UNK N   1      34.525   9.889  20.535  0.00  0.00     0.149 C 
HETATM   15  O   UNK N   1      34.205   9.674  21.692  0.00  0.00    -0.293 OA
HETATM   16  C   UNK N   1      34.633   8.752  19.567  0.00  0.00     0.084 C 
HETATM   17  C   UNK N   1      34.339   9.249  18.158  0.00  0.00     0.022 C 
HETATM   18  C   UNK N   1      35.198  10.461  17.749  0.00  0.00    -0.016 C 
HETATM   19  C   UNK N   1      36.632  10.012  17.487  0.00  0.00     0.020 C 
HETATM   20  C   UNK N   1      38.055  11.208  14.268  0.00  0.00     0.019 C 
ENDROOT
BRANCH   1  21
HETATM   21  O   UNK N   1      35.074  11.349  12.321  0.00  0.00    -0.301 OA
BRANCH  21  22
HETATM   22  C   UNK N   1      35.277  10.618  11.188  0.00  0.00     0.259 C 
HETATM   23  O   UNK N   1      34.975  11.063  10.090  0.00  0.00    -0.265 OA
BRANCH  22  24
HETATM   24  C   UNK N   1      35.878   9.257  11.293  0.00  0.00     0.106 C 
HETATM   25  C   UNK N   1      34.821   8.247  11.698  0.00  0.00     0.015 C 
ENDBRANCH  22  24
ENDBRANCH  21  22
ENDBRANCH   1  21
BRANCH   1  26
HETATM   26  C   UNK N   1      37.006  12.648  11.825  0.00  0.00     0.185 C 
HETATM   27  O   UNK N   1      38.008  11.981  11.603  0.00  0.00    -0.292 OA
BRANCH  26  28
HETATM   28  C   UNK N   1      36.809  13.883  11.006  0.00  0.00     0.245 C 
BRANCH  28  29
HETATM   29  O   UNK N   1      38.041  14.337  10.533  0.00  0.00    -0.393 OA
HETATM   30  H   UNK N   1      38.095  15.176  10.048  0.00  0.00     0.209 HD
ENDBRANCH  28  29
ENDBRANCH  26  28
ENDBRANCH   1  26
TORSDOF 6
ENDMDL
MODEL 5
REMARK VINA RESULT:      -6.7      2.001      7.603
REMARK  6 active torsions:
REMARK  status: ('A' for Active; 'I' for Inactive)
REMARK    1  A    between atoms: C_2  and  C_3 
REMARK    2  A    between atoms: C_3  and  O_5 
REMARK    3  A    between atoms: C_6  and  O_5 
REMARK    4  A    between atoms: C_6  and  C_26 
REMARK    5  A    between atoms: C_26  and  C_28 
REMARK    6  A    between atoms: C_28  and  O_29 
ROOT
HETATM    1  C   UNK N   1      33.057  20.737  -5.165  0.00  0.00     0.140 C 
HETATM    2  C   UNK N   1      33.513  21.846  -6.100  0.00  0.00     0.048 C 
HETATM    3  C   UNK N   1      33.666  23.045  -5.176  0.00  0.00     0.009 C 
HETATM    4  C   UNK N   1      32.347  23.039  -4.431  0.00  0.00     0.002 C 
HETATM    5  C   UNK N   1      32.157  21.531  -4.114  0.00  0.00    -0.001 C 
HETATM    6  C   UNK N   1      30.665  21.126  -4.091  0.00  0.00     0.013 C 
HETATM    7  C   UNK N   1      29.826  21.677  -5.240  0.00  0.00     0.007 C 
HETATM    8  C   UNK N   1      29.879  23.204  -5.243  0.00  0.00     0.002 C 
HETATM    9  C   UNK N   1      31.334  23.640  -5.432  0.00  0.00    -0.004 C 
HETATM   10  C   UNK N   1      31.445  25.166  -5.533  0.00  0.00     0.010 C 
HETATM   11  C   UNK N   1      30.835  25.842  -4.309  0.00  0.00     0.035 C 
HETATM   12  C   UNK N   1      29.406  25.411  -4.171  0.00  0.00    -0.068 C 
HETATM   13  C   UNK N   1      28.449  26.345  -4.062  0.00  0.00     0.053 C 
HETATM   14  C   UNK N   1      27.046  25.974  -3.803  0.00  0.00     0.149 C 
HETATM   15  O   UNK N   1      26.192  26.841  -3.724  0.00  0.00    -0.293 OA
HETATM   16  C   UNK N   1      26.688  24.547  -3.529  0.00  0.00     0.084 C 
HETATM   17  C   UNK N   1      27.606  23.627  -4.324  0.00  0.00     0.022 C 
HETATM   18  C   UNK N   1      29.102  23.918  -4.098  0.00  0.00    -0.016 C 
HETATM   19  C   UNK N   1      29.519  23.436  -2.712  0.00  0.00     0.020 C 
HETATM   20  C   UNK N   1      32.586  21.337  -2.672  0.00  0.00     0.019 C 
ENDROOT
BRANCH   1  21
HETATM   21  O   UNK N   1      32.302  19.813  -5.879  0.00  0.00    -0.301 OA
BRANCH  21  22
HETATM   22  C   UNK N   1      32.347  19.659  -7.233  0.00  0.00     0.259 C 
HETATM   23  O   UNK N   1      33.304  19.123  -7.774  0.00  0.00    -0.265 OA
BRANCH  22  24
HETATM   24  C   UNK N   1      31.210  20.152  -8.064  0.00  0.00     0.106 C 
HETATM   25  C   UNK N   1      30.039  19.192  -7.973  0.00  0.00     0.015 C 
ENDBRANCH  22  24
ENDBRANCH  21  22
ENDBRANCH   1  21
BRANCH   1  26
HETATM   26  C   UNK N   1      34.379  20.061  -4.744  0.00  0.00     0.185 C 
HETATM   27  O   UNK N   1      35.380  20.760  -4.650  0.00  0.00    -0.292 OA
BRANCH  26  28
HETATM   28  C   UNK N   1      34.529  18.605  -4.437  0.00  0.00     0.245 C 
BRANCH  28  29
HETATM   29  O   UNK N   1      33.438  18.166  -3.688  0.00  0.00    -0.393 OA
HETATM   30  H   UNK N   1      32.592  18.639  -3.739  0.00  0.00     0.209 HD
ENDBRANCH  28  29
ENDBRANCH  26  28
ENDBRANCH   1  26
TORSDOF 6
ENDMDL
MODEL 6
REMARK VINA RESULT:      -6.6      1.716      3.461
REMARK  6 active torsions:
REMARK  status: ('A' for Active; 'I' for Inactive)
REMARK    1  A    between atoms: C_2  and  C_3 
REMARK    2  A    between atoms: C_3  and  O_5 
REMARK    3  A    between atoms: C_6  and  O_5 
REMARK    4  A    between atoms: C_6  and  C_26 
REMARK    5  A    between atoms: C_26  and  C_28 
REMARK    6  A    between atoms: C_28  and  O_29 
ROOT
HETATM    1  C   UNK N   1      27.635  25.141  -4.912  0.00  0.00     0.140 C 
HETATM    2  C   UNK N   1      27.209  23.903  -4.140  0.00  0.00     0.048 C 
HETATM    3  C   UNK N   1      28.173  23.873  -2.962  0.00  0.00     0.009 C 
HETATM    4  C   UNK N   1      29.512  24.037  -3.649  0.00  0.00     0.002 C 
HETATM    5  C   UNK N   1      29.214  25.151  -4.689  0.00  0.00    -0.001 C 
HETATM    6  C   UNK N   1      30.059  24.988  -5.973  0.00  0.00     0.013 C 
HETATM    7  C   UNK N   1      30.136  23.567  -6.522  0.00  0.00     0.007 C 
HETATM    8  C   UNK N   1      30.729  22.630  -5.471  0.00  0.00     0.002 C 
HETATM    9  C   UNK N   1      29.818  22.642  -4.240  0.00  0.00    -0.004 C 
HETATM   10  C   UNK N   1      30.311  21.651  -3.178  0.00  0.00     0.010 C 
HETATM   11  C   UNK N   1      31.755  21.944  -2.784  0.00  0.00     0.035 C 
HETATM   12  C   UNK N   1      32.618  21.899  -4.009  0.00  0.00    -0.068 C 
HETATM   13  C   UNK N   1      33.710  21.120  -4.010  0.00  0.00     0.053 C 
HETATM   14  C   UNK N   1      34.656  21.133  -5.141  0.00  0.00     0.149 C 
HETATM   15  O   UNK N   1      35.633  20.404  -5.126  0.00  0.00    -0.293 OA
HETATM   16  C   UNK N   1      34.476  22.118  -6.254  0.00  0.00     0.084 C 
HETATM   17  C   UNK N   1      32.991  22.377  -6.473  0.00  0.00     0.022 C 
HETATM   18  C   UNK N   1      32.251  22.793  -5.188  0.00  0.00    -0.016 C 
HETATM   19  C   UNK N   1      32.631  24.222  -4.812  0.00  0.00     0.020 C 
HETATM   20  C   UNK N   1      29.739  26.445  -4.095  0.00  0.00     0.019 C 
ENDROOT
BRANCH   1  21
HETATM   21  O   UNK N   1      27.317  24.979  -6.256  0.00  0.00    -0.301 OA
BRANCH  21  22
HETATM   22  C   UNK N   1      26.358  24.131  -6.726  0.00  0.00     0.259 C 
HETATM   23  O   UNK N   1      25.193  24.491  -6.826  0.00  0.00    -0.265 OA
BRANCH  22  24
HETATM   24  C   UNK N   1      26.738  22.745  -7.125  0.00  0.00     0.106 C 
HETATM   25  C   UNK N   1      25.504  21.954  -7.517  0.00  0.00     0.015 C 
ENDBRANCH  22  24
ENDBRANCH  21  22
ENDBRANCH   1  21
BRANCH   1  26
HETATM   26  C   UNK N   1      26.732  26.250  -4.331  0.00  0.00     0.185 C 
HETATM   27  O   UNK N   1      26.289  26.101  -3.200  0.00  0.00    -0.292 OA
BRANCH  26  28
HETATM   28  C   UNK N   1      26.359  27.506  -5.052  0.00  0.00     0.245 C 
BRANCH  28  29
HETATM   29  O   UNK N   1      25.233  27.279  -5.844  0.00  0.00    -0.393 OA
HETATM   30  H   UNK N   1      24.346  27.417  -5.477  0.00  0.00     0.209 HD
ENDBRANCH  28  29
ENDBRANCH  26  28
ENDBRANCH   1  26
TORSDOF 6
ENDMDL
MODEL 7
REMARK VINA RESULT:      -6.6     14.121     16.813
REMARK  6 active torsions:
REMARK  status: ('A' for Active; 'I' for Inactive)
REMARK    1  A    between atoms: C_2  and  C_3 
REMARK    2  A    between atoms: C_3  and  O_5 
REMARK    3  A    between atoms: C_6  and  O_5 
REMARK    4  A    between atoms: C_6  and  C_26 
REMARK    5  A    between atoms: C_26  and  C_28 
REMARK    6  A    between atoms: C_28  and  O_29 
ROOT
HETATM    1  C   UNK N   1      21.710  14.350   7.410  0.00  0.00     0.140 C 
HETATM    2  C   UNK N   1      20.438  13.804   6.783  0.00  0.00     0.048 C 
HETATM    3  C   UNK N   1      20.853  13.501   5.350  0.00  0.00     0.009 C 
HETATM    4  C   UNK N   1      21.527  14.793   4.939  0.00  0.00     0.002 C 
HETATM    5  C   UNK N   1      22.378  15.133   6.192  0.00  0.00    -0.001 C 
HETATM    6  C   UNK N   1      22.527  16.659   6.396  0.00  0.00     0.013 C 
HETATM    7  C   UNK N   1      21.243  17.464   6.224  0.00  0.00     0.007 C 
HETATM    8  C   UNK N   1      20.674  17.251   4.822  0.00  0.00     0.002 C 
HETATM    9  C   UNK N   1      20.359  15.763   4.646  0.00  0.00    -0.004 C 
HETATM   10  C   UNK N   1      19.700  15.494   3.287  0.00  0.00     0.010 C 
HETATM   11  C   UNK N   1      20.576  15.998   2.145  0.00  0.00     0.035 C 
HETATM   12  C   UNK N   1      20.843  17.460   2.338  0.00  0.00    -0.068 C 
HETATM   13  C   UNK N   1      20.582  18.310   1.333  0.00  0.00     0.053 C 
HETATM   14  C   UNK N   1      20.940  19.737   1.428  0.00  0.00     0.149 C 
HETATM   15  O   UNK N   1      20.678  20.493   0.507  0.00  0.00    -0.293 OA
HETATM   16  C   UNK N   1      21.719  20.236   2.605  0.00  0.00     0.084 C 
HETATM   17  C   UNK N   1      21.335  19.442   3.847  0.00  0.00     0.022 C 
HETATM   18  C   UNK N   1      21.460  17.918   3.655  0.00  0.00    -0.016 C 
HETATM   19  C   UNK N   1      22.932  17.518   3.631  0.00  0.00     0.020 C 
HETATM   20  C   UNK N   1      23.796  14.689   5.882  0.00  0.00     0.019 C 
ENDROOT
BRANCH   1  21
HETATM   21  O   UNK N   1      21.379  15.216   8.447  0.00  0.00    -0.301 OA
BRANCH  21  22
HETATM   22  C   UNK N   1      20.134  15.331   8.990  0.00  0.00     0.259 C 
HETATM   23  O   UNK N   1      19.612  14.390   9.572  0.00  0.00    -0.265 OA
BRANCH  22  24
HETATM   24  C   UNK N   1      19.401  16.625   8.873  0.00  0.00     0.106 C 
HETATM   25  C   UNK N   1      17.950  16.444   9.279  0.00  0.00     0.015 C 
ENDBRANCH  22  24
ENDBRANCH  21  22
ENDBRANCH   1  21
BRANCH   1  26
HETATM   26  C   UNK N   1      22.372  13.095   8.021  0.00  0.00     0.185 C 
HETATM   27  O   UNK N   1      22.116  12.008   7.522  0.00  0.00    -0.292 OA
BRANCH  26  28
HETATM   28  C   UNK N   1      23.313  13.111   9.182  0.00  0.00     0.245 C 
BRANCH  28  29
HETATM   29  O   UNK N   1      22.611  13.388  10.356  0.00  0.00    -0.393 OA
HETATM   30  H   UNK N   1      23.083  13.441  11.202  0.00  0.00     0.209 HD
ENDBRANCH  28  29
ENDBRANCH  26  28
ENDBRANCH   1  26
TORSDOF 6
ENDMDL
MODEL 8
REMARK VINA RESULT:      -6.5     12.070     16.278
REMARK  6 active torsions:
REMARK  status: ('A' for Active; 'I' for Inactive)
REMARK    1  A    between atoms: C_2  and  C_3 
REMARK    2  A    between atoms: C_3  and  O_5 
REMARK    3  A    between atoms: C_6  and  O_5 
REMARK    4  A    between atoms: C_6  and  C_26 
REMARK    5  A    between atoms: C_26  and  C_28 
REMARK    6  A    between atoms: C_28  and  O_29 
ROOT
HETATM    1  C   UNK N   1      34.236  15.743   8.463  0.00  0.00     0.140 C 
HETATM    2  C   UNK N   1      34.999  16.492   7.382  0.00  0.00     0.048 C 
HETATM    3  C   UNK N   1      34.052  17.619   6.998  0.00  0.00     0.009 C 
HETATM    4  C   UNK N   1      32.753  16.875   6.773  0.00  0.00     0.002 C 
HETATM    5  C   UNK N   1      32.726  15.890   7.973  0.00  0.00    -0.001 C 
HETATM    6  C   UNK N   1      32.019  14.561   7.618  0.00  0.00     0.013 C 
HETATM    7  C   UNK N   1      32.407  13.960   6.272  0.00  0.00     0.007 C 
HETATM    8  C   UNK N   1      32.100  14.948   5.147  0.00  0.00     0.002 C 
HETATM    9  C   UNK N   1      32.918  16.221   5.381  0.00  0.00    -0.004 C 
HETATM   10  C   UNK N   1      32.721  17.222   4.236  0.00  0.00     0.010 C 
HETATM   11  C   UNK N   1      31.245  17.557   4.048  0.00  0.00     0.035 C 
HETATM   12  C   UNK N   1      30.482  16.291   3.798  0.00  0.00    -0.068 C 
HETATM   13  C   UNK N   1      29.688  16.210   2.719  0.00  0.00     0.053 C 
HETATM   14  C   UNK N   1      28.825  15.036   2.494  0.00  0.00     0.149 C 
HETATM   15  O   UNK N   1      28.124  14.978   1.497  0.00  0.00    -0.293 OA
HETATM   16  C   UNK N   1      28.729  13.967   3.538  0.00  0.00     0.084 C 
HETATM   17  C   UNK N   1      30.066  13.829   4.254  0.00  0.00     0.022 C 
HETATM   18  C   UNK N   1      30.594  15.163   4.817  0.00  0.00    -0.016 C 
HETATM   19  C   UNK N   1      29.775  15.570   6.038  0.00  0.00     0.020 C 
HETATM   20  C   UNK N   1      31.802  16.502   9.010  0.00  0.00     0.019 C 
ENDROOT
BRANCH   1  21
HETATM   21  O   UNK N   1      34.636  14.411   8.473  0.00  0.00    -0.301 OA
BRANCH  21  22
HETATM   22  C   UNK N   1      35.840  13.962   8.015  0.00  0.00     0.259 C 
HETATM   23  O   UNK N   1      36.838  14.007   8.721  0.00  0.00    -0.265 OA
BRANCH  22  24
HETATM   24  C   UNK N   1      35.937  13.408   6.634  0.00  0.00     0.106 C 
HETATM   25  C   UNK N   1      35.544  11.942   6.628  0.00  0.00     0.015 C 
ENDBRANCH  22  24
ENDBRANCH  21  22
ENDBRANCH   1  21
BRANCH   1  26
HETATM   26  C   UNK N   1      34.727  16.405   9.769  0.00  0.00     0.185 C 
HETATM   27  O   UNK N   1      35.093  17.572   9.721  0.00  0.00    -0.292 OA
BRANCH  26  28
HETATM   28  C   UNK N   1      34.786  15.723  11.097  0.00  0.00     0.245 C 
BRANCH  28  29
HETATM   29  O   UNK N   1      33.661  14.914  11.264  0.00  0.00    -0.393 OA
HETATM   30  H   UNK N   1      33.663  14.005  10.926  0.00  0.00     0.209 HD
ENDBRANCH  28  29
ENDBRANCH  26  28
ENDBRANCH   1  26
TORSDOF 6
ENDMDL
MODEL 9
REMARK VINA RESULT:      -6.4     11.255     13.067
REMARK  6 active torsions:
REMARK  status: ('A' for Active; 'I' for Inactive)
REMARK    1  A    between atoms: C_2  and  C_3 
REMARK    2  A    between atoms: C_3  and  O_5 
REMARK    3  A    between atoms: C_6  and  O_5 
REMARK    4  A    between atoms: C_6  and  C_26 
REMARK    5  A    between atoms: C_26  and  C_28 
REMARK    6  A    between atoms: C_28  and  O_29 
ROOT
HETATM    1  C   UNK N   1      22.131  17.122   4.695  0.00  0.00     0.140 C 
HETATM    2  C   UNK N   1      21.697  16.647   3.318  0.00  0.00     0.048 C 
HETATM    3  C   UNK N   1      21.959  15.149   3.363  0.00  0.00     0.009 C 
HETATM    4  C   UNK N   1      23.381  15.093   3.881  0.00  0.00     0.002 C 
HETATM    5  C   UNK N   1      23.359  16.155   5.014  0.00  0.00    -0.001 C 
HETATM    6  C   UNK N   1      24.725  16.861   5.175  0.00  0.00     0.013 C 
HETATM    7  C   UNK N   1      25.390  17.291   3.872  0.00  0.00     0.007 C 
HETATM    8  C   UNK N   1      25.613  16.077   2.971  0.00  0.00     0.002 C 
HETATM    9  C   UNK N   1      24.254  15.449   2.655  0.00  0.00    -0.004 C 
HETATM   10  C   UNK N   1      24.401  14.274   1.680  0.00  0.00     0.010 C 
HETATM   11  C   UNK N   1      25.365  13.226   2.227  0.00  0.00     0.035 C 
HETATM   12  C   UNK N   1      26.690  13.871   2.501  0.00  0.00    -0.068 C 
HETATM   13  C   UNK N   1      27.800  13.333   1.974  0.00  0.00     0.053 C 
HETATM   14  C   UNK N   1      29.136  13.856   2.312  0.00  0.00     0.149 C 
HETATM   15  O   UNK N   1      30.129  13.360   1.808  0.00  0.00    -0.293 OA
HETATM   16  C   UNK N   1      29.280  14.923   3.352  0.00  0.00     0.084 C 
HETATM   17  C   UNK N   1      28.066  15.843   3.314  0.00  0.00     0.022 C 
HETATM   18  C   UNK N   1      26.728  15.087   3.420  0.00  0.00    -0.016 C 
HETATM   19  C   UNK N   1      26.530  14.584   4.847  0.00  0.00     0.020 C 
HETATM   20  C   UNK N   1      23.213  15.390   6.317  0.00  0.00     0.019 C 
ENDROOT
BRANCH   1  21
HETATM   21  O   UNK N   1      22.541  18.449   4.618  0.00  0.00    -0.301 OA
BRANCH  21  22
HETATM   22  C   UNK N   1      21.882  19.422   3.927  0.00  0.00     0.259 C 
HETATM   23  O   UNK N   1      20.794  19.834   4.303  0.00  0.00    -0.265 OA
BRANCH  22  24
HETATM   24  C   UNK N   1      22.501  19.991   2.694  0.00  0.00     0.106 C 
HETATM   25  C   UNK N   1      23.886  20.529   3.003  0.00  0.00     0.015 C 
ENDBRANCH  22  24
ENDBRANCH  21  22
ENDBRANCH   1  21
BRANCH   1  26
HETATM   26  C   UNK N   1      20.826  17.066   5.518  0.00  0.00     0.185 C 
HETATM   27  O   UNK N   1      19.806  16.692   4.956  0.00  0.00    -0.292 OA
BRANCH  26  28
HETATM   28  C   UNK N   1      20.717  17.432   6.963  0.00  0.00     0.245 C 
BRANCH  28  29
HETATM   29  O   UNK N   1      20.986  18.792   7.127  0.00  0.00    -0.393 OA
HETATM   30  H   UNK N   1      21.339  19.118   7.970  0.00  0.00     0.209 HD
ENDBRANCH  28  29
ENDBRANCH  26  28
ENDBRANCH   1  26
TORSDOF 6
ENDMDL
