MODEL 1
REMARK VINA RESULT:      -7.0      0.000      0.000
REMARK  8 active torsions:
REMARK  status: ('A' for Active; 'I' for Inactive)
REMARK    1  A    between atoms: O_2  and  C_3 
REMARK    2  A    between atoms: C_6  and  C_9 
REMARK    3  A    between atoms: C_10  and  O_11 
REMARK    4  A    between atoms: C_15  and  O_16 
REMARK    5  A    between atoms: C_18  and  O_19 
REMARK    6  A    between atoms: C_20  and  C_21 
REMARK    7  A    between atoms: C_21  and  C_22 
REMARK    8  A    between atoms: C_22  and  C_23 
ROOT
HETATM    1  C   UNK N   1      31.251  16.668   6.258  0.00  0.00     0.123 A 
HETATM    2  C   UNK N   1      31.315  15.848   5.111  0.00  0.00     0.152 A 
HETATM    3  C   UNK N   1      30.214  15.813   4.236  0.00  0.00     0.223 A 
HETATM    4  O   UNK N   1      30.255  15.109   3.242  0.00  0.00    -0.284 OA
HETATM    5  C   UNK N   1      29.072  16.600   4.524  0.00  0.00     0.085 A 
HETATM    6  C   UNK N   1      27.918  16.633   3.706  0.00  0.00     0.085 A 
HETATM    7  C   UNK N   1      26.833  17.441   4.069  0.00  0.00     0.074 A 
HETATM    8  C   UNK N   1      26.870  18.220   5.230  0.00  0.00     0.077 A 
HETATM    9  C   UNK N   1      28.015  18.195   6.052  0.00  0.00     0.013 A 
HETATM   10  C   UNK N   1      29.099  17.388   5.690  0.00  0.00     0.102 A 
HETATM   11  O   UNK N   1      30.161  17.383   6.478  0.00  0.00    -0.305 OA
ENDROOT
BRANCH   1  12
HETATM   12  C   UNK N   1      32.332  16.802   7.264  0.00  0.00     0.001 A 
HETATM   13  C   UNK N   1      32.483  15.930   8.352  0.00  0.00     0.017 A 
HETATM   14  C   UNK N   1      33.530  16.118   9.265  0.00  0.00     0.037 A 
HETATM   15  C   UNK N   1      34.435  17.175   9.102  0.00  0.00     0.068 A 
HETATM   16  C   UNK N   1      34.284  18.046   8.014  0.00  0.00     0.037 A 
HETATM   17  C   UNK N   1      33.244  17.857   7.108  0.00  0.00     0.017 A 
BRANCH  15  18
HETATM   18  O   UNK N   1      35.438  17.337   9.997  0.00  0.00    -0.356 OA
HETATM   19  C   UNK N   1      35.688  16.443  11.015  0.00  0.00     0.210 C 
ENDBRANCH  15  18
ENDBRANCH   1  12
BRANCH   2  20
HETATM   20  O   UNK N   1      32.406  15.104   4.847  0.00  0.00    -0.355 OA
HETATM   21  H   UNK N   1      32.729  14.501   5.487  0.00  0.00     0.218 HD
ENDBRANCH   2  20
BRANCH   9  22
HETATM   22  C   UNK N   1      28.190  18.983   7.329  0.00  0.00     0.072 C 
BRANCH  22  23
HETATM   23  C   UNK N   1      27.974  18.356   8.666  0.00  0.00    -0.020 C 
BRANCH  23  24
HETATM   24  C   UNK N   1      29.028  18.079   9.450  0.00  0.00    -0.091 C 
HETATM   25  C   UNK N   1      30.208  18.981   9.442  0.00  0.00     0.042 C 
HETATM   26  C   UNK N   1      29.048  16.872  10.342  0.00  0.00     0.042 C 
ENDBRANCH  23  24
ENDBRANCH  22  23
ENDBRANCH   9  22
BRANCH   6  27
HETATM   27  O   UNK N   1      27.838  15.901   2.581  0.00  0.00    -0.360 OA
HETATM   28  H   UNK N   1      27.863  16.322   1.745  0.00  0.00     0.217 HD
ENDBRANCH   6  27
BRANCH   8  29
HETATM   29  O   UNK N   1      25.808  18.983   5.541  0.00  0.00    -0.360 OA
HETATM   30  H   UNK N   1      25.869  19.916   5.487  0.00  0.00     0.217 HD
ENDBRANCH   8  29
TORSDOF 8
ENDMDL
MODEL 2
REMARK VINA RESULT:      -7.0      2.161      7.450
REMARK  8 active torsions:
REMARK  status: ('A' for Active; 'I' for Inactive)
REMARK    1  A    between atoms: O_2  and  C_3 
REMARK    2  A    between atoms: C_6  and  C_9 
REMARK    3  A    between atoms: C_10  and  O_11 
REMARK    4  A    between atoms: C_15  and  O_16 
REMARK    5  A    between atoms: C_18  and  O_19 
REMARK    6  A    between atoms: C_20  and  C_21 
REMARK    7  A    between atoms: C_21  and  C_22 
REMARK    8  A    between atoms: C_22  and  C_23 
ROOT
HETATM    1  C   UNK N   1      28.902  18.028   6.096  0.00  0.00     0.123 A 
HETATM    2  C   UNK N   1      28.675  17.724   7.455  0.00  0.00     0.152 A 
HETATM    3  C   UNK N   1      29.735  17.210   8.225  0.00  0.00     0.223 A 
HETATM    4  O   UNK N   1      29.554  16.942   9.400  0.00  0.00    -0.284 OA
HETATM    5  C   UNK N   1      31.000  17.011   7.620  0.00  0.00     0.085 A 
HETATM    6  C   UNK N   1      32.125  16.500   8.308  0.00  0.00     0.085 A 
HETATM    7  C   UNK N   1      33.340  16.336   7.629  0.00  0.00     0.074 A 
HETATM    8  C   UNK N   1      33.460  16.669   6.276  0.00  0.00     0.077 A 
HETATM    9  C   UNK N   1      32.345  17.179   5.580  0.00  0.00     0.013 A 
HETATM   10  C   UNK N   1      31.133  17.343   6.258  0.00  0.00     0.102 A 
HETATM   11  O   UNK N   1      30.102  17.824   5.582  0.00  0.00    -0.305 OA
ENDROOT
BRANCH   1  12
HETATM   12  C   UNK N   1      27.880  18.573   5.169  0.00  0.00     0.001 A 
HETATM   13  C   UNK N   1      26.973  17.769   4.465  0.00  0.00     0.017 A 
HETATM   14  C   UNK N   1      26.034  18.354   3.604  0.00  0.00     0.037 A 
HETATM   15  C   UNK N   1      25.991  19.745   3.439  0.00  0.00     0.068 A 
HETATM   16  C   UNK N   1      26.898  20.548   4.144  0.00  0.00     0.037 A 
HETATM   17  C   UNK N   1      27.829  19.965   4.998  0.00  0.00     0.017 A 
BRANCH  15  18
HETATM   18  O   UNK N   1      25.075  20.287   2.602  0.00  0.00    -0.356 OA
HETATM   19  C   UNK N   1      23.773  20.539   2.973  0.00  0.00     0.210 C 
ENDBRANCH  15  18
ENDBRANCH   1  12
BRANCH   2  20
HETATM   20  O   UNK N   1      27.468  17.917   8.021  0.00  0.00    -0.355 OA
HETATM   21  H   UNK N   1      27.048  17.216   8.480  0.00  0.00     0.218 HD
ENDBRANCH   2  20
BRANCH   9  22
HETATM   22  C   UNK N   1      32.333  17.579   4.123  0.00  0.00     0.072 C 
BRANCH  22  23
HETATM   23  C   UNK N   1      32.211  16.562   3.038  0.00  0.00    -0.020 C 
BRANCH  23  24
HETATM   24  C   UNK N   1      31.197  15.683   3.060  0.00  0.00    -0.091 C 
HETATM   25  C   UNK N   1      31.454  14.272   3.448  0.00  0.00     0.042 C 
HETATM   26  C   UNK N   1      29.798  16.088   2.701  0.00  0.00     0.042 C 
ENDBRANCH  23  24
ENDBRANCH  22  23
ENDBRANCH   9  22
BRANCH   6  27
HETATM   27  O   UNK N   1      32.056  16.166   9.609  0.00  0.00    -0.360 OA
HETATM   28  H   UNK N   1      32.842  16.011  10.095  0.00  0.00     0.217 HD
ENDBRANCH   6  27
BRANCH   8  29
HETATM   29  O   UNK N   1      34.643  16.497   5.662  0.00  0.00    -0.360 OA
HETATM   30  H   UNK N   1      35.346  17.096   5.823  0.00  0.00     0.217 HD
ENDBRANCH   8  29
TORSDOF 8
ENDMDL
MODEL 3
REMARK VINA RESULT:      -6.8     11.296     14.442
REMARK  8 active torsions:
REMARK  status: ('A' for Active; 'I' for Inactive)
REMARK    1  A    between atoms: O_2  and  C_3 
REMARK    2  A    between atoms: C_6  and  C_9 
REMARK    3  A    between atoms: C_10  and  O_11 
REMARK    4  A    between atoms: C_15  and  O_16 
REMARK    5  A    between atoms: C_18  and  O_19 
REMARK    6  A    between atoms: C_20  and  C_21 
REMARK    7  A    between atoms: C_21  and  C_22 
REMARK    8  A    between atoms: C_22  and  C_23 
ROOT
HETATM    1  C   UNK N   1      29.815  23.112  -3.873  0.00  0.00     0.123 A 
HETATM    2  C   UNK N   1      30.643  22.751  -2.789  0.00  0.00     0.152 A 
HETATM    3  C   UNK N   1      31.631  21.768  -2.983  0.00  0.00     0.223 A 
HETATM    4  O   UNK N   1      32.353  21.445  -2.056  0.00  0.00    -0.284 OA
HETATM    5  C   UNK N   1      31.771  21.166  -4.258  0.00  0.00     0.085 A 
HETATM    6  C   UNK N   1      32.732  20.171  -4.552  0.00  0.00     0.085 A 
HETATM    7  C   UNK N   1      32.799  19.631  -5.843  0.00  0.00     0.074 A 
HETATM    8  C   UNK N   1      31.929  20.060  -6.851  0.00  0.00     0.077 A 
HETATM    9  C   UNK N   1      30.968  21.051  -6.569  0.00  0.00     0.013 A 
HETATM   10  C   UNK N   1      30.901  21.591  -5.280  0.00  0.00     0.102 A 
HETATM   11  O   UNK N   1      29.990  22.520  -5.042  0.00  0.00    -0.305 OA
ENDROOT
BRANCH   1  12
HETATM   12  C   UNK N   1      28.737  24.129  -3.812  0.00  0.00     0.001 A 
HETATM   13  C   UNK N   1      27.414  23.827  -3.458  0.00  0.00     0.017 A 
HETATM   14  C   UNK N   1      26.446  24.840  -3.423  0.00  0.00     0.037 A 
HETATM   15  C   UNK N   1      26.788  26.162  -3.739  0.00  0.00     0.068 A 
HETATM   16  C   UNK N   1      28.111  26.463  -4.092  0.00  0.00     0.037 A 
HETATM   17  C   UNK N   1      29.070  25.455  -4.126  0.00  0.00     0.017 A 
BRANCH  15  18
HETATM   18  O   UNK N   1      25.835  27.123  -3.697  0.00  0.00    -0.356 OA
HETATM   19  C   UNK N   1      26.122  28.460  -3.533  0.00  0.00     0.210 C 
ENDBRANCH  15  18
ENDBRANCH   1  12
BRANCH   2  20
HETATM   20  O   UNK N   1      30.502  23.329  -1.581  0.00  0.00    -0.355 OA
HETATM   21  H   UNK N   1      31.107  23.988  -1.303  0.00  0.00     0.218 HD
ENDBRANCH   2  20
BRANCH   9  22
HETATM   22  C   UNK N   1      29.970  21.606  -7.558  0.00  0.00     0.072 C 
BRANCH  22  23
HETATM   23  C   UNK N   1      28.682  20.906  -7.840  0.00  0.00    -0.020 C 
BRANCH  23  24
HETATM   24  C   UNK N   1      27.526  21.582  -7.764  0.00  0.00    -0.091 C 
HETATM   25  C   UNK N   1      26.270  20.950  -8.245  0.00  0.00     0.042 C 
HETATM   26  C   UNK N   1      27.463  22.971  -7.200  0.00  0.00     0.042 C 
ENDBRANCH  23  24
ENDBRANCH  22  23
ENDBRANCH   9  22
BRANCH   6  27
HETATM   27  O   UNK N   1      33.588  19.728  -3.615  0.00  0.00    -0.360 OA
HETATM   28  H   UNK N   1      34.225  20.310  -3.250  0.00  0.00     0.217 HD
ENDBRANCH   6  27
BRANCH   8  29
HETATM   29  O   UNK N   1      32.029  19.516  -8.077  0.00  0.00    -0.360 OA
HETATM   30  H   UNK N   1      32.019  18.584  -8.178  0.00  0.00     0.217 HD
ENDBRANCH   8  29
TORSDOF 8
ENDMDL
MODEL 4
REMARK VINA RESULT:      -6.7      2.305      7.759
REMARK  8 active torsions:
REMARK  status: ('A' for Active; 'I' for Inactive)
REMARK    1  A    between atoms: O_2  and  C_3 
REMARK    2  A    between atoms: C_6  and  C_9 
REMARK    3  A    between atoms: C_10  and  O_11 
REMARK    4  A    between atoms: C_15  and  O_16 
REMARK    5  A    between atoms: C_18  and  O_19 
REMARK    6  A    between atoms: C_20  and  C_21 
REMARK    7  A    between atoms: C_21  and  C_22 
REMARK    8  A    between atoms: C_22  and  C_23 
ROOT
HETATM    1  C   UNK N   1      27.833  18.729   5.889  0.00  0.00     0.123 A 
HETATM    2  C   UNK N   1      27.905  19.024   7.267  0.00  0.00     0.152 A 
HETATM    3  C   UNK N   1      28.930  18.442   8.036  0.00  0.00     0.223 A 
HETATM    4  O   UNK N   1      29.004  18.686   9.228  0.00  0.00    -0.284 OA
HETATM    5  C   UNK N   1      29.862  17.578   7.411  0.00  0.00     0.085 A 
HETATM    6  C   UNK N   1      30.926  16.946   8.097  0.00  0.00     0.085 A 
HETATM    7  C   UNK N   1      31.802  16.106   7.398  0.00  0.00     0.074 A 
HETATM    8  C   UNK N   1      31.644  15.880   6.026  0.00  0.00     0.077 A 
HETATM    9  C   UNK N   1      30.588  16.505   5.332  0.00  0.00     0.013 A 
HETATM   10  C   UNK N   1      29.713  17.344   6.031  0.00  0.00     0.102 A 
HETATM   11  O   UNK N   1      28.730  17.917   5.356  0.00  0.00    -0.305 OA
ENDROOT
BRANCH   1  12
HETATM   12  C   UNK N   1      26.810  19.269   4.961  0.00  0.00     0.001 A 
HETATM   13  C   UNK N   1      27.063  20.311   4.058  0.00  0.00     0.017 A 
HETATM   14  C   UNK N   1      26.046  20.771   3.210  0.00  0.00     0.037 A 
HETATM   15  C   UNK N   1      24.769  20.196   3.255  0.00  0.00     0.068 A 
HETATM   16  C   UNK N   1      24.516  19.154   4.157  0.00  0.00     0.037 A 
HETATM   17  C   UNK N   1      25.528  18.698   4.998  0.00  0.00     0.017 A 
BRANCH  15  18
HETATM   18  O   UNK N   1      23.803  20.658   2.426  0.00  0.00    -0.356 OA
HETATM   19  C   UNK N   1      22.458  20.481   2.666  0.00  0.00     0.210 C 
ENDBRANCH  15  18
ENDBRANCH   1  12
BRANCH   2  20
HETATM   20  O   UNK N   1      27.013  19.846   7.852  0.00  0.00    -0.355 OA
HETATM   21  H   UNK N   1      26.656  19.630   8.691  0.00  0.00     0.218 HD
ENDBRANCH   2  20
BRANCH   9  22
HETATM   22  C   UNK N   1      30.300  16.351   3.857  0.00  0.00     0.072 C 
BRANCH  22  23
HETATM   23  C   UNK N   1      29.510  15.197   3.335  0.00  0.00    -0.020 C 
BRANCH  23  24
HETATM   24  C   UNK N   1      28.204  15.099   3.623  0.00  0.00    -0.091 C 
HETATM   25  C   UNK N   1      27.219  15.908   2.859  0.00  0.00     0.042 C 
HETATM   26  C   UNK N   1      27.703  14.189   4.705  0.00  0.00     0.042 C 
ENDBRANCH  23  24
ENDBRANCH  22  23
ENDBRANCH   9  22
BRANCH   6  27
HETATM   27  O   UNK N   1      31.116  17.134   9.415  0.00  0.00    -0.360 OA
HETATM   28  H   UNK N   1      31.303  17.992   9.744  0.00  0.00     0.217 HD
ENDBRANCH   6  27
BRANCH   8  29
HETATM   29  O   UNK N   1      32.507  15.068   5.393  0.00  0.00    -0.360 OA
HETATM   30  H   UNK N   1      32.676  14.210   5.729  0.00  0.00     0.217 HD
ENDBRANCH   8  29
TORSDOF 8
ENDMDL
MODEL 5
REMARK VINA RESULT:      -6.7      2.415      7.753
REMARK  8 active torsions:
REMARK  status: ('A' for Active; 'I' for Inactive)
REMARK    1  A    between atoms: O_2  and  C_3 
REMARK    2  A    between atoms: C_6  and  C_9 
REMARK    3  A    between atoms: C_10  and  O_11 
REMARK    4  A    between atoms: C_15  and  O_16 
REMARK    5  A    between atoms: C_18  and  O_19 
REMARK    6  A    between atoms: C_20  and  C_21 
REMARK    7  A    between atoms: C_21  and  C_22 
REMARK    8  A    between atoms: C_22  and  C_23 
ROOT
HETATM    1  C   UNK N   1      27.898  18.509   5.984  0.00  0.00     0.123 A 
HETATM    2  C   UNK N   1      27.997  18.887   7.340  0.00  0.00     0.152 A 
HETATM    3  C   UNK N   1      28.956  18.257   8.155  0.00  0.00     0.223 A 
HETATM    4  O   UNK N   1      29.052  18.572   9.328  0.00  0.00    -0.284 OA
HETATM    5  C   UNK N   1      29.796  17.263   7.597  0.00  0.00     0.085 A 
HETATM    6  C   UNK N   1      30.788  16.574   8.333  0.00  0.00     0.085 A 
HETATM    7  C   UNK N   1      31.576  15.604   7.699  0.00  0.00     0.074 A 
HETATM    8  C   UNK N   1      31.398  15.303   6.344  0.00  0.00     0.077 A 
HETATM    9  C   UNK N   1      30.412  15.984   5.601  0.00  0.00     0.013 A 
HETATM   10  C   UNK N   1      29.626  16.952   6.234  0.00  0.00     0.102 A 
HETATM   11  O   UNK N   1      28.708  17.576   5.514  0.00  0.00    -0.305 OA
ENDROOT
BRANCH   1  12
HETATM   12  C   UNK N   1      26.937  19.087   5.012  0.00  0.00     0.001 A 
HETATM   13  C   UNK N   1      27.269  20.115   4.120  0.00  0.00     0.017 A 
HETATM   14  C   UNK N   1      26.307  20.613   3.230  0.00  0.00     0.037 A 
HETATM   15  C   UNK N   1      25.008  20.089   3.221  0.00  0.00     0.068 A 
HETATM   16  C   UNK N   1      24.677  19.060   4.113  0.00  0.00     0.037 A 
HETATM   17  C   UNK N   1      25.633  18.567   4.996  0.00  0.00     0.017 A 
BRANCH  15  18
HETATM   18  O   UNK N   1      24.097  20.586   2.351  0.00  0.00    -0.356 OA
HETATM   19  C   UNK N   1      22.745  20.616   2.614  0.00  0.00     0.210 C 
ENDBRANCH  15  18
ENDBRANCH   1  12
BRANCH   2  20
HETATM   20  O   UNK N   1      27.193  19.833   7.861  0.00  0.00    -0.355 OA
HETATM   21  H   UNK N   1      27.563  20.608   8.236  0.00  0.00     0.218 HD
ENDBRANCH   2  20
BRANCH   9  22
HETATM   22  C   UNK N   1      30.113  15.761   4.137  0.00  0.00     0.072 C 
BRANCH  22  23
HETATM   23  C   UNK N   1      30.895  16.450   3.068  0.00  0.00    -0.020 C 
BRANCH  23  24
HETATM   24  C   UNK N   1      32.198  16.705   3.257  0.00  0.00    -0.091 C 
HETATM   25  C   UNK N   1      33.216  15.738   2.770  0.00  0.00     0.042 C 
HETATM   26  C   UNK N   1      32.663  17.951   3.953  0.00  0.00     0.042 C 
ENDBRANCH  23  24
ENDBRANCH  22  23
ENDBRANCH   9  22
BRANCH   6  27
HETATM   27  O   UNK N   1      30.995  16.830   9.637  0.00  0.00    -0.360 OA
HETATM   28  H   UNK N   1      30.291  16.740  10.249  0.00  0.00     0.217 HD
ENDBRANCH   6  27
BRANCH   8  29
HETATM   29  O   UNK N   1      32.175  14.367   5.774  0.00  0.00    -0.360 OA
HETATM   30  H   UNK N   1      32.674  14.574   5.008  0.00  0.00     0.217 HD
ENDBRANCH   8  29
TORSDOF 8
ENDMDL
MODEL 6
REMARK VINA RESULT:      -6.6      1.504      3.949
REMARK  8 active torsions:
REMARK  status: ('A' for Active; 'I' for Inactive)
REMARK    1  A    between atoms: O_2  and  C_3 
REMARK    2  A    between atoms: C_6  and  C_9 
REMARK    3  A    between atoms: C_10  and  O_11 
REMARK    4  A    between atoms: C_15  and  O_16 
REMARK    5  A    between atoms: C_18  and  O_19 
REMARK    6  A    between atoms: C_20  and  C_21 
REMARK    7  A    between atoms: C_21  and  C_22 
REMARK    8  A    between atoms: C_22  and  C_23 
ROOT
HETATM    1  C   UNK N   1      30.978  17.206   7.818  0.00  0.00     0.123 A 
HETATM    2  C   UNK N   1      30.016  18.048   8.416  0.00  0.00     0.152 A 
HETATM    3  C   UNK N   1      28.818  18.313   7.725  0.00  0.00     0.223 A 
HETATM    4  O   UNK N   1      27.979  19.038   8.229  0.00  0.00    -0.284 OA
HETATM    5  C   UNK N   1      28.607  17.730   6.452  0.00  0.00     0.085 A 
HETATM    6  C   UNK N   1      27.439  17.935   5.682  0.00  0.00     0.085 A 
HETATM    7  C   UNK N   1      27.314  17.317   4.430  0.00  0.00     0.074 A 
HETATM    8  C   UNK N   1      28.330  16.497   3.927  0.00  0.00     0.077 A 
HETATM    9  C   UNK N   1      29.498  16.286   4.686  0.00  0.00     0.013 A 
HETATM   10  C   UNK N   1      29.622  16.903   5.935  0.00  0.00     0.102 A 
HETATM   11  O   UNK N   1      30.729  16.687   6.628  0.00  0.00    -0.305 OA
ENDROOT
BRANCH   1  12
HETATM   12  C   UNK N   1      32.280  16.842   8.428  0.00  0.00     0.001 A 
HETATM   13  C   UNK N   1      32.499  15.639   9.112  0.00  0.00     0.017 A 
HETATM   14  C   UNK N   1      33.758  15.362   9.665  0.00  0.00     0.037 A 
HETATM   15  C   UNK N   1      34.807  16.282   9.539  0.00  0.00     0.068 A 
HETATM   16  C   UNK N   1      34.588  17.485   8.854  0.00  0.00     0.037 A 
HETATM   17  C   UNK N   1      33.337  17.757   8.306  0.00  0.00     0.017 A 
BRANCH  15  18
HETATM   18  O   UNK N   1      36.014  15.992  10.081  0.00  0.00    -0.356 OA
HETATM   19  C   UNK N   1      36.171  15.151  11.161  0.00  0.00     0.210 C 
ENDBRANCH  15  18
ENDBRANCH   1  12
BRANCH   2  20
HETATM   20  O   UNK N   1      30.227  18.597   9.627  0.00  0.00    -0.355 OA
HETATM   21  H   UNK N   1      30.964  19.159   9.765  0.00  0.00     0.218 HD
ENDBRANCH   2  20
BRANCH   9  22
HETATM   22  C   UNK N   1      30.669  15.428   4.266  0.00  0.00     0.072 C 
BRANCH  22  23
HETATM   23  C   UNK N   1      31.842  16.009   3.548  0.00  0.00    -0.020 C 
BRANCH  23  24
HETATM   24  C   UNK N   1      32.933  16.372   4.240  0.00  0.00    -0.091 C 
HETATM   25  C   UNK N   1      33.178  17.809   4.527  0.00  0.00     0.042 C 
HETATM   26  C   UNK N   1      33.921  15.359   4.737  0.00  0.00     0.042 C 
ENDBRANCH  23  24
ENDBRANCH  22  23
ENDBRANCH   9  22
BRANCH   6  27
HETATM   27  O   UNK N   1      26.437  18.715   6.126  0.00  0.00    -0.360 OA
HETATM   28  H   UNK N   1      25.653  18.803   5.621  0.00  0.00     0.217 HD
ENDBRANCH   6  27
BRANCH   8  29
HETATM   29  O   UNK N   1      28.170  15.923   2.722  0.00  0.00    -0.360 OA
HETATM   30  H   UNK N   1      28.837  16.010   2.069  0.00  0.00     0.217 HD
ENDBRANCH   8  29
TORSDOF 8
ENDMDL
MODEL 7
REMARK VINA RESULT:      -6.5      4.554      7.812
REMARK  8 active torsions:
REMARK  status: ('A' for Active; 'I' for Inactive)
REMARK    1  A    between atoms: O_2  and  C_3 
REMARK    2  A    between atoms: C_6  and  C_9 
REMARK    3  A    between atoms: C_10  and  O_11 
REMARK    4  A    between atoms: C_15  and  O_16 
REMARK    5  A    between atoms: C_18  and  O_19 
REMARK    6  A    between atoms: C_20  and  C_21 
REMARK    7  A    between atoms: C_21  and  C_22 
REMARK    8  A    between atoms: C_22  and  C_23 
ROOT
HETATM    1  C   UNK N   1      24.768  18.156   3.870  0.00  0.00     0.123 A 
HETATM    2  C   UNK N   1      24.909  19.526   3.564  0.00  0.00     0.152 A 
HETATM    3  C   UNK N   1      23.762  20.274   3.241  0.00  0.00     0.223 A 
HETATM    4  O   UNK N   1      23.870  21.458   2.974  0.00  0.00    -0.284 OA
HETATM    5  C   UNK N   1      22.498  19.637   3.231  0.00  0.00     0.085 A 
HETATM    6  C   UNK N   1      21.289  20.303   2.920  0.00  0.00     0.085 A 
HETATM    7  C   UNK N   1      20.081  19.593   2.934  0.00  0.00     0.074 A 
HETATM    8  C   UNK N   1      20.049  18.231   3.253  0.00  0.00     0.077 A 
HETATM    9  C   UNK N   1      21.247  17.558   3.565  0.00  0.00     0.013 A 
HETATM   10  C   UNK N   1      22.453  18.267   3.550  0.00  0.00     0.102 A 
HETATM   11  O   UNK N   1      23.563  17.611   3.847  0.00  0.00    -0.305 OA
ENDROOT
BRANCH   1  12
HETATM   12  C   UNK N   1      25.886  17.248   4.226  0.00  0.00     0.001 A 
HETATM   13  C   UNK N   1      26.380  17.112   5.531  0.00  0.00     0.017 A 
HETATM   14  C   UNK N   1      27.441  16.234   5.794  0.00  0.00     0.037 A 
HETATM   15  C   UNK N   1      28.018  15.485   4.759  0.00  0.00     0.068 A 
HETATM   16  C   UNK N   1      27.522  15.621   3.455  0.00  0.00     0.037 A 
HETATM   17  C   UNK N   1      26.468  16.493   3.196  0.00  0.00     0.017 A 
BRANCH  15  18
HETATM   18  O   UNK N   1      29.042  14.644   5.038  0.00  0.00    -0.356 OA
HETATM   19  C   UNK N   1      30.296  15.082   5.403  0.00  0.00     0.210 C 
ENDBRANCH  15  18
ENDBRANCH   1  12
BRANCH   2  20
HETATM   20  O   UNK N   1      26.117  20.122   3.576  0.00  0.00    -0.355 OA
HETATM   21  H   UNK N   1      26.830  19.727   4.040  0.00  0.00     0.218 HD
ENDBRANCH   2  20
BRANCH   9  22
HETATM   22  C   UNK N   1      21.359  16.095   3.926  0.00  0.00     0.072 C 
BRANCH  22  23
HETATM   23  C   UNK N   1      20.909  15.584   5.254  0.00  0.00    -0.020 C 
BRANCH  23  24
HETATM   24  C   UNK N   1      21.606  15.894   6.357  0.00  0.00    -0.091 C 
HETATM   25  C   UNK N   1      20.932  16.591   7.483  0.00  0.00     0.042 C 
HETATM   26  C   UNK N   1      23.062  15.554   6.489  0.00  0.00     0.042 C 
ENDBRANCH  23  24
ENDBRANCH  22  23
ENDBRANCH   9  22
BRANCH   6  27
HETATM   27  O   UNK N   1      21.272  21.611   2.607  0.00  0.00    -0.360 OA
HETATM   28  H   UNK N   1      20.544  22.143   2.860  0.00  0.00     0.217 HD
ENDBRANCH   6  27
BRANCH   8  29
HETATM   29  O   UNK N   1      18.869  17.588   3.257  0.00  0.00    -0.360 OA
HETATM   30  H   UNK N   1      18.240  17.758   2.583  0.00  0.00     0.217 HD
ENDBRANCH   8  29
TORSDOF 8
ENDMDL
MODEL 8
REMARK VINA RESULT:      -6.5      4.455      8.115
REMARK  8 active torsions:
REMARK  status: ('A' for Active; 'I' for Inactive)
REMARK    1  A    between atoms: O_2  and  C_3 
REMARK    2  A    between atoms: C_6  and  C_9 
REMARK    3  A    between atoms: C_10  and  O_11 
REMARK    4  A    between atoms: C_15  and  O_16 
REMARK    5  A    between atoms: C_18  and  O_19 
REMARK    6  A    between atoms: C_20  and  C_21 
REMARK    7  A    between atoms: C_21  and  C_22 
REMARK    8  A    between atoms: C_22  and  C_23 
ROOT
HETATM    1  C   UNK N   1      24.774  18.110   3.818  0.00  0.00     0.123 A 
HETATM    2  C   UNK N   1      24.937  19.485   3.546  0.00  0.00     0.152 A 
HETATM    3  C   UNK N   1      23.801  20.259   3.241  0.00  0.00     0.223 A 
HETATM    4  O   UNK N   1      23.927  21.447   3.003  0.00  0.00    -0.284 OA
HETATM    5  C   UNK N   1      22.527  19.642   3.217  0.00  0.00     0.085 A 
HETATM    6  C   UNK N   1      21.328  20.333   2.922  0.00  0.00     0.085 A 
HETATM    7  C   UNK N   1      20.110  19.642   2.920  0.00  0.00     0.074 A 
HETATM    8  C   UNK N   1      20.056  18.273   3.206  0.00  0.00     0.077 A 
HETATM    9  C   UNK N   1      21.244  17.575   3.501  0.00  0.00     0.013 A 
HETATM   10  C   UNK N   1      22.461  18.265   3.503  0.00  0.00     0.102 A 
HETATM   11  O   UNK N   1      23.561  17.585   3.783  0.00  0.00    -0.305 OA
ENDROOT
BRANCH   1  12
HETATM   12  C   UNK N   1      25.878  17.177   4.152  0.00  0.00     0.001 A 
HETATM   13  C   UNK N   1      26.383  17.016   5.450  0.00  0.00     0.017 A 
HETATM   14  C   UNK N   1      27.430  16.115   5.691  0.00  0.00     0.037 A 
HETATM   15  C   UNK N   1      27.980  15.368   4.642  0.00  0.00     0.068 A 
HETATM   16  C   UNK N   1      27.474  15.528   3.345  0.00  0.00     0.037 A 
HETATM   17  C   UNK N   1      26.435  16.424   3.107  0.00  0.00     0.017 A 
BRANCH  15  18
HETATM   18  O   UNK N   1      28.991  14.504   4.900  0.00  0.00    -0.356 OA
HETATM   19  C   UNK N   1      30.166  14.882   5.510  0.00  0.00     0.210 C 
ENDBRANCH  15  18
ENDBRANCH   1  12
BRANCH   2  20
HETATM   20  O   UNK N   1      26.153  20.062   3.572  0.00  0.00    -0.355 OA
HETATM   21  H   UNK N   1      26.358  20.751   2.971  0.00  0.00     0.218 HD
ENDBRANCH   2  20
BRANCH   9  22
HETATM   22  C   UNK N   1      21.333  16.102   3.826  0.00  0.00     0.072 C 
BRANCH  22  23
HETATM   23  C   UNK N   1      21.509  15.077   2.755  0.00  0.00    -0.020 C 
BRANCH  23  24
HETATM   24  C   UNK N   1      22.716  14.528   2.552  0.00  0.00    -0.091 C 
HETATM   25  C   UNK N   1      23.213  14.335   1.164  0.00  0.00     0.042 C 
HETATM   26  C   UNK N   1      23.588  14.099   3.695  0.00  0.00     0.042 C 
ENDBRANCH  23  24
ENDBRANCH  22  23
ENDBRANCH   9  22
BRANCH   6  27
HETATM   27  O   UNK N   1      21.331  21.649   2.642  0.00  0.00    -0.360 OA
HETATM   28  H   UNK N   1      21.420  22.275   3.333  0.00  0.00     0.217 HD
ENDBRANCH   6  27
BRANCH   8  29
HETATM   29  O   UNK N   1      18.867  17.648   3.195  0.00  0.00    -0.360 OA
HETATM   30  H   UNK N   1      18.349  17.640   2.413  0.00  0.00     0.217 HD
ENDBRANCH   8  29
TORSDOF 8
ENDMDL
MODEL 9
REMARK VINA RESULT:      -6.4      1.993      5.991
REMARK  8 active torsions:
REMARK  status: ('A' for Active; 'I' for Inactive)
REMARK    1  A    between atoms: O_2  and  C_3 
REMARK    2  A    between atoms: C_6  and  C_9 
REMARK    3  A    between atoms: C_10  and  O_11 
REMARK    4  A    between atoms: C_15  and  O_16 
REMARK    5  A    between atoms: C_18  and  O_19 
REMARK    6  A    between atoms: C_20  and  C_21 
REMARK    7  A    between atoms: C_21  and  C_22 
REMARK    8  A    between atoms: C_22  and  C_23 
ROOT
HETATM    1  C   UNK N   1      29.537  17.513   4.645  0.00  0.00     0.123 A 
HETATM    2  C   UNK N   1      29.120  16.525   3.728  0.00  0.00     0.152 A 
HETATM    3  C   UNK N   1      30.034  15.529   3.337  0.00  0.00     0.223 A 
HETATM    4  O   UNK N   1      29.688  14.670   2.545  0.00  0.00    -0.284 OA
HETATM    5  C   UNK N   1      31.345  15.540   3.872  0.00  0.00     0.085 A 
HETATM    6  C   UNK N   1      32.334  14.584   3.542  0.00  0.00     0.085 A 
HETATM    7  C   UNK N   1      33.607  14.672   4.120  0.00  0.00     0.074 A 
HETATM    8  C   UNK N   1      33.919  15.694   5.023  0.00  0.00     0.077 A 
HETATM    9  C   UNK N   1      32.942  16.652   5.360  0.00  0.00     0.013 A 
HETATM   10  C   UNK N   1      31.671  16.564   4.782  0.00  0.00     0.102 A 
HETATM   11  O   UNK N   1      30.772  17.476   5.115  0.00  0.00    -0.305 OA
ENDROOT
BRANCH   1  12
HETATM   12  C   UNK N   1      28.684  18.619   5.143  0.00  0.00     0.001 A 
HETATM   13  C   UNK N   1      28.142  19.608   4.310  0.00  0.00     0.017 A 
HETATM   14  C   UNK N   1      27.344  20.625   4.852  0.00  0.00     0.037 A 
HETATM   15  C   UNK N   1      27.079  20.665   6.227  0.00  0.00     0.068 A 
HETATM   16  C   UNK N   1      27.620  19.676   7.059  0.00  0.00     0.037 A 
HETATM   17  C   UNK N   1      28.412  18.667   6.520  0.00  0.00     0.017 A 
BRANCH  15  18
HETATM   18  O   UNK N   1      26.305  21.658   6.726  0.00  0.00    -0.356 OA
HETATM   19  C   UNK N   1      25.796  21.644   8.006  0.00  0.00     0.210 C 
ENDBRANCH  15  18
ENDBRANCH   1  12
BRANCH   2  20
HETATM   20  O   UNK N   1      27.871  16.523   3.225  0.00  0.00    -0.355 OA
HETATM   21  H   UNK N   1      27.739  16.562   2.298  0.00  0.00     0.218 HD
ENDBRANCH   2  20
BRANCH   9  22
HETATM   22  C   UNK N   1      33.142  17.804   6.316  0.00  0.00     0.072 C 
BRANCH  22  23
HETATM   23  C   UNK N   1      33.184  17.592   7.793  0.00  0.00    -0.020 C 
BRANCH  23  24
HETATM   24  C   UNK N   1      32.081  17.185   8.439  0.00  0.00    -0.091 C 
HETATM   25  C   UNK N   1      31.931  15.754   8.811  0.00  0.00     0.042 C 
HETATM   26  C   UNK N   1      30.984  18.142   8.800  0.00  0.00     0.042 C 
ENDBRANCH  23  24
ENDBRANCH  22  23
ENDBRANCH   9  22
BRANCH   6  27
HETATM   27  O   UNK N   1      32.078  13.585   2.679  0.00  0.00    -0.360 OA
HETATM   28  H   UNK N   1      32.071  12.697   2.979  0.00  0.00     0.217 HD
ENDBRANCH   6  27
BRANCH   8  29
HETATM   29  O   UNK N   1      35.152  15.741   5.556  0.00  0.00    -0.360 OA
HETATM   30  H   UNK N   1      35.285  15.499   6.451  0.00  0.00     0.217 HD
ENDBRANCH   8  29
TORSDOF 8
ENDMDL
