REMARK  11 active torsions:
REMARK  status: ('A' for Active; 'I' for Inactive)
REMARK    1  A    between atoms: C_4  and  N_7 
REMARK    2  A    between atoms: N_7  and  C_8 
REMARK       I    between atoms: N_7  and  C_14 
REMARK    3  A    between atoms: C_18  and  C_22 
REMARK       I    between atoms: C_22  and  N_24 
REMARK    4  A    between atoms: N_24  and  C_25 
REMARK    5  A    between atoms: C_25  and  C_26 
REMARK    6  A    between atoms: C_26  and  C_27 
REMARK    7  A    between atoms: C_27  and  C_28 
REMARK    8  A    between atoms: C_28  and  C_29 
REMARK    9  A    between atoms: C_29  and  C_30 
REMARK   10  A    between atoms: C_30  and  C_31 
REMARK       I    between atoms: C_31  and  N_33 
REMARK   11  A    between atoms: N_33  and  O_34 
ROOT
HETATM    1  N   UNK N   1      -3.036   1.221   0.119  0.00  0.00    -0.148 N 
HETATM    2  C   UNK N   1      -1.896   2.142   0.128  0.00  0.00     0.689 A 
HETATM    3  N   UNK N   1      -2.073   3.483  -0.045  0.00  0.00    -0.200 N 
ATOM      4  HN  UNK N   1      -3.021   3.848  -0.137  1.00  0.00     0.183 HD
HETATM    5  C   UNK N   1      -1.027   4.347  -0.100  0.00  0.00     0.124 A 
HETATM    6  C   UNK N   1       0.279   3.879   0.034  0.00  0.00     0.063 A 
HETATM    7  C   UNK N   1       0.448   2.511   0.240  0.00  0.00     0.124 A 
HETATM    8  N   UNK N   1      -0.624   1.682   0.276  0.00  0.00    -0.200 N 
ATOM      9  HN  UNK N   1      -0.472   0.683   0.419  1.00  0.00     0.183 HD
ENDROOT
BRANCH   6  10
HETATM   10  C   UNK N   1       1.426   4.834  -0.088  0.00  0.00     0.254 C 
HETATM   11  O   UNK N   1       1.181   6.000  -0.355  0.00  0.00    -0.268 OA
HETATM   12  N   UNK N   1       2.731   4.474   0.074  0.00  0.00    -0.357 N 
HETATM   13  H   UNK N   1       3.411   5.170  -0.074  0.00  0.00     0.162 HD
BRANCH  12  14
HETATM   14  C   UNK N   1       3.201   3.162   0.445  0.00  0.00     0.123 C 
BRANCH  14  15
HETATM   15  C   UNK N   1       3.269   2.238  -0.761  0.00  0.00     0.020 C 
BRANCH  15  16
HETATM   16  C   UNK N   1       3.708   0.859  -0.291  0.00  0.00     0.002 C 
BRANCH  16  17
HETATM   17  C   UNK N   1       5.208   0.657  -0.467  0.00  0.00     0.001 C 
BRANCH  17  18
HETATM   18  C   UNK N   1       5.996   1.727   0.267  0.00  0.00     0.009 C 
BRANCH  18  19
HETATM   19  C   UNK N   1       7.481   1.552   0.012  0.00  0.00     0.105 C 
BRANCH  19  20
HETATM   20  C   UNK N   1       8.221   2.858   0.042  0.00  0.00     0.240 C 
HETATM   21  O   UNK N   1       7.616   3.919   0.117  0.00  0.00    -0.271 OA
HETATM   22  N   UNK N   1       9.570   2.850  -0.020  0.00  0.00    -0.237 N 
HETATM   23  H   UNK N   1      10.048   1.992  -0.087  0.00  0.00     0.197 HD
BRANCH  22  24
HETATM   24  O   UNK N   1      10.265   3.995   0.009  0.00  0.00    -0.287 OA
HETATM   25  H   UNK N   1      11.234   3.974   0.030  0.00  0.00     0.244 HD
ENDBRANCH  22  24
ENDBRANCH  19  20
ENDBRANCH  18  19
ENDBRANCH  17  18
ENDBRANCH  16  17
ENDBRANCH  15  16
ENDBRANCH  14  15
ENDBRANCH  12  14
ENDBRANCH   6  10
BRANCH   1  26
HETATM   26  C   UNK N   1      -2.797  -0.231   0.129  0.00  0.00     0.057 A 
HETATM   27  C   UNK N   1      -3.842  -1.160  -0.056  0.00  0.00     0.030 A 
HETATM   28  C   UNK N   1      -3.613  -2.538  -0.082  0.00  0.00     0.002 A 
HETATM   29  C   UNK N   1      -2.320  -3.032   0.076  0.00  0.00     0.000 A 
HETATM   30  C   UNK N   1      -1.262  -2.146   0.258  0.00  0.00     0.002 A 
HETATM   31  C   UNK N   1      -1.501  -0.769   0.281  0.00  0.00     0.030 A 
ENDBRANCH   1  26
BRANCH   1  32
HETATM   32  C   UNK N   1      -4.403   1.758   0.057  0.00  0.00     0.057 A 
HETATM   33  C   UNK N   1      -5.538   0.923   0.126  0.00  0.00     0.030 A 
HETATM   34  C   UNK N   1      -6.837   1.434   0.075  0.00  0.00     0.002 A 
HETATM   35  C   UNK N   1      -7.041   2.807  -0.043  0.00  0.00     0.000 A 
HETATM   36  C   UNK N   1      -5.945   3.663  -0.105  0.00  0.00     0.002 A 
HETATM   37  C   UNK N   1      -4.651   3.143  -0.052  0.00  0.00     0.030 A 
ENDBRANCH   1  32
TORSDOF 11
