REMARK  6 active torsions:
REMARK  status: ('A' for Active; 'I' for Inactive)
REMARK    1  A    between atoms: C_10  and  C_9 
REMARK    2  A    between atoms: C_12  and  C_9 
REMARK    3  A    between atoms: C_13  and  C_11 
REMARK    4  A    between atoms: C_14  and  C_11 
REMARK    5  A    between atoms: O_17  and  C_14 
REMARK    6  A    between atoms: N_15  and  S_20 
ROOT
HETATM    1  C   UNK N   1       2.383   3.130  -1.124  0.00  0.00     0.023 C 
HETATM    2  C   UNK N   1       1.479   2.610  -0.017  0.00  0.00     0.090 C 
ENDROOT
BRANCH   2   3
HETATM    3  C   UNK N   1       1.437   1.100  -0.055  0.00  0.00    -0.047 A 
HETATM    4  C   UNK N   1       1.807   0.357   1.074  0.00  0.00     0.008 A 
HETATM    5  C   UNK N   1       1.656  -1.033   1.079  0.00  0.00     0.007 A 
HETATM    6  C   UNK N   1       1.140  -1.687  -0.045  0.00  0.00    -0.058 A 
HETATM    7  C   UNK N   1       0.808  -0.954  -1.188  0.00  0.00     0.007 A 
HETATM    8  C   UNK N   1       0.955   0.433  -1.194  0.00  0.00     0.008 A 
BRANCH   6   9
HETATM    9  C   UNK N   1       0.886  -3.159   0.008  0.00  0.00     0.042 C 
BRANCH   9  10
HETATM   10  C   UNK N   1      -0.590  -3.487  -0.231  0.00  0.00    -0.019 C 
HETATM   11  C   UNK N   1      -0.802  -4.980  -0.102  0.00  0.00     0.010 C 
HETATM   12  C   UNK N   1      -1.501  -2.773   0.755  0.00  0.00     0.010 C 
ENDBRANCH   9  10
ENDBRANCH   6   9
ENDBRANCH   2   3
BRANCH   2  13
HETATM   13  C   UNK N   1       0.082   3.183  -0.162  0.00  0.00     0.133 C 
HETATM   14  N   UNK N   1      -0.095   4.466  -0.118  0.00  0.00    -0.268 N 
ATOM     15  HN  UNK N   1       0.707   5.073   0.051  1.00  0.00     0.180 HD
BRANCH  14  16
HETATM   16  S   UNK N   1      -1.688   5.189  -0.341  0.00  0.00     0.228 S 
HETATM   17  C   UNK N   1      -2.470   6.515   0.618  0.00  0.00     0.186 C 
HETATM   18  O   UNK N   1      -0.778   6.413  -0.161  0.00  0.00    -0.206 OA
HETATM   19  O   UNK N   1      -1.843   4.731   1.120  0.00  0.00    -0.206 OA
ENDBRANCH  14  16
BRANCH  13  20
HETATM   20  O   UNK N   1      -0.978   2.368  -0.328  0.00  0.00    -0.348 OA
HETATM   21  H   UNK N   1      -1.838   2.723  -0.443  0.00  0.00     0.219 HD
ENDBRANCH  13  20
ENDBRANCH   2  13
TORSDOF 6
