MODEL 1
REMARK VINA RESULT:      -6.0      0.000      0.000
REMARK  9 active torsions:
REMARK  status: ('A' for Active; 'I' for Inactive)
REMARK    1  A    between atoms: C_3  and  N_8 
REMARK       I    between atoms: N_8  and  C_9 
REMARK    2  A    between atoms: C_9  and  C_11 
REMARK    3  A    between atoms: C_11  and  C_12 
REMARK    4  A    between atoms: C_12  and  C_13 
REMARK    5  A    between atoms: C_13  and  C_14 
REMARK    6  A    between atoms: C_14  and  C_15 
REMARK    7  A    between atoms: C_15  and  C_16 
REMARK    8  A    between atoms: C_16  and  C_17 
REMARK       I    between atoms: C_17  and  N_19 
REMARK    9  A    between atoms: N_19  and  O_20 
ROOT
HETATM    1  C   UNK N   1      19.980  16.071   7.186  0.00  0.00     0.103 C 
ENDROOT
BRANCH   1   2
HETATM    2  C   UNK N   1      20.448  14.801   7.822  0.00  0.00     0.222 C 
HETATM    3  N   UNK N   1      21.137  14.862   8.993  0.00  0.00    -0.326 N 
HETATM    4  H   UNK N   1      21.258  15.753   9.395  0.00  0.00     0.169 HD
HETATM    5  O   UNK N   1      20.252  13.734   7.258  0.00  0.00    -0.273 OA
BRANCH   3   6
HETATM    6  C   UNK N   1      21.702  13.755   9.691  0.00  0.00     0.050 A 
HETATM    7  C   UNK N   1      23.051  13.449   9.500  0.00  0.00     0.032 A 
HETATM    8  C   UNK N   1      23.621  12.356  10.153  0.00  0.00     0.019 A 
HETATM    9  C   UNK N   1      22.831  11.575  10.997  0.00  0.00     0.088 A 
HETATM   10  N   UNK N   1      21.518  11.882  11.180  0.00  0.00    -0.373 N 
HETATM   11  C   UNK N   1      20.943  12.941  10.549  0.00  0.00     0.117 A 
ATOM     12  HN  UNK N   1      20.952  11.305  11.802  1.00  0.00     0.164 HD
ENDBRANCH   3   6
ENDBRANCH   1   2
BRANCH   1  13
HETATM   13  C   UNK N   1      21.105  17.081   7.043  0.00  0.00     0.009 C 
BRANCH  13  14
HETATM   14  C   UNK N   1      20.911  17.881   5.766  0.00  0.00     0.000 C 
BRANCH  14  15
HETATM   15  C   UNK N   1      22.177  17.875   4.929  0.00  0.00     0.000 C 
BRANCH  15  16
HETATM   16  C   UNK N   1      21.857  18.215   3.480  0.00  0.00     0.009 C 
BRANCH  16  17
HETATM   17  C   UNK N   1      20.853  19.357   3.407  0.00  0.00     0.105 C 
BRANCH  17  18
HETATM   18  C   UNK N   1      21.140  20.296   2.273  0.00  0.00     0.240 C 
HETATM   19  O   UNK N   1      21.831  21.284   2.454  0.00  0.00    -0.271 OA
HETATM   20  N   UNK N   1      20.595  20.058   1.060  0.00  0.00    -0.237 N 
HETATM   21  H   UNK N   1      20.038  19.259   0.923  0.00  0.00     0.197 HD
BRANCH  20  22
HETATM   22  O   UNK N   1      20.808  20.903   0.039  0.00  0.00    -0.287 OA
HETATM   23  H   UNK N   1      21.165  21.791   0.195  0.00  0.00     0.244 HD
ENDBRANCH  20  22
ENDBRANCH  17  18
ENDBRANCH  16  17
ENDBRANCH  15  16
ENDBRANCH  14  15
ENDBRANCH  13  14
ENDBRANCH   1  13
TORSDOF 9
ENDMDL
MODEL 2
REMARK VINA RESULT:      -6.0     15.367     16.937
REMARK  9 active torsions:
REMARK  status: ('A' for Active; 'I' for Inactive)
REMARK    1  A    between atoms: C_3  and  N_8 
REMARK       I    between atoms: N_8  and  C_9 
REMARK    2  A    between atoms: C_9  and  C_11 
REMARK    3  A    between atoms: C_11  and  C_12 
REMARK    4  A    between atoms: C_12  and  C_13 
REMARK    5  A    between atoms: C_13  and  C_14 
REMARK    6  A    between atoms: C_14  and  C_15 
REMARK    7  A    between atoms: C_15  and  C_16 
REMARK    8  A    between atoms: C_16  and  C_17 
REMARK       I    between atoms: C_17  and  N_19 
REMARK    9  A    between atoms: N_19  and  O_20 
ROOT
HETATM    1  C   UNK N   1      27.039  22.423  -7.215  0.00  0.00     0.103 C 
ENDROOT
BRANCH   1   2
HETATM    2  C   UNK N   1      26.341  23.468  -6.404  0.00  0.00     0.222 C 
HETATM    3  N   UNK N   1      27.016  24.598  -6.060  0.00  0.00    -0.326 N 
HETATM    4  H   UNK N   1      27.933  24.694  -6.405  0.00  0.00     0.169 HD
HETATM    5  O   UNK N   1      25.198  23.271  -6.020  0.00  0.00    -0.273 OA
BRANCH   3   6
HETATM    6  C   UNK N   1      26.517  25.655  -5.243  0.00  0.00     0.050 A 
HETATM    7  C   UNK N   1      25.779  26.680  -5.839  0.00  0.00     0.032 A 
HETATM    8  C   UNK N   1      25.300  27.739  -5.066  0.00  0.00     0.019 A 
HETATM    9  C   UNK N   1      25.566  27.760  -3.696  0.00  0.00     0.088 A 
HETATM   10  N   UNK N   1      26.283  26.756  -3.124  0.00  0.00    -0.373 N 
HETATM   11  C   UNK N   1      26.761  25.718  -3.862  0.00  0.00     0.117 A 
ATOM     12  HN  UNK N   1      26.467  26.782  -2.121  1.00  0.00     0.164 HD
ENDBRANCH   3   6
ENDBRANCH   1   2
BRANCH   1  13
HETATM   13  C   UNK N   1      28.550  22.556  -7.131  0.00  0.00     0.009 C 
BRANCH  13  14
HETATM   14  C   UNK N   1      29.162  21.204  -6.806  0.00  0.00     0.000 C 
BRANCH  14  15
HETATM   15  C   UNK N   1      30.044  21.294  -5.574  0.00  0.00     0.000 C 
BRANCH  15  16
HETATM   16  C   UNK N   1      29.667  22.510  -4.740  0.00  0.00     0.009 C 
BRANCH  16  17
HETATM   17  C   UNK N   1      30.914  23.187  -4.185  0.00  0.00     0.105 C 
BRANCH  17  18
HETATM   18  C   UNK N   1      31.403  22.535  -2.926  0.00  0.00     0.240 C 
HETATM   19  O   UNK N   1      30.909  22.829  -1.851  0.00  0.00    -0.271 OA
HETATM   20  N   UNK N   1      32.420  21.649  -2.989  0.00  0.00    -0.237 N 
HETATM   21  H   UNK N   1      32.814  21.418  -3.861  0.00  0.00     0.197 HD
BRANCH  20  22
HETATM   22  O   UNK N   1      32.900  21.079  -1.873  0.00  0.00    -0.287 OA
HETATM   23  H   UNK N   1      32.638  21.405  -0.998  0.00  0.00     0.244 HD
ENDBRANCH  20  22
ENDBRANCH  17  18
ENDBRANCH  16  17
ENDBRANCH  15  16
ENDBRANCH  14  15
ENDBRANCH  13  14
ENDBRANCH   1  13
TORSDOF 9
ENDMDL
MODEL 3
REMARK VINA RESULT:      -5.9      2.985      9.018
REMARK  9 active torsions:
REMARK  status: ('A' for Active; 'I' for Inactive)
REMARK    1  A    between atoms: C_3  and  N_8 
REMARK       I    between atoms: N_8  and  C_9 
REMARK    2  A    between atoms: C_9  and  C_11 
REMARK    3  A    between atoms: C_11  and  C_12 
REMARK    4  A    between atoms: C_12  and  C_13 
REMARK    5  A    between atoms: C_13  and  C_14 
REMARK    6  A    between atoms: C_14  and  C_15 
REMARK    7  A    between atoms: C_15  and  C_16 
REMARK    8  A    between atoms: C_16  and  C_17 
REMARK       I    between atoms: C_17  and  N_19 
REMARK    9  A    between atoms: N_19  and  O_20 
ROOT
HETATM    1  C   UNK N   1      20.637  16.295   6.852  0.00  0.00     0.103 C 
ENDROOT
BRANCH   1   2
HETATM    2  C   UNK N   1      21.262  17.508   6.241  0.00  0.00     0.222 C 
HETATM    3  N   UNK N   1      21.822  17.412   5.005  0.00  0.00    -0.326 N 
HETATM    4  H   UNK N   1      21.748  16.544   4.547  0.00  0.00     0.169 HD
HETATM    5  O   UNK N   1      21.306  18.551   6.877  0.00  0.00    -0.273 OA
BRANCH   3   6
HETATM    6  C   UNK N   1      22.507  18.453   4.313  0.00  0.00     0.050 A 
HETATM    7  C   UNK N   1      23.882  18.603   4.505  0.00  0.00     0.032 A 
HETATM    8  C   UNK N   1      24.572  19.630   3.858  0.00  0.00     0.019 A 
HETATM    9  C   UNK N   1      23.874  20.500   3.020  0.00  0.00     0.088 A 
HETATM   10  N   UNK N   1      22.536  20.345   2.837  0.00  0.00    -0.373 N 
HETATM   11  C   UNK N   1      21.845  19.353   3.461  0.00  0.00     0.117 A 
ATOM     12  HN  UNK N   1      22.038  20.986   2.219  1.00  0.00     0.164 HD
ENDBRANCH   3   6
ENDBRANCH   1   2
BRANCH   1  13
HETATM   13  C   UNK N   1      19.815  16.640   8.083  0.00  0.00     0.009 C 
BRANCH  13  14
HETATM   14  C   UNK N   1      19.933  15.520   9.103  0.00  0.00     0.000 C 
BRANCH  14  15
HETATM   15  C   UNK N   1      20.780  14.383   8.559  0.00  0.00     0.000 C 
BRANCH  15  16
HETATM   16  C   UNK N   1      21.918  14.063   9.518  0.00  0.00     0.009 C 
BRANCH  16  17
HETATM   17  C   UNK N   1      21.639  12.765  10.265  0.00  0.00     0.105 C 
BRANCH  17  18
HETATM   18  C   UNK N   1      22.761  12.386  11.185  0.00  0.00     0.240 C 
HETATM   19  O   UNK N   1      22.523  11.867  12.263  0.00  0.00    -0.271 OA
HETATM   20  N   UNK N   1      24.035  12.659  10.828  0.00  0.00    -0.237 N 
HETATM   21  H   UNK N   1      24.218  13.079   9.957  0.00  0.00     0.197 HD
BRANCH  20  22
HETATM   22  O   UNK N   1      25.053  12.362  11.650  0.00  0.00    -0.287 OA
HETATM   23  H   UNK N   1      24.936  11.733  12.377  0.00  0.00     0.244 HD
ENDBRANCH  20  22
ENDBRANCH  17  18
ENDBRANCH  16  17
ENDBRANCH  15  16
ENDBRANCH  14  15
ENDBRANCH  13  14
ENDBRANCH   1  13
TORSDOF 9
ENDMDL
MODEL 4
REMARK VINA RESULT:      -5.7     14.616     17.093
REMARK  9 active torsions:
REMARK  status: ('A' for Active; 'I' for Inactive)
REMARK    1  A    between atoms: C_3  and  N_8 
REMARK       I    between atoms: N_8  and  C_9 
REMARK    2  A    between atoms: C_9  and  C_11 
REMARK    3  A    between atoms: C_11  and  C_12 
REMARK    4  A    between atoms: C_12  and  C_13 
REMARK    5  A    between atoms: C_13  and  C_14 
REMARK    6  A    between atoms: C_14  and  C_15 
REMARK    7  A    between atoms: C_15  and  C_16 
REMARK    8  A    between atoms: C_16  and  C_17 
REMARK       I    between atoms: C_17  and  N_19 
REMARK    9  A    between atoms: N_19  and  O_20 
ROOT
HETATM    1  C   UNK N   1      36.652  14.371  14.416  0.00  0.00     0.103 C 
ENDROOT
BRANCH   1   2
HETATM    2  C   UNK N   1      35.965  14.481  13.092  0.00  0.00     0.222 C 
HETATM    3  N   UNK N   1      36.537  15.230  12.111  0.00  0.00    -0.326 N 
HETATM    4  H   UNK N   1      37.412  15.634  12.310  0.00  0.00     0.169 HD
HETATM    5  O   UNK N   1      34.880  13.942  12.927  0.00  0.00    -0.273 OA
BRANCH   3   6
HETATM    6  C   UNK N   1      35.983  15.484  10.822  0.00  0.00     0.050 A 
HETATM    7  C   UNK N   1      35.233  16.645  10.624  0.00  0.00     0.032 A 
HETATM    8  C   UNK N   1      34.660  16.904   9.378  0.00  0.00     0.019 A 
HETATM    9  C   UNK N   1      34.845  15.994   8.337  0.00  0.00     0.088 A 
HETATM   10  N   UNK N   1      35.580  14.867   8.539  0.00  0.00    -0.373 N 
HETATM   11  C   UNK N   1      36.143  14.595   9.747  0.00  0.00     0.117 A 
ATOM     12  HN  UNK N   1      35.711  14.212   7.768  1.00  0.00     0.164 HD
ENDBRANCH   3   6
ENDBRANCH   1   2
BRANCH   1  13
HETATM   13  C   UNK N   1      36.766  12.928  14.878  0.00  0.00     0.009 C 
BRANCH  13  14
HETATM   14  C   UNK N   1      36.018  12.753  16.189  0.00  0.00     0.000 C 
BRANCH  14  15
HETATM   15  C   UNK N   1      34.577  12.345  15.936  0.00  0.00     0.000 C 
BRANCH  15  16
HETATM   16  C   UNK N   1      34.492  10.854  15.640  0.00  0.00     0.009 C 
BRANCH  16  17
HETATM   17  C   UNK N   1      33.675  10.604  14.379  0.00  0.00     0.105 C 
BRANCH  17  18
HETATM   18  C   UNK N   1      34.521  10.610  13.141  0.00  0.00     0.240 C 
HETATM   19  O   UNK N   1      35.557   9.968  13.103  0.00  0.00    -0.271 OA
HETATM   20  N   UNK N   1      34.146  11.362  12.084  0.00  0.00    -0.237 N 
HETATM   21  H   UNK N   1      33.309  11.878  12.123  0.00  0.00     0.197 HD
BRANCH  20  22
HETATM   22  O   UNK N   1      34.906  11.412  10.978  0.00  0.00    -0.287 OA
HETATM   23  H   UNK N   1      35.867  11.298  11.031  0.00  0.00     0.244 HD
ENDBRANCH  20  22
ENDBRANCH  17  18
ENDBRANCH  16  17
ENDBRANCH  15  16
ENDBRANCH  14  15
ENDBRANCH  13  14
ENDBRANCH   1  13
TORSDOF 9
ENDMDL
MODEL 5
REMARK VINA RESULT:      -5.6     11.186     12.328
REMARK  9 active torsions:
REMARK  status: ('A' for Active; 'I' for Inactive)
REMARK    1  A    between atoms: C_3  and  N_8 
REMARK       I    between atoms: N_8  and  C_9 
REMARK    2  A    between atoms: C_9  and  C_11 
REMARK    3  A    between atoms: C_11  and  C_12 
REMARK    4  A    between atoms: C_12  and  C_13 
REMARK    5  A    between atoms: C_13  and  C_14 
REMARK    6  A    between atoms: C_14  and  C_15 
REMARK    7  A    between atoms: C_15  and  C_16 
REMARK    8  A    between atoms: C_16  and  C_17 
REMARK       I    between atoms: C_17  and  N_19 
REMARK    9  A    between atoms: N_19  and  O_20 
ROOT
HETATM    1  C   UNK N   1      34.183  17.398   7.907  0.00  0.00     0.103 C 
ENDROOT
BRANCH   1   2
HETATM    2  C   UNK N   1      34.879  16.845   9.110  0.00  0.00     0.222 C 
HETATM    3  N   UNK N   1      34.968  15.496   9.260  0.00  0.00    -0.326 N 
HETATM    4  H   UNK N   1      34.604  14.940   8.534  0.00  0.00     0.169 HD
HETATM    5  O   UNK N   1      35.309  17.607   9.963  0.00  0.00    -0.273 OA
BRANCH   3   6
HETATM    6  C   UNK N   1      35.541  14.814  10.373  0.00  0.00     0.050 A 
HETATM    7  C   UNK N   1      34.734  14.511  11.471  0.00  0.00     0.032 A 
HETATM    8  C   UNK N   1      35.277  13.865  12.583  0.00  0.00     0.019 A 
HETATM    9  C   UNK N   1      36.630  13.527  12.584  0.00  0.00     0.088 A 
HETATM   10  N   UNK N   1      37.409  13.824  11.509  0.00  0.00    -0.373 N 
HETATM   11  C   UNK N   1      36.899  14.456  10.417  0.00  0.00     0.117 A 
ATOM     12  HN  UNK N   1      38.396  13.567  11.521  1.00  0.00     0.164 HD
ENDBRANCH   3   6
ENDBRANCH   1   2
BRANCH   1  13
HETATM   13  C   UNK N   1      32.995  18.265   8.288  0.00  0.00     0.009 C 
BRANCH  13  14
HETATM   14  C   UNK N   1      31.707  17.570   7.880  0.00  0.00     0.000 C 
BRANCH  14  15
HETATM   15  C   UNK N   1      30.718  17.551   9.032  0.00  0.00     0.000 C 
BRANCH  15  16
HETATM   16  C   UNK N   1      29.299  17.372   8.510  0.00  0.00     0.009 C 
BRANCH  16  17
HETATM   17  C   UNK N   1      29.173  17.928   7.098  0.00  0.00     0.105 C 
BRANCH  17  18
HETATM   18  C   UNK N   1      28.102  18.971   6.990  0.00  0.00     0.240 C 
HETATM   19  O   UNK N   1      27.815  19.446   5.904  0.00  0.00    -0.271 OA
HETATM   20  N   UNK N   1      27.484  19.408   8.109  0.00  0.00    -0.237 N 
HETATM   21  H   UNK N   1      27.723  19.020   8.981  0.00  0.00     0.197 HD
BRANCH  20  22
HETATM   22  O   UNK N   1      26.548  20.367   8.042  0.00  0.00    -0.287 OA
HETATM   23  H   UNK N   1      25.631  20.184   8.297  0.00  0.00     0.244 HD
ENDBRANCH  20  22
ENDBRANCH  17  18
ENDBRANCH  16  17
ENDBRANCH  15  16
ENDBRANCH  14  15
ENDBRANCH  13  14
ENDBRANCH   1  13
TORSDOF 9
ENDMDL
MODEL 6
REMARK VINA RESULT:      -5.6      2.842      9.222
REMARK  9 active torsions:
REMARK  status: ('A' for Active; 'I' for Inactive)
REMARK    1  A    between atoms: C_3  and  N_8 
REMARK       I    between atoms: N_8  and  C_9 
REMARK    2  A    between atoms: C_9  and  C_11 
REMARK    3  A    between atoms: C_11  and  C_12 
REMARK    4  A    between atoms: C_12  and  C_13 
REMARK    5  A    between atoms: C_13  and  C_14 
REMARK    6  A    between atoms: C_14  and  C_15 
REMARK    7  A    between atoms: C_15  and  C_16 
REMARK    8  A    between atoms: C_16  and  C_17 
REMARK       I    between atoms: C_17  and  N_19 
REMARK    9  A    between atoms: N_19  and  O_20 
ROOT
HETATM    1  C   UNK N   1      20.504  14.926   6.650  0.00  0.00     0.103 C 
ENDROOT
BRANCH   1   2
HETATM    2  C   UNK N   1      20.856  15.744   5.449  0.00  0.00     0.222 C 
HETATM    3  N   UNK N   1      20.295  16.974   5.298  0.00  0.00    -0.326 N 
HETATM    4  H   UNK N   1      19.708  17.289   6.023  0.00  0.00     0.169 HD
HETATM    5  O   UNK N   1      21.599  15.278   4.597  0.00  0.00    -0.273 OA
BRANCH   3   6
HETATM    6  C   UNK N   1      20.478  17.847   4.186  0.00  0.00     0.050 A 
HETATM    7  C   UNK N   1      21.508  18.789   4.226  0.00  0.00     0.032 A 
HETATM    8  C   UNK N   1      21.693  19.672   3.161  0.00  0.00     0.019 A 
HETATM    9  C   UNK N   1      20.841  19.601   2.059  0.00  0.00     0.088 A 
HETATM   10  N   UNK N   1      19.842  18.678   2.027  0.00  0.00    -0.373 N 
HETATM   11  C   UNK N   1      19.644  17.812   3.057  0.00  0.00     0.117 A 
ATOM     12  HN  UNK N   1      19.228  18.635   1.213  1.00  0.00     0.164 HD
ENDBRANCH   3   6
ENDBRANCH   1   2
BRANCH   1  13
HETATM   13  C   UNK N   1      20.225  15.795   7.865  0.00  0.00     0.009 C 
BRANCH  13  14
HETATM   14  C   UNK N   1      21.039  15.295   9.046  0.00  0.00     0.000 C 
BRANCH  14  15
HETATM   15  C   UNK N   1      20.550  13.930   9.498  0.00  0.00     0.000 C 
BRANCH  15  16
HETATM   16  C   UNK N   1      21.729  12.997   9.739  0.00  0.00     0.009 C 
BRANCH  16  17
HETATM   17  C   UNK N   1      21.572  12.267  11.066  0.00  0.00     0.105 C 
BRANCH  17  18
HETATM   18  C   UNK N   1      22.878  12.110  11.787  0.00  0.00     0.240 C 
HETATM   19  O   UNK N   1      22.897  11.737  12.947  0.00  0.00    -0.271 OA
HETATM   20  N   UNK N   1      24.029  12.421  11.152  0.00  0.00    -0.237 N 
HETATM   21  H   UNK N   1      24.004  12.723  10.215  0.00  0.00     0.197 HD
BRANCH  20  22
HETATM   22  O   UNK N   1      25.207  12.323  11.787  0.00  0.00    -0.287 OA
HETATM   23  H   UNK N   1      25.929  11.795  11.415  0.00  0.00     0.244 HD
ENDBRANCH  20  22
ENDBRANCH  17  18
ENDBRANCH  16  17
ENDBRANCH  15  16
ENDBRANCH  14  15
ENDBRANCH  13  14
ENDBRANCH   1  13
TORSDOF 9
ENDMDL
MODEL 7
REMARK VINA RESULT:      -5.6     10.732     11.969
REMARK  9 active torsions:
REMARK  status: ('A' for Active; 'I' for Inactive)
REMARK    1  A    between atoms: C_3  and  N_8 
REMARK       I    between atoms: N_8  and  C_9 
REMARK    2  A    between atoms: C_9  and  C_11 
REMARK    3  A    between atoms: C_11  and  C_12 
REMARK    4  A    between atoms: C_12  and  C_13 
REMARK    5  A    between atoms: C_13  and  C_14 
REMARK    6  A    between atoms: C_14  and  C_15 
REMARK    7  A    between atoms: C_15  and  C_16 
REMARK    8  A    between atoms: C_16  and  C_17 
REMARK       I    between atoms: C_17  and  N_19 
REMARK    9  A    between atoms: N_19  and  O_20 
ROOT
HETATM    1  C   UNK N   1      33.278  16.383   5.094  0.00  0.00     0.103 C 
ENDROOT
BRANCH   1   2
HETATM    2  C   UNK N   1      34.038  16.684   6.346  0.00  0.00     0.222 C 
HETATM    3  N   UNK N   1      34.108  15.738   7.321  0.00  0.00    -0.326 N 
HETATM    4  H   UNK N   1      33.685  14.870   7.132  0.00  0.00     0.169 HD
HETATM    5  O   UNK N   1      34.540  17.789   6.499  0.00  0.00    -0.273 OA
BRANCH   3   6
HETATM    6  C   UNK N   1      34.737  15.890   8.592  0.00  0.00     0.050 A 
HETATM    7  C   UNK N   1      35.688  14.950   8.993  0.00  0.00     0.032 A 
HETATM    8  C   UNK N   1      36.301  15.062  10.242  0.00  0.00     0.019 A 
HETATM    9  C   UNK N   1      35.954  16.121  11.081  0.00  0.00     0.088 A 
HETATM   10  N   UNK N   1      35.028  17.034  10.681  0.00  0.00    -0.373 N 
HETATM   11  C   UNK N   1      34.417  16.939   9.469  0.00  0.00     0.117 A 
ATOM     12  HN  UNK N   1      34.785  17.806  11.302  1.00  0.00     0.164 HD
ENDBRANCH   3   6
ENDBRANCH   1   2
BRANCH   1  13
HETATM   13  C   UNK N   1      32.462  17.576   4.626  0.00  0.00     0.009 C 
BRANCH  13  14
HETATM   14  C   UNK N   1      31.485  17.132   3.550  0.00  0.00     0.000 C 
BRANCH  14  15
HETATM   15  C   UNK N   1      30.172  16.685   4.167  0.00  0.00     0.000 C 
BRANCH  15  16
HETATM   16  C   UNK N   1      29.841  17.536   5.385  0.00  0.00     0.009 C 
BRANCH  16  17
HETATM   17  C   UNK N   1      28.543  17.068   6.029  0.00  0.00     0.105 C 
BRANCH  17  18
HETATM   18  C   UNK N   1      28.117  17.954   7.162  0.00  0.00     0.240 C 
HETATM   19  O   UNK N   1      28.118  19.166   7.026  0.00  0.00    -0.271 OA
HETATM   20  N   UNK N   1      27.770  17.401   8.344  0.00  0.00    -0.237 N 
HETATM   21  H   UNK N   1      27.773  16.422   8.445  0.00  0.00     0.197 HD
BRANCH  20  22
HETATM   22  O   UNK N   1      27.420  18.175   9.383  0.00  0.00    -0.287 OA
HETATM   23  H   UNK N   1      27.935  18.167  10.204  0.00  0.00     0.244 HD
ENDBRANCH  20  22
ENDBRANCH  17  18
ENDBRANCH  16  17
ENDBRANCH  15  16
ENDBRANCH  14  15
ENDBRANCH  13  14
ENDBRANCH   1  13
TORSDOF 9
ENDMDL
MODEL 8
REMARK VINA RESULT:      -5.6      9.808     11.930
REMARK  9 active torsions:
REMARK  status: ('A' for Active; 'I' for Inactive)
REMARK    1  A    between atoms: C_3  and  N_8 
REMARK       I    between atoms: N_8  and  C_9 
REMARK    2  A    between atoms: C_9  and  C_11 
REMARK    3  A    between atoms: C_11  and  C_12 
REMARK    4  A    between atoms: C_12  and  C_13 
REMARK    5  A    between atoms: C_13  and  C_14 
REMARK    6  A    between atoms: C_14  and  C_15 
REMARK    7  A    between atoms: C_15  and  C_16 
REMARK    8  A    between atoms: C_16  and  C_17 
REMARK       I    between atoms: C_17  and  N_19 
REMARK    9  A    between atoms: N_19  and  O_20 
ROOT
HETATM    1  C   UNK N   1      29.820  15.422   5.624  0.00  0.00     0.103 C 
ENDROOT
BRANCH   1   2
HETATM    2  C   UNK N   1      28.740  16.455   5.675  0.00  0.00     0.222 C 
HETATM    3  N   UNK N   1      29.083  17.772   5.678  0.00  0.00    -0.326 N 
HETATM    4  H   UNK N   1      30.041  17.984   5.601  0.00  0.00     0.169 HD
HETATM    5  O   UNK N   1      27.572  16.105   5.765  0.00  0.00    -0.273 OA
BRANCH   3   6
HETATM    6  C   UNK N   1      28.183  18.872   5.785  0.00  0.00     0.050 A 
HETATM    7  C   UNK N   1      27.753  19.511   4.620  0.00  0.00     0.032 A 
HETATM    8  C   UNK N   1      26.891  20.605   4.699  0.00  0.00     0.019 A 
HETATM    9  C   UNK N   1      26.463  21.050   5.950  0.00  0.00     0.088 A 
HETATM   10  N   UNK N   1      26.885  20.420   7.079  0.00  0.00    -0.373 N 
HETATM   11  C   UNK N   1      27.728  19.354   7.023  0.00  0.00     0.117 A 
ATOM     12  HN  UNK N   1      26.562  20.754   7.988  1.00  0.00     0.164 HD
ENDBRANCH   3   6
ENDBRANCH   1   2
BRANCH   1  13
HETATM   13  C   UNK N   1      30.973  15.761   6.554  0.00  0.00     0.009 C 
BRANCH  13  14
HETATM   14  C   UNK N   1      32.231  16.001   5.737  0.00  0.00     0.000 C 
BRANCH  14  15
HETATM   15  C   UNK N   1      32.832  17.357   6.060  0.00  0.00     0.000 C 
BRANCH  15  16
HETATM   16  C   UNK N   1      34.179  17.190   6.750  0.00  0.00     0.009 C 
BRANCH  16  17
HETATM   17  C   UNK N   1      34.262  18.078   7.985  0.00  0.00     0.105 C 
BRANCH  17  18
HETATM   18  C   UNK N   1      34.438  17.284   9.245  0.00  0.00     0.240 C 
HETATM   19  O   UNK N   1      35.377  17.514   9.989  0.00  0.00    -0.271 OA
HETATM   20  N   UNK N   1      33.570  16.289   9.531  0.00  0.00    -0.237 N 
HETATM   21  H   UNK N   1      32.816  16.111   8.925  0.00  0.00     0.197 HD
BRANCH  20  22
HETATM   22  O   UNK N   1      33.727  15.542  10.634  0.00  0.00    -0.287 OA
HETATM   23  H   UNK N   1      33.086  14.852  10.862  0.00  0.00     0.244 HD
ENDBRANCH  20  22
ENDBRANCH  17  18
ENDBRANCH  16  17
ENDBRANCH  15  16
ENDBRANCH  14  15
ENDBRANCH  13  14
ENDBRANCH   1  13
TORSDOF 9
ENDMDL
MODEL 9
REMARK VINA RESULT:      -5.6     16.021     17.843
REMARK  9 active torsions:
REMARK  status: ('A' for Active; 'I' for Inactive)
REMARK    1  A    between atoms: C_3  and  N_8 
REMARK       I    between atoms: N_8  and  C_9 
REMARK    2  A    between atoms: C_9  and  C_11 
REMARK    3  A    between atoms: C_11  and  C_12 
REMARK    4  A    between atoms: C_12  and  C_13 
REMARK    5  A    between atoms: C_13  and  C_14 
REMARK    6  A    between atoms: C_14  and  C_15 
REMARK    7  A    between atoms: C_15  and  C_16 
REMARK    8  A    between atoms: C_16  and  C_17 
REMARK       I    between atoms: C_17  and  N_19 
REMARK    9  A    between atoms: N_19  and  O_20 
ROOT
HETATM    1  C   UNK N   1      33.994  10.351  13.731  0.00  0.00     0.103 C 
ENDROOT
BRANCH   1   2
HETATM    2  C   UNK N   1      34.696  11.429  12.967  0.00  0.00     0.222 C 
HETATM    3  N   UNK N   1      35.704  11.090  12.119  0.00  0.00    -0.326 N 
HETATM    4  H   UNK N   1      35.896  10.131  12.014  0.00  0.00     0.169 HD
HETATM    5  O   UNK N   1      34.391  12.598  13.153  0.00  0.00    -0.273 OA
BRANCH   3   6
HETATM    6  C   UNK N   1      36.508  11.998  11.370  0.00  0.00     0.050 A 
HETATM    7  C   UNK N   1      35.999  12.537  10.187  0.00  0.00     0.032 A 
HETATM    8  C   UNK N   1      36.775  13.408   9.422  0.00  0.00     0.019 A 
HETATM    9  C   UNK N   1      38.061  13.735   9.853  0.00  0.00     0.088 A 
HETATM   10  N   UNK N   1      38.549  13.208  11.008  0.00  0.00    -0.373 N 
HETATM   11  C   UNK N   1      37.808  12.353  11.765  0.00  0.00     0.117 A 
ATOM     12  HN  UNK N   1      39.489  13.458  11.313  1.00  0.00     0.164 HD
ENDBRANCH   3   6
ENDBRANCH   1   2
BRANCH   1  13
HETATM   13  C   UNK N   1      33.903  10.673  15.212  0.00  0.00     0.009 C 
BRANCH  13  14
HETATM   14  C   UNK N   1      35.160  10.189  15.916  0.00  0.00     0.000 C 
BRANCH  14  15
HETATM   15  C   UNK N   1      35.990  11.363  16.404  0.00  0.00     0.000 C 
BRANCH  15  16
HETATM   16  C   UNK N   1      35.122  12.607  16.539  0.00  0.00     0.009 C 
BRANCH  16  17
HETATM   17  C   UNK N   1      35.971  13.814  16.917  0.00  0.00     0.105 C 
BRANCH  17  18
HETATM   18  C   UNK N   1      36.687  14.398  15.736  0.00  0.00     0.240 C 
HETATM   19  O   UNK N   1      37.722  15.024  15.894  0.00  0.00    -0.271 OA
HETATM   20  N   UNK N   1      36.158  14.256  14.501  0.00  0.00    -0.237 N 
HETATM   21  H   UNK N   1      35.323  13.750  14.383  0.00  0.00     0.197 HD
BRANCH  20  22
HETATM   22  O   UNK N   1      36.762  14.801  13.433  0.00  0.00    -0.287 OA
HETATM   23  H   UNK N   1      36.287  14.907  12.595  0.00  0.00     0.244 HD
ENDBRANCH  20  22
ENDBRANCH  17  18
ENDBRANCH  16  17
ENDBRANCH  15  16
ENDBRANCH  14  15
ENDBRANCH  13  14
ENDBRANCH   1  13
TORSDOF 9
ENDMDL
