MODEL 1
REMARK VINA RESULT:      -7.3      0.000      0.000
REMARK  10 active torsions:
REMARK  status: ('A' for Active; 'I' for Inactive)
REMARK    1  A    between atoms: C_2  and  C_5 
REMARK    2  A    between atoms: C_5  and  O_7 
REMARK    3  A    between atoms: O_7  and  C_8 
REMARK    4  A    between atoms: C_11  and  S_14 
REMARK    5  A    between atoms: S_14  and  N_17 
REMARK    6  A    between atoms: N_17  and  C_18 
REMARK    7  A    between atoms: C_23  and  C_24 
REMARK       I    between atoms: C_24  and  N_26 
REMARK    8  A    between atoms: N_26  and  C_27 
REMARK    9  A    between atoms: C_27  and  C_28 
REMARK   10  A    between atoms: C_28  and  O_30 
ROOT
HETATM    1  N   UNK N   1      35.090  15.387   6.671  0.00  0.00    -0.280 N 
HETATM    2  H   UNK N   1      35.924  15.836   6.940  0.00  0.00     0.179 HD
ENDROOT
BRANCH   1   3
HETATM    3  S   UNK N   1      34.592  13.928   7.445  0.00  0.00     0.263 S 
HETATM    4  O   UNK N   1      35.258  12.792   6.654  0.00  0.00    -0.200 OA
HETATM    5  O   UNK N   1      33.106  13.770   7.078  0.00  0.00    -0.200 OA
BRANCH   3   6
HETATM    6  C   UNK N   1      34.881  13.898   9.173  0.00  0.00     0.080 A 
HETATM    7  C   UNK N   1      34.615  15.039   9.929  0.00  0.00     0.028 A 
HETATM    8  C   UNK N   1      34.655  14.964  11.313  0.00  0.00     0.039 A 
HETATM    9  C   UNK N   1      34.966  13.748  11.928  0.00  0.00     0.079 A 
HETATM   10  C   UNK N   1      35.323  12.633  11.164  0.00  0.00     0.039 A 
HETATM   11  C   UNK N   1      35.283  12.711   9.779  0.00  0.00     0.028 A 
BRANCH   9  12
HETATM   12  O   UNK N   1      34.627  13.572  13.213  0.00  0.00    -0.278 OA
BRANCH  12  13
HETATM   13  C   UNK N   1      35.644  13.469  14.119  0.00  0.00     0.271 C 
HETATM   14  O   UNK N   1      36.614  14.222  14.045  0.00  0.00    -0.264 OA
BRANCH  13  15
HETATM   15  C   UNK N   1      35.601  12.429  15.194  0.00  0.00     0.037 C 
HETATM   16  C   UNK N   1      34.347  11.597  15.036  0.00  0.00     0.025 C 
HETATM   17  C   UNK N   1      35.594  13.064  16.578  0.00  0.00     0.025 C 
HETATM   18  C   UNK N   1      36.823  11.542  15.076  0.00  0.00     0.025 C 
ENDBRANCH  13  15
ENDBRANCH  12  13
ENDBRANCH   9  12
ENDBRANCH   3   6
ENDBRANCH   1   3
BRANCH   1  19
HETATM   19  C   UNK N   1      34.288  15.925   5.650  0.00  0.00     0.058 A 
HETATM   20  C   UNK N   1      34.193  15.294   4.404  0.00  0.00     0.031 A 
HETATM   21  C   UNK N   1      33.371  15.838   3.413  0.00  0.00     0.002 A 
HETATM   22  C   UNK N   1      32.644  17.004   3.673  0.00  0.00     0.001 A 
HETATM   23  C   UNK N   1      32.748  17.634   4.920  0.00  0.00     0.019 A 
HETATM   24  C   UNK N   1      33.580  17.095   5.910  0.00  0.00     0.059 A 
BRANCH  24  25
HETATM   25  C   UNK N   1      33.772  17.776   7.209  0.00  0.00     0.254 C 
HETATM   26  O   UNK N   1      34.817  18.389   7.404  0.00  0.00    -0.268 OA
HETATM   27  N   UNK N   1      32.901  17.637   8.233  0.00  0.00    -0.347 N 
HETATM   28  H   UNK N   1      33.058  18.151   9.058  0.00  0.00     0.163 HD
BRANCH  27  29
HETATM   29  C   UNK N   1      31.752  16.768   8.170  0.00  0.00     0.232 C 
BRANCH  29  30
HETATM   30  C   UNK N   1      30.515  17.543   8.439  0.00  0.00     0.158 C 
HETATM   31  O   UNK N   1      29.735  17.778   7.532  0.00  0.00    -0.649 OA
BRANCH  30  32
HETATM   32  O   UNK N   1      30.258  17.988   9.682  0.00  0.00    -0.775 OA
HETATM   33  H   UNK N   1      29.785  17.591  10.386  0.00  0.00     0.167 HD
ENDBRANCH  30  32
ENDBRANCH  29  30
ENDBRANCH  27  29
ENDBRANCH  24  25
ENDBRANCH   1  19
TORSDOF 10
ENDMDL
MODEL 2
REMARK VINA RESULT:      -7.2     11.318     13.495
REMARK  10 active torsions:
REMARK  status: ('A' for Active; 'I' for Inactive)
REMARK    1  A    between atoms: C_2  and  C_5 
REMARK    2  A    between atoms: C_5  and  O_7 
REMARK    3  A    between atoms: O_7  and  C_8 
REMARK    4  A    between atoms: C_11  and  S_14 
REMARK    5  A    between atoms: S_14  and  N_17 
REMARK    6  A    between atoms: N_17  and  C_18 
REMARK    7  A    between atoms: C_23  and  C_24 
REMARK       I    between atoms: C_24  and  N_26 
REMARK    8  A    between atoms: N_26  and  C_27 
REMARK    9  A    between atoms: C_27  and  C_28 
REMARK   10  A    between atoms: C_28  and  O_30 
ROOT
HETATM    1  N   UNK N   1      20.637  18.149   4.810  0.00  0.00    -0.280 N 
HETATM    2  H   UNK N   1      19.956  18.796   5.105  0.00  0.00     0.179 HD
ENDROOT
BRANCH   1   3
HETATM    3  S   UNK N   1      20.277  16.462   4.753  0.00  0.00     0.263 S 
HETATM    4  O   UNK N   1      21.011  15.924   3.516  0.00  0.00    -0.200 OA
HETATM    5  O   UNK N   1      18.800  16.385   4.329  0.00  0.00    -0.200 OA
BRANCH   3   6
HETATM    6  C   UNK N   1      20.611  15.606   6.245  0.00  0.00     0.080 A 
HETATM    7  C   UNK N   1      21.557  14.583   6.247  0.00  0.00     0.028 A 
HETATM    8  C   UNK N   1      21.967  14.035   7.454  0.00  0.00     0.039 A 
HETATM    9  C   UNK N   1      21.422  14.515   8.647  0.00  0.00     0.079 A 
HETATM   10  C   UNK N   1      20.406  15.475   8.632  0.00  0.00     0.039 A 
HETATM   11  C   UNK N   1      19.996  16.021   7.424  0.00  0.00     0.028 A 
BRANCH   9  12
HETATM   12  O   UNK N   1      22.078  14.282   9.793  0.00  0.00    -0.278 OA
BRANCH  12  13
HETATM   13  C   UNK N   1      22.050  13.007  10.282  0.00  0.00     0.271 C 
HETATM   14  O   UNK N   1      20.984  12.507  10.638  0.00  0.00    -0.264 OA
BRANCH  13  15
HETATM   15  C   UNK N   1      23.313  12.215  10.410  0.00  0.00     0.037 C 
HETATM   16  C   UNK N   1      23.486  11.777  11.848  0.00  0.00     0.025 C 
HETATM   17  C   UNK N   1      24.526  13.040  10.001  0.00  0.00     0.025 C 
HETATM   18  C   UNK N   1      23.231  11.000   9.510  0.00  0.00     0.025 C 
ENDBRANCH  13  15
ENDBRANCH  12  13
ENDBRANCH   9  12
ENDBRANCH   3   6
ENDBRANCH   1   3
BRANCH   1  19
HETATM   19  C   UNK N   1      21.917  18.585   4.429  0.00  0.00     0.058 A 
HETATM   20  C   UNK N   1      23.066  17.980   4.950  0.00  0.00     0.031 A 
HETATM   21  C   UNK N   1      24.327  18.419   4.538  0.00  0.00     0.002 A 
HETATM   22  C   UNK N   1      24.435  19.453   3.604  0.00  0.00     0.001 A 
HETATM   23  C   UNK N   1      23.281  20.058   3.090  0.00  0.00     0.019 A 
HETATM   24  C   UNK N   1      22.016  19.626   3.510  0.00  0.00     0.059 A 
BRANCH  24  25
HETATM   25  C   UNK N   1      20.780  20.294   3.047  0.00  0.00     0.254 C 
HETATM   26  O   UNK N   1      20.148  20.982   3.842  0.00  0.00    -0.268 OA
HETATM   27  N   UNK N   1      20.253  20.068   1.823  0.00  0.00    -0.347 N 
HETATM   28  H   UNK N   1      19.454  20.576   1.554  0.00  0.00     0.163 HD
BRANCH  27  29
HETATM   29  C   UNK N   1      20.809  19.114   0.896  0.00  0.00     0.232 C 
BRANCH  29  30
HETATM   30  C   UNK N   1      20.019  17.858   0.925  0.00  0.00     0.158 C 
HETATM   31  O   UNK N   1      20.260  16.970   0.125  0.00  0.00    -0.649 OA
BRANCH  30  32
HETATM   32  O   UNK N   1      19.037  17.703   1.830  0.00  0.00    -0.775 OA
HETATM   33  H   UNK N   1      18.113  17.834   1.756  0.00  0.00     0.167 HD
ENDBRANCH  30  32
ENDBRANCH  29  30
ENDBRANCH  27  29
ENDBRANCH  24  25
ENDBRANCH   1  19
TORSDOF 10
ENDMDL
MODEL 3
REMARK VINA RESULT:      -7.0      2.898      8.203
REMARK  10 active torsions:
REMARK  status: ('A' for Active; 'I' for Inactive)
REMARK    1  A    between atoms: C_2  and  C_5 
REMARK    2  A    between atoms: C_5  and  O_7 
REMARK    3  A    between atoms: O_7  and  C_8 
REMARK    4  A    between atoms: C_11  and  S_14 
REMARK    5  A    between atoms: S_14  and  N_17 
REMARK    6  A    between atoms: N_17  and  C_18 
REMARK    7  A    between atoms: C_23  and  C_24 
REMARK       I    between atoms: C_24  and  N_26 
REMARK    8  A    between atoms: N_26  and  C_27 
REMARK    9  A    between atoms: C_27  and  C_28 
REMARK   10  A    between atoms: C_28  and  O_30 
ROOT
HETATM    1  N   UNK N   1      34.656  16.450   8.180  0.00  0.00    -0.280 N 
HETATM    2  H   UNK N   1      35.250  16.599   8.951  0.00  0.00     0.179 HD
ENDROOT
BRANCH   1   3
HETATM    3  S   UNK N   1      33.740  17.752   7.514  0.00  0.00     0.263 S 
HETATM    4  O   UNK N   1      34.284  17.955   6.092  0.00  0.00    -0.200 OA
HETATM    5  O   UNK N   1      34.239  19.007   8.251  0.00  0.00    -0.200 OA
BRANCH   3   6
HETATM    6  C   UNK N   1      32.004  17.535   7.621  0.00  0.00     0.080 A 
HETATM    7  C   UNK N   1      31.304  18.145   8.660  0.00  0.00     0.028 A 
HETATM    8  C   UNK N   1      29.916  18.141   8.642  0.00  0.00     0.039 A 
HETATM    9  C   UNK N   1      29.244  17.522   7.585  0.00  0.00     0.079 A 
HETATM   10  C   UNK N   1      29.952  16.832   6.596  0.00  0.00     0.039 A 
HETATM   11  C   UNK N   1      31.339  16.836   6.617  0.00  0.00     0.028 A 
BRANCH   9  12
HETATM   12  O   UNK N   1      27.964  17.849   7.359  0.00  0.00    -0.278 OA
BRANCH  12  13
HETATM   13  C   UNK N   1      27.723  19.035   6.726  0.00  0.00     0.271 C 
HETATM   14  O   UNK N   1      27.944  20.098   7.305  0.00  0.00    -0.264 OA
BRANCH  13  15
HETATM   15  C   UNK N   1      27.170  19.056   5.336  0.00  0.00     0.037 C 
HETATM   16  C   UNK N   1      28.262  19.455   4.368  0.00  0.00     0.025 C 
HETATM   17  C   UNK N   1      26.022  20.049   5.213  0.00  0.00     0.025 C 
HETATM   18  C   UNK N   1      26.654  17.676   4.986  0.00  0.00     0.025 C 
ENDBRANCH  13  15
ENDBRANCH  12  13
ENDBRANCH   9  12
ENDBRANCH   3   6
ENDBRANCH   1   3
BRANCH   1  19
HETATM   19  C   UNK N   1      34.542  15.173   7.605  0.00  0.00     0.058 A 
HETATM   20  C   UNK N   1      35.086  14.903   6.344  0.00  0.00     0.031 A 
HETATM   21  C   UNK N   1      34.978  13.618   5.804  0.00  0.00     0.002 A 
HETATM   22  C   UNK N   1      34.334  12.609   6.528  0.00  0.00     0.001 A 
HETATM   23  C   UNK N   1      33.788  12.888   7.787  0.00  0.00     0.019 A 
HETATM   24  C   UNK N   1      33.887  14.178   8.324  0.00  0.00     0.059 A 
BRANCH  24  25
HETATM   25  C   UNK N   1      33.254  14.525   9.616  0.00  0.00     0.254 C 
HETATM   26  O   UNK N   1      32.137  15.031   9.608  0.00  0.00    -0.268 OA
HETATM   27  N   UNK N   1      33.914  14.428  10.791  0.00  0.00    -0.347 N 
HETATM   28  H   UNK N   1      33.426  14.630  11.623  0.00  0.00     0.163 HD
BRANCH  27  29
HETATM   29  C   UNK N   1      35.300  14.043  10.882  0.00  0.00     0.232 C 
BRANCH  29  30
HETATM   30  C   UNK N   1      36.110  15.180  11.385  0.00  0.00     0.158 C 
HETATM   31  O   UNK N   1      36.463  16.062  10.621  0.00  0.00    -0.649 OA
BRANCH  30  32
HETATM   32  O   UNK N   1      36.458  15.234  12.684  0.00  0.00    -0.775 OA
HETATM   33  H   UNK N   1      37.125  15.729  13.116  0.00  0.00     0.167 HD
ENDBRANCH  30  32
ENDBRANCH  29  30
ENDBRANCH  27  29
ENDBRANCH  24  25
ENDBRANCH   1  19
TORSDOF 10
ENDMDL
MODEL 4
REMARK VINA RESULT:      -7.0      2.149      2.799
REMARK  10 active torsions:
REMARK  status: ('A' for Active; 'I' for Inactive)
REMARK    1  A    between atoms: C_2  and  C_5 
REMARK    2  A    between atoms: C_5  and  O_7 
REMARK    3  A    between atoms: O_7  and  C_8 
REMARK    4  A    between atoms: C_11  and  S_14 
REMARK    5  A    between atoms: S_14  and  N_17 
REMARK    6  A    between atoms: N_17  and  C_18 
REMARK    7  A    between atoms: C_23  and  C_24 
REMARK       I    between atoms: C_24  and  N_26 
REMARK    8  A    between atoms: N_26  and  C_27 
REMARK    9  A    between atoms: C_27  and  C_28 
REMARK   10  A    between atoms: C_28  and  O_30 
ROOT
HETATM    1  N   UNK N   1      34.381  17.500   6.628  0.00  0.00    -0.280 N 
HETATM    2  H   UNK N   1      34.655  18.156   5.946  0.00  0.00     0.179 HD
ENDROOT
BRANCH   1   3
HETATM    3  S   UNK N   1      34.253  17.961   8.285  0.00  0.00     0.263 S 
HETATM    4  O   UNK N   1      32.895  18.665   8.415  0.00  0.00    -0.200 OA
HETATM    5  O   UNK N   1      35.252  19.118   8.455  0.00  0.00    -0.200 OA
BRANCH   3   6
HETATM    6  C   UNK N   1      34.520  16.649   9.417  0.00  0.00     0.080 A 
HETATM    7  C   UNK N   1      35.574  16.737  10.325  0.00  0.00     0.028 A 
HETATM    8  C   UNK N   1      35.674  15.802  11.346  0.00  0.00     0.039 A 
HETATM    9  C   UNK N   1      34.720  14.786  11.443  0.00  0.00     0.079 A 
HETATM   10  C   UNK N   1      33.720  14.650  10.475  0.00  0.00     0.039 A 
HETATM   11  C   UNK N   1      33.623  15.585   9.454  0.00  0.00     0.028 A 
BRANCH   9  12
HETATM   12  O   UNK N   1      34.582  14.143  12.612  0.00  0.00    -0.278 OA
BRANCH  12  13
HETATM   13  C   UNK N   1      35.567  13.263  12.961  0.00  0.00     0.271 C 
HETATM   14  O   UNK N   1      36.017  12.480  12.126  0.00  0.00    -0.264 OA
BRANCH  13  15
HETATM   15  C   UNK N   1      36.091  13.226  14.362  0.00  0.00     0.037 C 
HETATM   16  C   UNK N   1      34.951  12.939  15.316  0.00  0.00     0.025 C 
HETATM   17  C   UNK N   1      36.728  14.553  14.749  0.00  0.00     0.025 C 
HETATM   18  C   UNK N   1      37.138  12.137  14.472  0.00  0.00     0.025 C 
ENDBRANCH  13  15
ENDBRANCH  12  13
ENDBRANCH   9  12
ENDBRANCH   3   6
ENDBRANCH   1   3
BRANCH   1  19
HETATM   19  C   UNK N   1      34.089  16.175   6.264  0.00  0.00     0.058 A 
HETATM   20  C   UNK N   1      35.052  15.168   6.388  0.00  0.00     0.031 A 
HETATM   21  C   UNK N   1      34.729  13.853   6.039  0.00  0.00     0.002 A 
HETATM   22  C   UNK N   1      33.445  13.551   5.576  0.00  0.00     0.001 A 
HETATM   23  C   UNK N   1      32.487  14.565   5.450  0.00  0.00     0.019 A 
HETATM   24  C   UNK N   1      32.813  15.884   5.789  0.00  0.00     0.059 A 
BRANCH  24  25
HETATM   25  C   UNK N   1      31.851  16.991   5.594  0.00  0.00     0.254 C 
HETATM   26  O   UNK N   1      32.064  17.808   4.704  0.00  0.00    -0.268 OA
HETATM   27  N   UNK N   1      30.821  17.208   6.442  0.00  0.00    -0.347 N 
HETATM   28  H   UNK N   1      30.186  17.933   6.235  0.00  0.00     0.163 HD
BRANCH  27  29
HETATM   29  C   UNK N   1      30.611  16.427   7.635  0.00  0.00     0.232 C 
BRANCH  29  30
HETATM   30  C   UNK N   1      29.784  17.191   8.602  0.00  0.00     0.158 C 
HETATM   31  O   UNK N   1      28.568  17.129   8.546  0.00  0.00    -0.649 OA
BRANCH  30  32
HETATM   32  O   UNK N   1      30.378  17.955   9.537  0.00  0.00    -0.775 OA
HETATM   33  H   UNK N   1      30.120  18.156  10.415  0.00  0.00     0.167 HD
ENDBRANCH  30  32
ENDBRANCH  29  30
ENDBRANCH  27  29
ENDBRANCH  24  25
ENDBRANCH   1  19
TORSDOF 10
ENDMDL
MODEL 5
REMARK VINA RESULT:      -6.9      2.236      2.813
REMARK  10 active torsions:
REMARK  status: ('A' for Active; 'I' for Inactive)
REMARK    1  A    between atoms: C_2  and  C_5 
REMARK    2  A    between atoms: C_5  and  O_7 
REMARK    3  A    between atoms: O_7  and  C_8 
REMARK    4  A    between atoms: C_11  and  S_14 
REMARK    5  A    between atoms: S_14  and  N_17 
REMARK    6  A    between atoms: N_17  and  C_18 
REMARK    7  A    between atoms: C_23  and  C_24 
REMARK       I    between atoms: C_24  and  N_26 
REMARK    8  A    between atoms: N_26  and  C_27 
REMARK    9  A    between atoms: C_27  and  C_28 
REMARK   10  A    between atoms: C_28  and  O_30 
ROOT
HETATM    1  N   UNK N   1      32.938  15.648   9.697  0.00  0.00    -0.280 N 
HETATM    2  H   UNK N   1      32.309  15.745  10.448  0.00  0.00     0.179 HD
ENDROOT
BRANCH   1   3
HETATM    3  S   UNK N   1      34.641  15.694   9.970  0.00  0.00     0.263 S 
HETATM    4  O   UNK N   1      34.924  17.071  10.587  0.00  0.00    -0.200 OA
HETATM    5  O   UNK N   1      35.265  15.816   8.569  0.00  0.00    -0.200 OA
BRANCH   3   6
HETATM    6  C   UNK N   1      35.258  14.331  10.881  0.00  0.00     0.080 A 
HETATM    7  C   UNK N   1      36.149  14.559  11.930  0.00  0.00     0.028 A 
HETATM    8  C   UNK N   1      36.488  13.513  12.776  0.00  0.00     0.039 A 
HETATM    9  C   UNK N   1      35.937  12.247  12.561  0.00  0.00     0.079 A 
HETATM   10  C   UNK N   1      35.119  12.004  11.453  0.00  0.00     0.039 A 
HETATM   11  C   UNK N   1      34.782  13.052  10.607  0.00  0.00     0.028 A 
BRANCH   9  12
HETATM   12  O   UNK N   1      35.943  11.363  13.568  0.00  0.00    -0.278 OA
BRANCH  12  13
HETATM   13  C   UNK N   1      35.140  11.632  14.641  0.00  0.00     0.271 C 
HETATM   14  O   UNK N   1      34.124  12.310  14.495  0.00  0.00    -0.264 OA
BRANCH  13  15
HETATM   15  C   UNK N   1      35.499  11.128  16.003  0.00  0.00     0.037 C 
HETATM   16  C   UNK N   1      36.917  10.600  15.985  0.00  0.00     0.025 C 
HETATM   17  C   UNK N   1      34.566  10.005  16.440  0.00  0.00     0.025 C 
HETATM   18  C   UNK N   1      35.386  12.263  16.999  0.00  0.00     0.025 C 
ENDBRANCH  13  15
ENDBRANCH  12  13
ENDBRANCH   9  12
ENDBRANCH   3   6
ENDBRANCH   1   3
BRANCH   1  19
HETATM   19  C   UNK N   1      32.462  15.470   8.387  0.00  0.00     0.058 A 
HETATM   20  C   UNK N   1      32.546  14.223   7.757  0.00  0.00     0.031 A 
HETATM   21  C   UNK N   1      32.046  14.067   6.461  0.00  0.00     0.002 A 
HETATM   22  C   UNK N   1      31.459  15.154   5.805  0.00  0.00     0.001 A 
HETATM   23  C   UNK N   1      31.383  16.400   6.440  0.00  0.00     0.019 A 
HETATM   24  C   UNK N   1      31.893  16.560   7.735  0.00  0.00     0.059 A 
BRANCH  24  25
HETATM   25  C   UNK N   1      31.899  17.880   8.403  0.00  0.00     0.254 C 
HETATM   26  O   UNK N   1      32.929  18.546   8.384  0.00  0.00    -0.268 OA
HETATM   27  N   UNK N   1      30.858  18.317   9.144  0.00  0.00    -0.347 N 
HETATM   28  H   UNK N   1      30.901  19.223   9.528  0.00  0.00     0.163 HD
BRANCH  27  29
HETATM   29  C   UNK N   1      29.687  17.515   9.400  0.00  0.00     0.232 C 
BRANCH  29  30
HETATM   30  C   UNK N   1      28.505  18.116   8.732  0.00  0.00     0.158 C 
HETATM   31  O   UNK N   1      28.598  18.534   7.591  0.00  0.00    -0.649 OA
BRANCH  30  32
HETATM   32  O   UNK N   1      27.335  18.203   9.389  0.00  0.00    -0.775 OA
HETATM   33  H   UNK N   1      26.971  17.662  10.061  0.00  0.00     0.167 HD
ENDBRANCH  30  32
ENDBRANCH  29  30
ENDBRANCH  27  29
ENDBRANCH  24  25
ENDBRANCH   1  19
TORSDOF 10
ENDMDL
MODEL 6
REMARK VINA RESULT:      -6.7      3.024      8.959
REMARK  10 active torsions:
REMARK  status: ('A' for Active; 'I' for Inactive)
REMARK    1  A    between atoms: C_2  and  C_5 
REMARK    2  A    between atoms: C_5  and  O_7 
REMARK    3  A    between atoms: O_7  and  C_8 
REMARK    4  A    between atoms: C_11  and  S_14 
REMARK    5  A    between atoms: S_14  and  N_17 
REMARK    6  A    between atoms: N_17  and  C_18 
REMARK    7  A    between atoms: C_23  and  C_24 
REMARK       I    between atoms: C_24  and  N_26 
REMARK    8  A    between atoms: N_26  and  C_27 
REMARK    9  A    between atoms: C_27  and  C_28 
REMARK   10  A    between atoms: C_28  and  O_30 
ROOT
HETATM    1  N   UNK N   1      34.331  11.820  12.018  0.00  0.00    -0.280 N 
HETATM    2  H   UNK N   1      33.359  11.816  11.863  0.00  0.00     0.179 HD
ENDROOT
BRANCH   1   3
HETATM    3  S   UNK N   1      35.210  13.305  12.039  0.00  0.00     0.263 S 
HETATM    4  O   UNK N   1      36.687  12.909  12.174  0.00  0.00    -0.200 OA
HETATM    5  O   UNK N   1      34.900  13.931  13.410  0.00  0.00    -0.200 OA
BRANCH   3   6
HETATM    6  C   UNK N   1      34.847  14.372  10.697  0.00  0.00     0.080 A 
HETATM    7  C   UNK N   1      34.154  13.871   9.596  0.00  0.00     0.028 A 
HETATM    8  C   UNK N   1      33.695  14.747   8.623  0.00  0.00     0.039 A 
HETATM    9  C   UNK N   1      33.938  16.116   8.760  0.00  0.00     0.079 A 
HETATM   10  C   UNK N   1      34.713  16.600   9.818  0.00  0.00     0.039 A 
HETATM   11  C   UNK N   1      35.173  15.722  10.789  0.00  0.00     0.028 A 
BRANCH   9  12
HETATM   12  O   UNK N   1      33.182  16.976   8.062  0.00  0.00    -0.278 OA
BRANCH  12  13
HETATM   13  C   UNK N   1      33.523  17.190   6.756  0.00  0.00     0.271 C 
HETATM   14  O   UNK N   1      34.600  17.716   6.480  0.00  0.00    -0.264 OA
BRANCH  13  15
HETATM   15  C   UNK N   1      32.584  16.811   5.655  0.00  0.00     0.037 C 
HETATM   16  C   UNK N   1      32.853  15.381   5.238  0.00  0.00     0.025 C 
HETATM   17  C   UNK N   1      32.762  17.714   4.442  0.00  0.00     0.025 C 
HETATM   18  C   UNK N   1      31.159  16.942   6.149  0.00  0.00     0.025 C 
ENDBRANCH  13  15
ENDBRANCH  12  13
ENDBRANCH   9  12
ENDBRANCH   3   6
ENDBRANCH   1   3
BRANCH   1  19
HETATM   19  C   UNK N   1      35.024  10.615  12.226  0.00  0.00     0.058 A 
HETATM   20  C   UNK N   1      35.681   9.974  11.169  0.00  0.00     0.031 A 
HETATM   21  C   UNK N   1      36.382   8.788  11.407  0.00  0.00     0.002 A 
HETATM   22  C   UNK N   1      36.428   8.253  12.698  0.00  0.00     0.001 A 
HETATM   23  C   UNK N   1      35.764   8.897  13.750  0.00  0.00     0.019 A 
HETATM   24  C   UNK N   1      35.053  10.080  13.510  0.00  0.00     0.059 A 
BRANCH  24  25
HETATM   25  C   UNK N   1      34.277  10.743  14.581  0.00  0.00     0.254 C 
HETATM   26  O   UNK N   1      33.053  10.745  14.508  0.00  0.00    -0.268 OA
HETATM   27  N   UNK N   1      34.869  11.458  15.563  0.00  0.00    -0.347 N 
HETATM   28  H   UNK N   1      34.304  11.839  16.275  0.00  0.00     0.163 HD
BRANCH  27  29
HETATM   29  C   UNK N   1      36.291  11.689  15.616  0.00  0.00     0.232 C 
BRANCH  29  30
HETATM   30  C   UNK N   1      36.564  13.138  15.786  0.00  0.00     0.158 C 
HETATM   31  O   UNK N   1      35.911  13.790  16.583  0.00  0.00    -0.649 OA
BRANCH  30  32
HETATM   32  O   UNK N   1      37.529  13.730  15.059  0.00  0.00    -0.775 OA
HETATM   33  H   UNK N   1      37.512  14.513  14.547  0.00  0.00     0.167 HD
ENDBRANCH  30  32
ENDBRANCH  29  30
ENDBRANCH  27  29
ENDBRANCH  24  25
ENDBRANCH   1  19
TORSDOF 10
ENDMDL
MODEL 7
REMARK VINA RESULT:      -6.7      1.554      2.573
REMARK  10 active torsions:
REMARK  status: ('A' for Active; 'I' for Inactive)
REMARK    1  A    between atoms: C_2  and  C_5 
REMARK    2  A    between atoms: C_5  and  O_7 
REMARK    3  A    between atoms: O_7  and  C_8 
REMARK    4  A    between atoms: C_11  and  S_14 
REMARK    5  A    between atoms: S_14  and  N_17 
REMARK    6  A    between atoms: N_17  and  C_18 
REMARK    7  A    between atoms: C_23  and  C_24 
REMARK       I    between atoms: C_24  and  N_26 
REMARK    8  A    between atoms: N_26  and  C_27 
REMARK    9  A    between atoms: C_27  and  C_28 
REMARK   10  A    between atoms: C_28  and  O_30 
ROOT
HETATM    1  N   UNK N   1      33.358  14.401   6.284  0.00  0.00    -0.280 N 
HETATM    2  H   UNK N   1      32.651  13.810   6.631  0.00  0.00     0.179 HD
ENDROOT
BRANCH   1   3
HETATM    3  S   UNK N   1      34.972  14.282   6.882  0.00  0.00     0.263 S 
HETATM    4  O   UNK N   1      35.646  15.614   6.522  0.00  0.00    -0.200 OA
HETATM    5  O   UNK N   1      35.671  13.284   5.943  0.00  0.00    -0.200 OA
BRANCH   3   6
HETATM    6  C   UNK N   1      35.079  13.829   8.571  0.00  0.00     0.080 A 
HETATM    7  C   UNK N   1      34.251  12.819   9.060  0.00  0.00     0.028 A 
HETATM    8  C   UNK N   1      34.463  12.323  10.338  0.00  0.00     0.039 A 
HETATM    9  C   UNK N   1      35.500  12.846  11.116  0.00  0.00     0.079 A 
HETATM   10  C   UNK N   1      36.266  13.921  10.655  0.00  0.00     0.039 A 
HETATM   11  C   UNK N   1      36.051  14.416   9.377  0.00  0.00     0.028 A 
BRANCH   9  12
HETATM   12  O   UNK N   1      35.950  12.127  12.154  0.00  0.00    -0.278 OA
BRANCH  12  13
HETATM   13  C   UNK N   1      35.192  12.128  13.291  0.00  0.00     0.271 C 
HETATM   14  O   UNK N   1      34.702  13.179  13.703  0.00  0.00    -0.264 OA
BRANCH  13  15
HETATM   15  C   UNK N   1      34.970  10.863  14.058  0.00  0.00     0.037 C 
HETATM   16  C   UNK N   1      35.273   9.678  13.167  0.00  0.00     0.025 C 
HETATM   17  C   UNK N   1      33.530  10.755  14.541  0.00  0.00     0.025 C 
HETATM   18  C   UNK N   1      35.886  10.845  15.264  0.00  0.00     0.025 C 
ENDBRANCH  13  15
ENDBRANCH  12  13
ENDBRANCH   9  12
ENDBRANCH   3   6
ENDBRANCH   1   3
BRANCH   1  19
HETATM   19  C   UNK N   1      33.067  15.355   5.294  0.00  0.00     0.058 A 
HETATM   20  C   UNK N   1      33.535  15.196   3.985  0.00  0.00     0.031 A 
HETATM   21  C   UNK N   1      33.214  16.148   3.013  0.00  0.00     0.002 A 
HETATM   22  C   UNK N   1      32.421  17.249   3.352  0.00  0.00     0.001 A 
HETATM   23  C   UNK N   1      31.960  17.405   4.665  0.00  0.00     0.019 A 
HETATM   24  C   UNK N   1      32.291  16.456   5.642  0.00  0.00     0.059 A 
BRANCH  24  25
HETATM   25  C   UNK N   1      31.885  16.631   7.054  0.00  0.00     0.254 C 
HETATM   26  O   UNK N   1      30.833  16.127   7.432  0.00  0.00    -0.268 OA
HETATM   27  N   UNK N   1      32.563  17.432   7.905  0.00  0.00    -0.347 N 
HETATM   28  H   UNK N   1      32.273  17.473   8.845  0.00  0.00     0.163 HD
BRANCH  27  29
HETATM   29  C   UNK N   1      33.692  18.231   7.497  0.00  0.00     0.232 C 
BRANCH  29  30
HETATM   30  C   UNK N   1      34.667  18.338   8.611  0.00  0.00     0.158 C 
HETATM   31  O   UNK N   1      34.675  17.499   9.495  0.00  0.00    -0.649 OA
BRANCH  30  32
HETATM   32  O   UNK N   1      35.538  19.362   8.645  0.00  0.00    -0.775 OA
HETATM   33  H   UNK N   1      36.066  19.738   7.969  0.00  0.00     0.167 HD
ENDBRANCH  30  32
ENDBRANCH  29  30
ENDBRANCH  27  29
ENDBRANCH  24  25
ENDBRANCH   1  19
TORSDOF 10
ENDMDL
MODEL 8
REMARK VINA RESULT:      -6.6      1.904      2.514
REMARK  10 active torsions:
REMARK  status: ('A' for Active; 'I' for Inactive)
REMARK    1  A    between atoms: C_2  and  C_5 
REMARK    2  A    between atoms: C_5  and  O_7 
REMARK    3  A    between atoms: O_7  and  C_8 
REMARK    4  A    between atoms: C_11  and  S_14 
REMARK    5  A    between atoms: S_14  and  N_17 
REMARK    6  A    between atoms: N_17  and  C_18 
REMARK    7  A    between atoms: C_23  and  C_24 
REMARK       I    between atoms: C_24  and  N_26 
REMARK    8  A    between atoms: N_26  and  C_27 
REMARK    9  A    between atoms: C_27  and  C_28 
REMARK   10  A    between atoms: C_28  and  O_30 
ROOT
HETATM    1  N   UNK N   1      35.088  14.916   7.300  0.00  0.00    -0.280 N 
HETATM    2  H   UNK N   1      35.578  15.769   7.355  0.00  0.00     0.179 HD
ENDROOT
BRANCH   1   3
HETATM    3  S   UNK N   1      35.759  13.475   7.970  0.00  0.00     0.263 S 
HETATM    4  O   UNK N   1      37.146  13.327   7.327  0.00  0.00    -0.200 OA
HETATM    5  O   UNK N   1      34.963  12.328   7.325  0.00  0.00    -0.200 OA
BRANCH   3   6
HETATM    6  C   UNK N   1      35.745  13.424   9.722  0.00  0.00     0.080 A 
HETATM    7  C   UNK N   1      36.227  14.518  10.440  0.00  0.00     0.028 A 
HETATM    8  C   UNK N   1      36.041  14.567  11.814  0.00  0.00     0.039 A 
HETATM    9  C   UNK N   1      35.378  13.518  12.456  0.00  0.00     0.079 A 
HETATM   10  C   UNK N   1      34.981  12.382  11.744  0.00  0.00     0.039 A 
HETATM   11  C   UNK N   1      35.169  12.335  10.370  0.00  0.00     0.028 A 
BRANCH   9  12
HETATM   12  O   UNK N   1      34.859  13.735  13.673  0.00  0.00    -0.278 OA
BRANCH  12  13
HETATM   13  C   UNK N   1      34.924  12.709  14.573  0.00  0.00     0.271 C 
HETATM   14  O   UNK N   1      34.002  11.898  14.651  0.00  0.00    -0.264 OA
BRANCH  13  15
HETATM   15  C   UNK N   1      36.102  12.573  15.485  0.00  0.00     0.037 C 
HETATM   16  C   UNK N   1      35.621  12.224  16.877  0.00  0.00     0.025 C 
HETATM   17  C   UNK N   1      36.900  13.868  15.554  0.00  0.00     0.025 C 
HETATM   18  C   UNK N   1      37.008  11.475  14.967  0.00  0.00     0.025 C 
ENDBRANCH  13  15
ENDBRANCH  12  13
ENDBRANCH   9  12
ENDBRANCH   3   6
ENDBRANCH   1   3
BRANCH   1  19
HETATM   19  C   UNK N   1      33.831  14.856   6.675  0.00  0.00     0.058 A 
HETATM   20  C   UNK N   1      33.717  14.501   5.326  0.00  0.00     0.031 A 
HETATM   21  C   UNK N   1      32.453  14.427   4.734  0.00  0.00     0.002 A 
HETATM   22  C   UNK N   1      31.311  14.702   5.492  0.00  0.00     0.001 A 
HETATM   23  C   UNK N   1      31.433  15.062   6.840  0.00  0.00     0.019 A 
HETATM   24  C   UNK N   1      32.700  15.146   7.432  0.00  0.00     0.059 A 
BRANCH  24  25
HETATM   25  C   UNK N   1      32.869  15.599   8.830  0.00  0.00     0.254 C 
HETATM   26  O   UNK N   1      32.801  14.769   9.731  0.00  0.00    -0.268 OA
HETATM   27  N   UNK N   1      32.962  16.906   9.159  0.00  0.00    -0.347 N 
HETATM   28  H   UNK N   1      33.120  17.144  10.102  0.00  0.00     0.163 HD
BRANCH  27  29
HETATM   29  C   UNK N   1      32.841  17.967   8.191  0.00  0.00     0.232 C 
BRANCH  29  30
HETATM   30  C   UNK N   1      34.185  18.369   7.708  0.00  0.00     0.158 C 
HETATM   31  O   UNK N   1      34.895  19.077   8.402  0.00  0.00    -0.649 OA
BRANCH  30  32
HETATM   32  O   UNK N   1      34.617  17.956   6.503  0.00  0.00    -0.775 OA
HETATM   33  H   UNK N   1      34.261  17.324   5.910  0.00  0.00     0.167 HD
ENDBRANCH  30  32
ENDBRANCH  29  30
ENDBRANCH  27  29
ENDBRANCH  24  25
ENDBRANCH   1  19
TORSDOF 10
ENDMDL
MODEL 9
REMARK VINA RESULT:      -6.6      2.702      4.290
REMARK  10 active torsions:
REMARK  status: ('A' for Active; 'I' for Inactive)
REMARK    1  A    between atoms: C_2  and  C_5 
REMARK    2  A    between atoms: C_5  and  O_7 
REMARK    3  A    between atoms: O_7  and  C_8 
REMARK    4  A    between atoms: C_11  and  S_14 
REMARK    5  A    between atoms: S_14  and  N_17 
REMARK    6  A    between atoms: N_17  and  C_18 
REMARK    7  A    between atoms: C_23  and  C_24 
REMARK       I    between atoms: C_24  and  N_26 
REMARK    8  A    between atoms: N_26  and  C_27 
REMARK    9  A    between atoms: C_27  and  C_28 
REMARK   10  A    between atoms: C_28  and  O_30 
ROOT
HETATM    1  N   UNK N   1      34.202  13.667  10.800  0.00  0.00    -0.280 N 
HETATM    2  H   UNK N   1      33.463  13.465  11.419  0.00  0.00     0.179 HD
ENDROOT
BRANCH   1   3
HETATM    3  S   UNK N   1      35.670  14.359  11.385  0.00  0.00     0.263 S 
HETATM    4  O   UNK N   1      35.332  15.818  11.727  0.00  0.00    -0.200 OA
HETATM    5  O   UNK N   1      36.566  14.501  10.142  0.00  0.00    -0.200 OA
BRANCH   3   6
HETATM    6  C   UNK N   1      36.427  13.450  12.678  0.00  0.00     0.080 A 
HETATM    7  C   UNK N   1      36.294  13.896  13.992  0.00  0.00     0.028 A 
HETATM    8  C   UNK N   1      36.720  13.084  15.034  0.00  0.00     0.039 A 
HETATM    9  C   UNK N   1      37.279  11.836  14.748  0.00  0.00     0.079 A 
HETATM   10  C   UNK N   1      37.494  11.436  13.426  0.00  0.00     0.039 A 
HETATM   11  C   UNK N   1      37.069  12.250  12.386  0.00  0.00     0.028 A 
BRANCH   9  12
HETATM   12  O   UNK N   1      37.322  10.913  15.720  0.00  0.00    -0.278 OA
BRANCH  12  13
HETATM   13  C   UNK N   1      36.211  10.779  16.505  0.00  0.00     0.271 C 
HETATM   14  O   UNK N   1      36.106  11.435  17.540  0.00  0.00    -0.264 OA
BRANCH  13  15
HETATM   15  C   UNK N   1      35.127   9.820  16.127  0.00  0.00     0.037 C 
HETATM   16  C   UNK N   1      35.728   8.656  15.369  0.00  0.00     0.025 C 
HETATM   17  C   UNK N   1      34.081  10.489  15.245  0.00  0.00     0.025 C 
HETATM   18  C   UNK N   1      34.448   9.318  17.384  0.00  0.00     0.025 C 
ENDBRANCH  13  15
ENDBRANCH  12  13
ENDBRANCH   9  12
ENDBRANCH   3   6
ENDBRANCH   1   3
BRANCH   1  19
HETATM   19  C   UNK N   1      34.076  13.395   9.427  0.00  0.00     0.058 A 
HETATM   20  C   UNK N   1      34.706  12.283   8.856  0.00  0.00     0.031 A 
HETATM   21  C   UNK N   1      34.547  12.023   7.492  0.00  0.00     0.002 A 
HETATM   22  C   UNK N   1      33.756  12.869   6.708  0.00  0.00     0.001 A 
HETATM   23  C   UNK N   1      33.133  13.982   7.286  0.00  0.00     0.019 A 
HETATM   24  C   UNK N   1      33.300  14.250   8.651  0.00  0.00     0.059 A 
BRANCH  24  25
HETATM   25  C   UNK N   1      32.720  15.459   9.276  0.00  0.00     0.254 C 
HETATM   26  O   UNK N   1      31.573  15.407   9.708  0.00  0.00    -0.268 OA
HETATM   27  N   UNK N   1      33.358  16.650   9.269  0.00  0.00    -0.347 N 
HETATM   28  H   UNK N   1      32.942  17.409   9.740  0.00  0.00     0.163 HD
BRANCH  27  29
HETATM   29  C   UNK N   1      34.617  16.861   8.600  0.00  0.00     0.232 C 
BRANCH  29  30
HETATM   30  C   UNK N   1      34.581  18.132   7.836  0.00  0.00     0.158 C 
HETATM   31  O   UNK N   1      34.908  19.176   8.375  0.00  0.00    -0.649 OA
BRANCH  30  32
HETATM   32  O   UNK N   1      34.183  18.133   6.551  0.00  0.00    -0.775 OA
HETATM   33  H   UNK N   1      34.404  17.561   5.843  0.00  0.00     0.167 HD
ENDBRANCH  30  32
ENDBRANCH  29  30
ENDBRANCH  27  29
ENDBRANCH  24  25
ENDBRANCH   1  19
TORSDOF 10
ENDMDL
