MODEL 1
REMARK VINA RESULT:      -8.0      0.000      0.000
REMARK  9 active torsions:
REMARK  status: ('A' for Active; 'I' for Inactive)
REMARK    1  A    between atoms: C_12  and  O_22 
REMARK    2  A    between atoms: C_14  and  C_20 
REMARK    3  A    between atoms: C_15  and  O_18 
REMARK    4  A    between atoms: O_22  and  C_23 
REMARK    5  A    between atoms: C_23  and  C_25 
REMARK    6  A    between atoms: C_25  and  S_26 
REMARK    7  A    between atoms: S_26  and  C_27 
REMARK    8  A    between atoms: C_30  and  N_34 
REMARK    9  A    between atoms: C_32  and  O_33 
ROOT
HETATM    1  C   UNK N   1      32.305  18.178   8.468  0.00  0.00     0.011 C 
HETATM    2  C   UNK N   1      31.835  16.749   8.260  0.00  0.00    -0.007 C 
HETATM    3  C   UNK N   1      30.784  16.714   7.092  0.00  0.00     0.006 C 
HETATM    4  C   UNK N   1      30.916  15.502   6.103  0.00  0.00     0.011 C 
HETATM    5  C   UNK N   1      32.372  15.231   5.597  0.00  0.00    -0.023 C 
HETATM    6  C   UNK N   1      32.614  15.923   4.242  0.00  0.00     0.018 C 
HETATM    7  C   UNK N   1      33.069  17.352   4.544  0.00  0.00     0.079 C 
HETATM    8  C   UNK N   1      33.644  17.198   5.893  0.00  0.00     0.132 C 
HETATM    9  O   UNK N   1      34.413  18.008   6.384  0.00  0.00    -0.298 OA
HETATM   10  C   UNK N   1      33.344  15.879   6.506  0.00  0.00     0.075 C 
HETATM   11  C   UNK N   1      32.966  15.738   7.984  0.00  0.00    -0.003 C 
HETATM   12  C   UNK N   1      34.352  15.742   8.631  0.00  0.00     0.142 C 
HETATM   13  C   UNK N   1      35.368  14.734   7.957  0.00  0.00     0.049 C 
HETATM   14  C   UNK N   1      35.023  13.372   7.219  0.00  0.00     0.002 C 
HETATM   15  C   UNK N   1      34.307  13.400   5.794  0.00  0.00     0.134 C 
HETATM   16  C   UNK N   1      32.772  13.722   5.640  0.00  0.00     0.021 C 
HETATM   17  C   UNK N   1      32.160  12.945   4.485  0.00  0.00     0.013 C 
HETATM   18  C   UNK N   1      34.277  12.425   8.141  0.00  0.00     0.022 C 
HETATM   19  C   UNK N   1      32.316  14.413   8.401  0.00  0.00     0.019 C 
ENDROOT
BRANCH  12  20
HETATM   20  O   UNK N   1      34.363  15.591   9.995  0.00  0.00    -0.315 OA
BRANCH  20  21
HETATM   21  C   UNK N   1      35.343  16.176  10.717  0.00  0.00     0.268 C 
HETATM   22  O   UNK N   1      35.699  17.316  10.461  0.00  0.00    -0.264 OA
BRANCH  21  23
HETATM   23  C   UNK N   1      36.087  15.384  11.742  0.00  0.00     0.185 C 
BRANCH  23  24
HETATM   24  S   UNK N   1      35.685  13.618  11.638  0.00  0.00    -0.152 SA
BRANCH  24  25
HETATM   25  C   UNK N   1      35.298  13.501  13.415  0.00  0.00     0.076 C 
HETATM   26  C   UNK N   1      36.463  14.054  14.241  0.00  0.00     0.020 C 
HETATM   27  C   UNK N   1      36.377  13.700  15.733  0.00  0.00     0.026 C 
HETATM   28  C   UNK N   1      34.992  13.200  16.133  0.00  0.00     0.076 C 
HETATM   29  C   UNK N   1      34.599  11.959  15.324  0.00  0.00     0.057 C 
HETATM   30  C   UNK N   1      34.918  12.071  13.824  0.00  0.00     0.133 C 
BRANCH  28  31
HETATM   31  N   UNK N   1      34.968  12.890  17.551  0.00  0.00    -0.426 N 
HETATM   32  H   UNK N   1      35.781  13.077  18.137  0.00  0.00     0.150 HD
HETATM   33  H   UNK N   1      34.130  12.481  17.964  0.00  0.00     0.150 HD
ENDBRANCH  28  31
BRANCH  30  34
HETATM   34  O   UNK N   1      35.948  11.183  13.509  0.00  0.00    -0.394 OA
HETATM   35  H   UNK N   1      35.989  10.216  13.446  0.00  0.00     0.210 HD
ENDBRANCH  30  34
ENDBRANCH  24  25
ENDBRANCH  23  24
ENDBRANCH  21  23
ENDBRANCH  20  21
ENDBRANCH  12  20
BRANCH  14  36
HETATM   36  C   UNK N   1      36.351  12.683   7.033  0.00  0.00    -0.025 C 
HETATM   37  C   UNK N   1      37.504  13.180   7.487  0.00  0.00     0.008 C 
ENDBRANCH  14  36
BRANCH  15  38
HETATM   38  O   UNK N   1      35.058  14.094   4.839  0.00  0.00    -0.394 OA
HETATM   39  H   UNK N   1      35.590  14.756   4.370  0.00  0.00     0.210 HD
ENDBRANCH  15  38
TORSDOF 9
ENDMDL
MODEL 2
REMARK VINA RESULT:      -7.9      1.982      2.323
REMARK  9 active torsions:
REMARK  status: ('A' for Active; 'I' for Inactive)
REMARK    1  A    between atoms: C_12  and  O_22 
REMARK    2  A    between atoms: C_14  and  C_20 
REMARK    3  A    between atoms: C_15  and  O_18 
REMARK    4  A    between atoms: O_22  and  C_23 
REMARK    5  A    between atoms: C_23  and  C_25 
REMARK    6  A    between atoms: C_25  and  S_26 
REMARK    7  A    between atoms: S_26  and  C_27 
REMARK    8  A    between atoms: C_30  and  N_34 
REMARK    9  A    between atoms: C_32  and  O_33 
ROOT
HETATM    1  C   UNK N   1      32.279  18.048   8.352  0.00  0.00     0.011 C 
HETATM    2  C   UNK N   1      31.863  16.601   8.154  0.00  0.00    -0.007 C 
HETATM    3  C   UNK N   1      30.747  16.529   7.050  0.00  0.00     0.006 C 
HETATM    4  C   UNK N   1      30.874  15.335   6.040  0.00  0.00     0.011 C 
HETATM    5  C   UNK N   1      32.308  15.136   5.445  0.00  0.00    -0.023 C 
HETATM    6  C   UNK N   1      32.436  15.852   4.086  0.00  0.00     0.018 C 
HETATM    7  C   UNK N   1      32.844  17.297   4.378  0.00  0.00     0.079 C 
HETATM    8  C   UNK N   1      33.505  17.156   5.689  0.00  0.00     0.132 C 
HETATM    9  O   UNK N   1      34.265  17.996   6.143  0.00  0.00    -0.298 OA
HETATM   10  C   UNK N   1      33.302  15.818   6.302  0.00  0.00     0.075 C 
HETATM   11  C   UNK N   1      33.021  15.646   7.798  0.00  0.00    -0.003 C 
HETATM   12  C   UNK N   1      34.441  15.707   8.361  0.00  0.00     0.142 C 
HETATM   13  C   UNK N   1      35.460  14.754   7.616  0.00  0.00     0.049 C 
HETATM   14  C   UNK N   1      35.133  13.385   6.882  0.00  0.00     0.002 C 
HETATM   15  C   UNK N   1      34.332  13.393   5.503  0.00  0.00     0.134 C 
HETATM   16  C   UNK N   1      32.778  13.646   5.444  0.00  0.00     0.021 C 
HETATM   17  C   UNK N   1      32.134  12.854   4.318  0.00  0.00     0.013 C 
HETATM   18  C   UNK N   1      34.487  12.396   7.835  0.00  0.00     0.022 C 
HETATM   19  C   UNK N   1      32.458  14.289   8.236  0.00  0.00     0.019 C 
ENDROOT
BRANCH  12  20
HETATM   20  O   UNK N   1      34.541  15.543   9.721  0.00  0.00    -0.315 OA
BRANCH  20  21
HETATM   21  C   UNK N   1      35.457  16.260  10.407  0.00  0.00     0.268 C 
HETATM   22  O   UNK N   1      35.437  17.481  10.370  0.00  0.00    -0.264 OA
BRANCH  21  23
HETATM   23  C   UNK N   1      36.578  15.562  11.105  0.00  0.00     0.185 C 
BRANCH  23  24
HETATM   24  S   UNK N   1      36.044  14.874  12.696  0.00  0.00    -0.152 SA
BRANCH  24  25
HETATM   25  C   UNK N   1      36.376  13.159  12.178  0.00  0.00     0.076 C 
HETATM   26  C   UNK N   1      37.218  13.152  10.898  0.00  0.00     0.020 C 
HETATM   27  C   UNK N   1      37.269  11.781  10.207  0.00  0.00     0.026 C 
HETATM   28  C   UNK N   1      36.788  10.654  11.116  0.00  0.00     0.076 C 
HETATM   29  C   UNK N   1      35.350  10.899  11.585  0.00  0.00     0.057 C 
HETATM   30  C   UNK N   1      35.082  12.346  12.032  0.00  0.00     0.133 C 
BRANCH  28  31
HETATM   31  N   UNK N   1      36.867   9.386  10.414  0.00  0.00    -0.426 N 
HETATM   32  H   UNK N   1      37.745   9.075  10.000  0.00  0.00     0.150 HD
HETATM   33  H   UNK N   1      36.035   8.800  10.334  0.00  0.00     0.150 HD
ENDBRANCH  28  31
BRANCH  30  34
HETATM   34  O   UNK N   1      34.224  12.954  11.113  0.00  0.00    -0.394 OA
HETATM   35  H   UNK N   1      33.565  13.661  11.194  0.00  0.00     0.210 HD
ENDBRANCH  30  34
ENDBRANCH  24  25
ENDBRANCH  23  24
ENDBRANCH  21  23
ENDBRANCH  20  21
ENDBRANCH  12  20
BRANCH  14  36
HETATM   36  C   UNK N   1      36.477  12.759   6.609  0.00  0.00    -0.025 C 
HETATM   37  C   UNK N   1      37.634  13.398   6.800  0.00  0.00     0.008 C 
ENDBRANCH  14  36
BRANCH  15  38
HETATM   38  O   UNK N   1      34.992  14.132   4.513  0.00  0.00    -0.394 OA
HETATM   39  H   UNK N   1      35.657  14.506   3.915  0.00  0.00     0.210 HD
ENDBRANCH  15  38
TORSDOF 9
ENDMDL
MODEL 3
REMARK VINA RESULT:      -7.6     15.658     19.145
REMARK  9 active torsions:
REMARK  status: ('A' for Active; 'I' for Inactive)
REMARK    1  A    between atoms: C_12  and  O_22 
REMARK    2  A    between atoms: C_14  and  C_20 
REMARK    3  A    between atoms: C_15  and  O_18 
REMARK    4  A    between atoms: O_22  and  C_23 
REMARK    5  A    between atoms: C_23  and  C_25 
REMARK    6  A    between atoms: C_25  and  S_26 
REMARK    7  A    between atoms: S_26  and  C_27 
REMARK    8  A    between atoms: C_30  and  N_34 
REMARK    9  A    between atoms: C_32  and  O_33 
ROOT
HETATM    1  C   UNK N   1      27.084  25.584  -9.112  0.00  0.00     0.011 C 
HETATM    2  C   UNK N   1      28.065  26.237  -8.154  0.00  0.00    -0.007 C 
HETATM    3  C   UNK N   1      27.627  27.723  -7.896  0.00  0.00     0.006 C 
HETATM    4  C   UNK N   1      27.763  28.218  -6.412  0.00  0.00     0.011 C 
HETATM    5  C   UNK N   1      27.178  27.235  -5.343  0.00  0.00    -0.023 C 
HETATM    6  C   UNK N   1      25.732  27.624  -4.981  0.00  0.00     0.018 C 
HETATM    7  C   UNK N   1      24.816  26.937  -5.998  0.00  0.00     0.079 C 
HETATM    8  C   UNK N   1      25.647  25.792  -6.414  0.00  0.00     0.132 C 
HETATM    9  O   UNK N   1      25.188  24.804  -6.963  0.00  0.00    -0.298 OA
HETATM   10  C   UNK N   1      27.048  25.882  -5.929  0.00  0.00     0.075 C 
HETATM   11  C   UNK N   1      28.238  25.496  -6.813  0.00  0.00    -0.003 C 
HETATM   12  C   UNK N   1      28.252  23.979  -6.619  0.00  0.00     0.142 C 
HETATM   13  C   UNK N   1      28.193  23.533  -5.103  0.00  0.00     0.049 C 
HETATM   14  C   UNK N   1      28.739  24.331  -3.845  0.00  0.00     0.002 C 
HETATM   15  C   UNK N   1      27.988  25.649  -3.352  0.00  0.00     0.134 C 
HETATM   16  C   UNK N   1      28.122  27.020  -4.118  0.00  0.00     0.021 C 
HETATM   17  C   UNK N   1      28.070  28.195  -3.155  0.00  0.00     0.013 C 
HETATM   18  C   UNK N   1      30.224  24.618  -3.984  0.00  0.00     0.022 C 
HETATM   19  C   UNK N   1      29.617  25.986  -6.355  0.00  0.00     0.019 C 
ENDROOT
BRANCH  12  20
HETATM   20  O   UNK N   1      29.258  23.313  -7.274  0.00  0.00    -0.315 OA
BRANCH  20  21
HETATM   21  C   UNK N   1      28.955  22.235  -8.030  0.00  0.00     0.268 C 
HETATM   22  O   UNK N   1      28.161  22.333  -8.952  0.00  0.00    -0.264 OA
BRANCH  21  23
HETATM   23  C   UNK N   1      29.487  20.891  -7.655  0.00  0.00     0.185 C 
BRANCH  23  24
HETATM   24  S   UNK N   1      31.183  20.657  -8.254  0.00  0.00    -0.152 SA
BRANCH  24  25
HETATM   25  C   UNK N   1      31.874  20.589  -6.569  0.00  0.00     0.076 C 
HETATM   26  C   UNK N   1      30.745  20.426  -5.546  0.00  0.00     0.020 C 
HETATM   27  C   UNK N   1      31.188  20.689  -4.099  0.00  0.00     0.026 C 
HETATM   28  C   UNK N   1      32.706  20.694  -3.948  0.00  0.00     0.076 C 
HETATM   29  C   UNK N   1      33.346  21.759  -4.844  0.00  0.00     0.057 C 
HETATM   30  C   UNK N   1      32.766  21.802  -6.268  0.00  0.00     0.133 C 
BRANCH  28  31
HETATM   31  N   UNK N   1      33.063  20.937  -2.562  0.00  0.00    -0.426 N 
HETATM   32  H   UNK N   1      34.009  20.751  -2.229  0.00  0.00     0.150 HD
HETATM   33  H   UNK N   1      32.362  21.298  -1.916  0.00  0.00     0.150 HD
ENDBRANCH  28  31
BRANCH  30  34
HETATM   34  O   UNK N   1      32.049  22.988  -6.432  0.00  0.00    -0.394 OA
HETATM   35  H   UNK N   1      31.152  23.257  -6.178  0.00  0.00     0.210 HD
ENDBRANCH  30  34
ENDBRANCH  24  25
ENDBRANCH  23  24
ENDBRANCH  21  23
ENDBRANCH  20  21
ENDBRANCH  12  20
BRANCH  14  36
HETATM   36  C   UNK N   1      28.693  23.344  -2.707  0.00  0.00    -0.025 C 
HETATM   37  C   UNK N   1      29.731  23.106  -1.902  0.00  0.00     0.008 C 
ENDBRANCH  14  36
BRANCH  15  38
HETATM   38  O   UNK N   1      26.653  25.400  -3.012  0.00  0.00    -0.394 OA
HETATM   39  H   UNK N   1      25.706  25.196  -3.037  0.00  0.00     0.210 HD
ENDBRANCH  15  38
TORSDOF 9
ENDMDL
MODEL 4
REMARK VINA RESULT:      -7.5      4.447      7.797
REMARK  9 active torsions:
REMARK  status: ('A' for Active; 'I' for Inactive)
REMARK    1  A    between atoms: C_12  and  O_22 
REMARK    2  A    between atoms: C_14  and  C_20 
REMARK    3  A    between atoms: C_15  and  O_18 
REMARK    4  A    between atoms: O_22  and  C_23 
REMARK    5  A    between atoms: C_23  and  C_25 
REMARK    6  A    between atoms: C_25  and  S_26 
REMARK    7  A    between atoms: S_26  and  C_27 
REMARK    8  A    between atoms: C_30  and  N_34 
REMARK    9  A    between atoms: C_32  and  O_33 
ROOT
HETATM    1  C   UNK N   1      27.449  12.952   2.854  0.00  0.00     0.011 C 
HETATM    2  C   UNK N   1      27.631  14.435   2.583  0.00  0.00    -0.007 C 
HETATM    3  C   UNK N   1      26.245  15.066   2.198  0.00  0.00     0.006 C 
HETATM    4  C   UNK N   1      25.953  16.479   2.815  0.00  0.00     0.011 C 
HETATM    5  C   UNK N   1      26.249  16.594   4.347  0.00  0.00    -0.023 C 
HETATM    6  C   UNK N   1      24.967  16.348   5.167  0.00  0.00     0.018 C 
HETATM    7  C   UNK N   1      24.856  14.837   5.382  0.00  0.00     0.079 C 
HETATM    8  C   UNK N   1      26.266  14.420   5.269  0.00  0.00     0.132 C 
HETATM    9  O   UNK N   1      26.679  13.354   5.694  0.00  0.00    -0.298 OA
HETATM   10  C   UNK N   1      27.154  15.499   4.763  0.00  0.00     0.075 C 
HETATM   11  C   UNK N   1      28.266  15.224   3.747  0.00  0.00    -0.003 C 
HETATM   12  C   UNK N   1      29.376  14.723   4.672  0.00  0.00     0.142 C 
HETATM   13  C   UNK N   1      29.633  15.662   5.919  0.00  0.00     0.049 C 
HETATM   14  C   UNK N   1      29.406  17.230   6.002  0.00  0.00     0.002 C 
HETATM   15  C   UNK N   1      27.924  17.819   6.029  0.00  0.00     0.134 C 
HETATM   16  C   UNK N   1      27.032  17.889   4.732  0.00  0.00     0.021 C 
HETATM   17  C   UNK N   1      26.125  19.109   4.754  0.00  0.00     0.013 C 
HETATM   18  C   UNK N   1      30.218  17.957   4.945  0.00  0.00     0.022 C 
HETATM   19  C   UNK N   1      28.847  16.444   3.023  0.00  0.00     0.019 C 
ENDROOT
BRANCH  12  20
HETATM   20  O   UNK N   1      30.562  14.414   4.053  0.00  0.00    -0.315 OA
BRANCH  20  21
HETATM   21  C   UNK N   1      31.419  13.563   4.655  0.00  0.00     0.268 C 
HETATM   22  O   UNK N   1      30.997  12.595   5.270  0.00  0.00    -0.264 OA
BRANCH  21  23
HETATM   23  C   UNK N   1      32.880  13.874   4.685  0.00  0.00     0.185 C 
BRANCH  23  24
HETATM   24  S   UNK N   1      33.191  15.631   4.356  0.00  0.00    -0.152 SA
BRANCH  24  25
HETATM   25  C   UNK N   1      33.458  16.014   6.118  0.00  0.00     0.076 C 
HETATM   26  C   UNK N   1      33.637  17.524   6.304  0.00  0.00     0.020 C 
HETATM   27  C   UNK N   1      34.191  17.909   7.684  0.00  0.00     0.026 C 
HETATM   28  C   UNK N   1      34.099  16.763   8.687  0.00  0.00     0.076 C 
HETATM   29  C   UNK N   1      34.866  15.534   8.191  0.00  0.00     0.057 C 
HETATM   30  C   UNK N   1      34.626  15.210   6.707  0.00  0.00     0.133 C 
BRANCH  28  31
HETATM   31  N   UNK N   1      34.627  17.187   9.971  0.00  0.00    -0.426 N 
HETATM   32  H   UNK N   1      35.304  16.611  10.471  0.00  0.00     0.150 HD
HETATM   33  H   UNK N   1      34.317  18.070  10.377  0.00  0.00     0.150 HD
ENDBRANCH  28  31
BRANCH  30  34
HETATM   34  O   UNK N   1      35.799  15.456   5.991  0.00  0.00    -0.394 OA
HETATM   35  H   UNK N   1      36.568  14.906   5.775  0.00  0.00     0.210 HD
ENDBRANCH  30  34
ENDBRANCH  24  25
ENDBRANCH  23  24
ENDBRANCH  21  23
ENDBRANCH  20  21
ENDBRANCH  12  20
BRANCH  14  36
HETATM   36  C   UNK N   1      30.073  17.653   7.286  0.00  0.00    -0.025 C 
HETATM   37  C   UNK N   1      30.441  16.791   8.238  0.00  0.00     0.008 C 
ENDBRANCH  14  36
BRANCH  15  38
HETATM   38  O   UNK N   1      27.183  17.335   7.114  0.00  0.00    -0.394 OA
HETATM   39  H   UNK N   1      26.799  17.192   7.993  0.00  0.00     0.210 HD
ENDBRANCH  15  38
TORSDOF 9
ENDMDL
MODEL 5
REMARK VINA RESULT:      -7.5      1.586      3.861
REMARK  9 active torsions:
REMARK  status: ('A' for Active; 'I' for Inactive)
REMARK    1  A    between atoms: C_12  and  O_22 
REMARK    2  A    between atoms: C_14  and  C_20 
REMARK    3  A    between atoms: C_15  and  O_18 
REMARK    4  A    between atoms: O_22  and  C_23 
REMARK    5  A    between atoms: C_23  and  C_25 
REMARK    6  A    between atoms: C_25  and  S_26 
REMARK    7  A    between atoms: S_26  and  C_27 
REMARK    8  A    between atoms: C_30  and  N_34 
REMARK    9  A    between atoms: C_32  and  O_33 
ROOT
HETATM    1  C   UNK N   1      35.642  13.974   7.367  0.00  0.00     0.011 C 
HETATM    2  C   UNK N   1      35.204  15.312   6.797  0.00  0.00    -0.007 C 
HETATM    3  C   UNK N   1      35.056  15.188   5.238  0.00  0.00     0.006 C 
HETATM    4  C   UNK N   1      33.813  15.920   4.619  0.00  0.00     0.011 C 
HETATM    5  C   UNK N   1      32.463  15.653   5.364  0.00  0.00    -0.023 C 
HETATM    6  C   UNK N   1      31.690  14.501   4.692  0.00  0.00     0.018 C 
HETATM    7  C   UNK N   1      32.200  13.198   5.312  0.00  0.00     0.079 C 
HETATM    8  C   UNK N   1      32.685  13.668   6.623  0.00  0.00     0.132 C 
HETATM    9  O   UNK N   1      32.872  12.920   7.569  0.00  0.00    -0.298 OA
HETATM   10  C   UNK N   1      32.738  15.149   6.728  0.00  0.00     0.075 C 
HETATM   11  C   UNK N   1      33.904  15.872   7.409  0.00  0.00    -0.003 C 
HETATM   12  C   UNK N   1      33.483  15.767   8.876  0.00  0.00     0.142 C 
HETATM   13  C   UNK N   1      31.988  16.215   9.139  0.00  0.00     0.049 C 
HETATM   14  C   UNK N   1      31.147  17.281   8.319  0.00  0.00     0.002 C 
HETATM   15  C   UNK N   1      30.646  16.934   6.845  0.00  0.00     0.134 C 
HETATM   16  C   UNK N   1      31.623  16.947   5.608  0.00  0.00     0.021 C 
HETATM   17  C   UNK N   1      30.907  17.400   4.346  0.00  0.00     0.013 C 
HETATM   18  C   UNK N   1      31.836  18.634   8.313  0.00  0.00     0.022 C 
HETATM   19  C   UNK N   1      34.039  17.372   7.122  0.00  0.00     0.019 C 
ENDROOT
BRANCH  12  20
HETATM   20  O   UNK N   1      34.328  16.371   9.774  0.00  0.00    -0.315 OA
BRANCH  20  21
HETATM   21  C   UNK N   1      35.130  15.604  10.543  0.00  0.00     0.268 C 
HETATM   22  O   UNK N   1      36.336  15.800  10.562  0.00  0.00    -0.264 OA
BRANCH  21  23
HETATM   23  C   UNK N   1      34.563  14.430  11.270  0.00  0.00     0.185 C 
BRANCH  23  24
HETATM   24  S   UNK N   1      35.858  13.252  11.744  0.00  0.00    -0.152 SA
BRANCH  24  25
HETATM   25  C   UNK N   1      35.408  13.316  13.509  0.00  0.00     0.076 C 
HETATM   26  C   UNK N   1      36.527  13.988  14.311  0.00  0.00     0.020 C 
HETATM   27  C   UNK N   1      36.393  13.794  15.828  0.00  0.00     0.026 C 
HETATM   28  C   UNK N   1      35.007  13.300  16.231  0.00  0.00     0.076 C 
HETATM   29  C   UNK N   1      34.676  11.969  15.549  0.00  0.00     0.057 C 
HETATM   30  C   UNK N   1      35.048  11.928  14.057  0.00  0.00     0.133 C 
BRANCH  28  31
HETATM   31  N   UNK N   1      34.938  13.145  17.673  0.00  0.00    -0.426 N 
HETATM   32  H   UNK N   1      35.357  13.838  18.292  0.00  0.00     0.150 HD
HETATM   33  H   UNK N   1      34.466  12.333  18.071  0.00  0.00     0.150 HD
ENDBRANCH  28  31
BRANCH  30  34
HETATM   34  O   UNK N   1      36.111  11.041  13.877  0.00  0.00    -0.394 OA
HETATM   35  H   UNK N   1      36.602  10.750  13.093  0.00  0.00     0.210 HD
ENDBRANCH  30  34
ENDBRANCH  24  25
ENDBRANCH  23  24
ENDBRANCH  21  23
ENDBRANCH  20  21
ENDBRANCH  12  20
BRANCH  14  36
HETATM   36  C   UNK N   1      29.918  17.534   9.155  0.00  0.00    -0.025 C 
HETATM   37  C   UNK N   1      29.688  18.687   9.787  0.00  0.00     0.008 C 
ENDBRANCH  14  36
BRANCH  15  38
HETATM   38  O   UNK N   1      29.828  15.799   6.818  0.00  0.00    -0.394 OA
HETATM   39  H   UNK N   1      29.459  14.910   6.942  0.00  0.00     0.210 HD
ENDBRANCH  15  38
TORSDOF 9
ENDMDL
MODEL 6
REMARK VINA RESULT:      -7.3      3.455      7.823
REMARK  9 active torsions:
REMARK  status: ('A' for Active; 'I' for Inactive)
REMARK    1  A    between atoms: C_12  and  O_22 
REMARK    2  A    between atoms: C_14  and  C_20 
REMARK    3  A    between atoms: C_15  and  O_18 
REMARK    4  A    between atoms: O_22  and  C_23 
REMARK    5  A    between atoms: C_23  and  C_25 
REMARK    6  A    between atoms: C_25  and  S_26 
REMARK    7  A    between atoms: S_26  and  C_27 
REMARK    8  A    between atoms: C_30  and  N_34 
REMARK    9  A    between atoms: C_32  and  O_33 
ROOT
HETATM    1  C   UNK N   1      36.308  14.165   7.564  0.00  0.00     0.011 C 
HETATM    2  C   UNK N   1      35.600  13.128   8.418  0.00  0.00    -0.007 C 
HETATM    3  C   UNK N   1      36.042  11.691   7.960  0.00  0.00     0.006 C 
HETATM    4  C   UNK N   1      36.296  10.663   9.119  0.00  0.00     0.011 C 
HETATM    5  C   UNK N   1      37.180  11.208  10.290  0.00  0.00    -0.023 C 
HETATM    6  C   UNK N   1      38.657  10.820  10.082  0.00  0.00     0.018 C 
HETATM    7  C   UNK N   1      39.286  11.906   9.206  0.00  0.00     0.079 C 
HETATM    8  C   UNK N   1      38.413  13.058   9.496  0.00  0.00     0.132 C 
HETATM    9  O   UNK N   1      38.739  14.212   9.269  0.00  0.00    -0.298 OA
HETATM   10  C   UNK N   1      37.192  12.688  10.257  0.00  0.00     0.075 C 
HETATM   11  C   UNK N   1      35.821  13.290   9.936  0.00  0.00    -0.003 C 
HETATM   12  C   UNK N   1      35.911  14.616  10.694  0.00  0.00     0.142 C 
HETATM   13  C   UNK N   1      36.393  14.457  12.192  0.00  0.00     0.049 C 
HETATM   14  C   UNK N   1      36.180  13.204  13.141  0.00  0.00     0.002 C 
HETATM   15  C   UNK N   1      36.992  11.857  12.874  0.00  0.00     0.134 C 
HETATM   16  C   UNK N   1      36.610  10.872  11.705  0.00  0.00     0.021 C 
HETATM   17  C   UNK N   1      36.881   9.427  12.092  0.00  0.00     0.013 C 
HETATM   18  C   UNK N   1      34.705  12.881  13.297  0.00  0.00     0.022 C 
HETATM   19  C   UNK N   1      34.602  12.562  10.513  0.00  0.00     0.019 C 
ENDROOT
BRANCH  12  20
HETATM   20  O   UNK N   1      34.788  15.403  10.634  0.00  0.00    -0.315 OA
BRANCH  20  21
HETATM   21  C   UNK N   1      34.849  16.593   9.998  0.00  0.00     0.268 C 
HETATM   22  O   UNK N   1      35.604  17.467  10.398  0.00  0.00    -0.264 OA
BRANCH  21  23
HETATM   23  C   UNK N   1      33.897  16.893   8.887  0.00  0.00     0.185 C 
BRANCH  23  24
HETATM   24  S   UNK N   1      32.668  15.574   8.691  0.00  0.00    -0.152 SA
BRANCH  24  25
HETATM   25  C   UNK N   1      32.430  15.924   6.919  0.00  0.00     0.076 C 
HETATM   26  C   UNK N   1      33.491  16.918   6.434  0.00  0.00     0.020 C 
HETATM   27  C   UNK N   1      33.178  17.523   5.058  0.00  0.00     0.026 C 
HETATM   28  C   UNK N   1      32.094  16.748   4.315  0.00  0.00     0.076 C 
HETATM   29  C   UNK N   1      30.794  16.706   5.123  0.00  0.00     0.057 C 
HETATM   30  C   UNK N   1      31.002  16.399   6.616  0.00  0.00     0.133 C 
BRANCH  28  31
HETATM   31  N   UNK N   1      31.849  17.359   3.021  0.00  0.00    -0.426 N 
HETATM   32  H   UNK N   1      30.966  17.208   2.533  0.00  0.00     0.150 HD
HETATM   33  H   UNK N   1      32.567  17.946   2.596  0.00  0.00     0.150 HD
ENDBRANCH  28  31
BRANCH  30  34
HETATM   34  O   UNK N   1      30.698  17.538   7.363  0.00  0.00    -0.394 OA
HETATM   35  H   UNK N   1      31.114  17.952   8.135  0.00  0.00     0.210 HD
ENDBRANCH  30  34
ENDBRANCH  24  25
ENDBRANCH  23  24
ENDBRANCH  21  23
ENDBRANCH  20  21
ENDBRANCH  12  20
BRANCH  14  36
HETATM   36  C   UNK N   1      36.565  13.687  14.516  0.00  0.00    -0.025 C 
HETATM   37  C   UNK N   1      36.046  13.186  15.640  0.00  0.00     0.008 C 
ENDBRANCH  14  36
BRANCH  15  38
HETATM   38  O   UNK N   1      38.377  12.057  12.922  0.00  0.00    -0.394 OA
HETATM   39  H   UNK N   1      39.275  12.402  12.802  0.00  0.00     0.210 HD
ENDBRANCH  15  38
TORSDOF 9
ENDMDL
MODEL 7
REMARK VINA RESULT:      -7.3      2.444      4.386
REMARK  9 active torsions:
REMARK  status: ('A' for Active; 'I' for Inactive)
REMARK    1  A    between atoms: C_12  and  O_22 
REMARK    2  A    between atoms: C_14  and  C_20 
REMARK    3  A    between atoms: C_15  and  O_18 
REMARK    4  A    between atoms: O_22  and  C_23 
REMARK    5  A    between atoms: C_23  and  C_25 
REMARK    6  A    between atoms: C_25  and  S_26 
REMARK    7  A    between atoms: S_26  and  C_27 
REMARK    8  A    between atoms: C_30  and  N_34 
REMARK    9  A    between atoms: C_32  and  O_33 
ROOT
HETATM    1  C   UNK N   1      35.715  13.719   7.467  0.00  0.00     0.011 C 
HETATM    2  C   UNK N   1      35.334  15.075   6.899  0.00  0.00    -0.007 C 
HETATM    3  C   UNK N   1      35.225  14.970   5.335  0.00  0.00     0.006 C 
HETATM    4  C   UNK N   1      34.022  15.745   4.690  0.00  0.00     0.011 C 
HETATM    5  C   UNK N   1      32.645  15.513   5.396  0.00  0.00    -0.023 C 
HETATM    6  C   UNK N   1      31.856  14.392   4.692  0.00  0.00     0.018 C 
HETATM    7  C   UNK N   1      32.308  13.069   5.313  0.00  0.00     0.079 C 
HETATM    8  C   UNK N   1      32.772  13.512   6.641  0.00  0.00     0.132 C 
HETATM    9  O   UNK N   1      32.910  12.750   7.585  0.00  0.00    -0.298 OA
HETATM   10  C   UNK N   1      32.867  14.989   6.762  0.00  0.00     0.075 C 
HETATM   11  C   UNK N   1      34.036  15.670   7.481  0.00  0.00    -0.003 C 
HETATM   12  C   UNK N   1      33.572  15.565   8.935  0.00  0.00     0.142 C 
HETATM   13  C   UNK N   1      32.086  16.057   9.162  0.00  0.00     0.049 C 
HETATM   14  C   UNK N   1      31.300  17.156   8.330  0.00  0.00     0.002 C 
HETATM   15  C   UNK N   1      30.828  16.837   6.840  0.00  0.00     0.134 C 
HETATM   16  C   UNK N   1      31.839  16.830   5.630  0.00  0.00     0.021 C 
HETATM   17  C   UNK N   1      31.172  17.316   4.353  0.00  0.00     0.013 C 
HETATM   18  C   UNK N   1      32.030  18.486   8.355  0.00  0.00     0.022 C 
HETATM   19  C   UNK N   1      34.225  17.168   7.212  0.00  0.00     0.019 C 
ENDROOT
BRANCH  12  20
HETATM   20  O   UNK N   1      34.411  16.135   9.861  0.00  0.00    -0.315 OA
BRANCH  20  21
HETATM   21  C   UNK N   1      35.336  15.366  10.475  0.00  0.00     0.268 C 
HETATM   22  O   UNK N   1      36.525  15.552  10.272  0.00  0.00    -0.264 OA
BRANCH  21  23
HETATM   23  C   UNK N   1      34.903  14.198  11.300  0.00  0.00     0.185 C 
BRANCH  23  24
HETATM   24  S   UNK N   1      35.708  14.198  12.926  0.00  0.00    -0.152 SA
BRANCH  24  25
HETATM   25  C   UNK N   1      36.324  12.494  12.730  0.00  0.00     0.076 C 
HETATM   26  C   UNK N   1      37.093  12.068  13.985  0.00  0.00     0.020 C 
HETATM   27  C   UNK N   1      37.922  10.790  13.789  0.00  0.00     0.026 C 
HETATM   28  C   UNK N   1      37.524  10.026  12.530  0.00  0.00     0.076 C 
HETATM   29  C   UNK N   1      37.688  10.897  11.281  0.00  0.00     0.057 C 
HETATM   30  C   UNK N   1      37.155  12.330  11.450  0.00  0.00     0.133 C 
BRANCH  28  31
HETATM   31  N   UNK N   1      38.333   8.827  12.403  0.00  0.00    -0.426 N 
HETATM   32  H   UNK N   1      37.915   7.947  12.101  0.00  0.00     0.150 HD
HETATM   33  H   UNK N   1      39.329   8.865  12.619  0.00  0.00     0.150 HD
ENDBRANCH  28  31
BRANCH  30  34
HETATM   34  O   UNK N   1      38.232  13.219  11.450  0.00  0.00    -0.394 OA
HETATM   35  H   UNK N   1      38.894  13.453  12.120  0.00  0.00     0.210 HD
ENDBRANCH  30  34
ENDBRANCH  24  25
ENDBRANCH  23  24
ENDBRANCH  21  23
ENDBRANCH  20  21
ENDBRANCH  12  20
BRANCH  14  36
HETATM   36  C   UNK N   1      30.058  17.439   9.135  0.00  0.00    -0.025 C 
HETATM   37  C   UNK N   1      29.711  18.664   9.539  0.00  0.00     0.008 C 
ENDBRANCH  14  36
BRANCH  15  38
HETATM   38  O   UNK N   1      29.977  15.728   6.780  0.00  0.00    -0.394 OA
HETATM   39  H   UNK N   1      29.474  14.951   6.490  0.00  0.00     0.210 HD
ENDBRANCH  15  38
TORSDOF 9
ENDMDL
MODEL 8
REMARK VINA RESULT:      -7.3      2.612      5.137
REMARK  9 active torsions:
REMARK  status: ('A' for Active; 'I' for Inactive)
REMARK    1  A    between atoms: C_12  and  O_22 
REMARK    2  A    between atoms: C_14  and  C_20 
REMARK    3  A    between atoms: C_15  and  O_18 
REMARK    4  A    between atoms: O_22  and  C_23 
REMARK    5  A    between atoms: C_23  and  C_25 
REMARK    6  A    between atoms: C_25  and  S_26 
REMARK    7  A    between atoms: S_26  and  C_27 
REMARK    8  A    between atoms: C_30  and  N_34 
REMARK    9  A    between atoms: C_32  and  O_33 
ROOT
HETATM    1  C   UNK N   1      34.799  15.178   5.751  0.00  0.00     0.011 C 
HETATM    2  C   UNK N   1      33.891  15.879   4.756  0.00  0.00    -0.007 C 
HETATM    3  C   UNK N   1      33.794  15.018   3.446  0.00  0.00     0.006 C 
HETATM    4  C   UNK N   1      32.365  14.929   2.802  0.00  0.00     0.011 C 
HETATM    5  C   UNK N   1      31.216  14.600   3.812  0.00  0.00    -0.023 C 
HETATM    6  C   UNK N   1      30.928  13.086   3.832  0.00  0.00     0.018 C 
HETATM    7  C   UNK N   1      31.890  12.460   4.844  0.00  0.00     0.079 C 
HETATM    8  C   UNK N   1      32.169  13.606   5.730  0.00  0.00     0.132 C 
HETATM    9  O   UNK N   1      32.626  13.480   6.854  0.00  0.00    -0.298 OA
HETATM   10  C   UNK N   1      31.665  14.895   5.191  0.00  0.00     0.075 C 
HETATM   11  C   UNK N   1      32.478  16.190   5.291  0.00  0.00    -0.003 C 
HETATM   12  C   UNK N   1      32.132  16.631   6.714  0.00  0.00     0.142 C 
HETATM   13  C   UNK N   1      30.580  16.625   7.019  0.00  0.00     0.049 C 
HETATM   14  C   UNK N   1      29.397  16.854   5.986  0.00  0.00     0.002 C 
HETATM   15  C   UNK N   1      29.057  15.730   4.906  0.00  0.00     0.134 C 
HETATM   16  C   UNK N   1      29.954  15.502   3.631  0.00  0.00     0.021 C 
HETATM   17  C   UNK N   1      29.116  15.064   2.440  0.00  0.00     0.013 C 
HETATM   18  C   UNK N   1      29.530  18.197   5.292  0.00  0.00     0.022 C 
HETATM   19  C   UNK N   1      32.041  17.343   4.380  0.00  0.00     0.019 C 
ENDROOT
BRANCH  12  20
HETATM   20  O   UNK N   1      32.693  17.819   7.113  0.00  0.00    -0.315 OA
BRANCH  20  21
HETATM   21  C   UNK N   1      33.728  17.801   7.981  0.00  0.00     0.268 C 
HETATM   22  O   UNK N   1      34.591  18.664   7.927  0.00  0.00    -0.264 OA
BRANCH  21  23
HETATM   23  C   UNK N   1      33.890  16.653   8.922  0.00  0.00     0.185 C 
BRANCH  23  24
HETATM   24  S   UNK N   1      35.173  16.985  10.161  0.00  0.00    -0.152 SA
BRANCH  24  25
HETATM   25  C   UNK N   1      35.554  15.217  10.384  0.00  0.00     0.076 C 
HETATM   26  C   UNK N   1      35.281  14.455   9.084  0.00  0.00     0.020 C 
HETATM   27  C   UNK N   1      35.254  12.929   9.264  0.00  0.00     0.026 C 
HETATM   28  C   UNK N   1      35.857  12.490  10.594  0.00  0.00     0.076 C 
HETATM   29  C   UNK N   1      35.110  13.123  11.773  0.00  0.00     0.057 C 
HETATM   30  C   UNK N   1      34.803  14.618  11.582  0.00  0.00     0.133 C 
BRANCH  28  31
HETATM   31  N   UNK N   1      35.812  11.043  10.704  0.00  0.00    -0.426 N 
HETATM   32  H   UNK N   1      36.586  10.529  11.123  0.00  0.00     0.150 HD
HETATM   33  H   UNK N   1      34.997  10.536  10.358  0.00  0.00     0.150 HD
ENDBRANCH  28  31
BRANCH  30  34
HETATM   34  O   UNK N   1      33.426  14.784  11.428  0.00  0.00    -0.394 OA
HETATM   35  H   UNK N   1      32.874  15.062  10.680  0.00  0.00     0.210 HD
ENDBRANCH  30  34
ENDBRANCH  24  25
ENDBRANCH  23  24
ENDBRANCH  21  23
ENDBRANCH  20  21
ENDBRANCH  12  20
BRANCH  14  36
HETATM   36  C   UNK N   1      28.167  17.036   6.837  0.00  0.00    -0.025 C 
HETATM   37  C   UNK N   1      28.212  17.378   8.127  0.00  0.00     0.008 C 
ENDBRANCH  14  36
BRANCH  15  38
HETATM   38  O   UNK N   1      28.723  14.508   5.502  0.00  0.00    -0.394 OA
HETATM   39  H   UNK N   1      28.707  13.581   5.785  0.00  0.00     0.210 HD
ENDBRANCH  15  38
TORSDOF 9
ENDMDL
MODEL 9
REMARK VINA RESULT:      -7.3      2.116      4.315
REMARK  9 active torsions:
REMARK  status: ('A' for Active; 'I' for Inactive)
REMARK    1  A    between atoms: C_12  and  O_22 
REMARK    2  A    between atoms: C_14  and  C_20 
REMARK    3  A    between atoms: C_15  and  O_18 
REMARK    4  A    between atoms: O_22  and  C_23 
REMARK    5  A    between atoms: C_23  and  C_25 
REMARK    6  A    between atoms: C_25  and  S_26 
REMARK    7  A    between atoms: S_26  and  C_27 
REMARK    8  A    between atoms: C_30  and  N_34 
REMARK    9  A    between atoms: C_32  and  O_33 
ROOT
HETATM    1  C   UNK N   1      34.432  14.109   4.772  0.00  0.00     0.011 C 
HETATM    2  C   UNK N   1      33.966  15.554   4.730  0.00  0.00    -0.007 C 
HETATM    3  C   UNK N   1      33.255  15.830   3.356  0.00  0.00     0.006 C 
HETATM    4  C   UNK N   1      31.959  16.712   3.433  0.00  0.00     0.011 C 
HETATM    5  C   UNK N   1      30.946  16.285   4.547  0.00  0.00    -0.023 C 
HETATM    6  C   UNK N   1      29.865  15.351   3.968  0.00  0.00     0.018 C 
HETATM    7  C   UNK N   1      30.420  13.927   4.037  0.00  0.00     0.079 C 
HETATM    8  C   UNK N   1      31.391  14.044   5.141  0.00  0.00     0.132 C 
HETATM    9  O   UNK N   1      31.824  13.078   5.749  0.00  0.00    -0.298 OA
HETATM   10  C   UNK N   1      31.637  15.449   5.554  0.00  0.00     0.075 C 
HETATM   11  C   UNK N   1      33.040  15.961   5.895  0.00  0.00    -0.003 C 
HETATM   12  C   UNK N   1      33.165  15.495   7.346  0.00  0.00     0.142 C 
HETATM   13  C   UNK N   1      31.922  15.883   8.245  0.00  0.00     0.049 C 
HETATM   14  C   UNK N   1      30.962  17.134   8.067  0.00  0.00     0.002 C 
HETATM   15  C   UNK N   1      29.931  17.177   6.851  0.00  0.00     0.134 C 
HETATM   16  C   UNK N   1      30.394  17.487   5.377  0.00  0.00     0.021 C 
HETATM   17  C   UNK N   1      29.326  18.254   4.614  0.00  0.00     0.013 C 
HETATM   18  C   UNK N   1      31.744  18.434   8.113  0.00  0.00     0.022 C 
HETATM   19  C   UNK N   1      33.224  17.482   5.929  0.00  0.00     0.019 C 
ENDROOT
BRANCH  12  20
HETATM   20  O   UNK N   1      34.336  15.840   7.975  0.00  0.00    -0.315 OA
BRANCH  20  21
HETATM   21  C   UNK N   1      34.345  15.994   9.317  0.00  0.00     0.268 C 
HETATM   22  O   UNK N   1      34.514  17.099   9.809  0.00  0.00    -0.264 OA
BRANCH  21  23
HETATM   23  C   UNK N   1      34.283  14.793  10.203  0.00  0.00     0.185 C 
BRANCH  23  24
HETATM   24  S   UNK N   1      35.547  13.571   9.756  0.00  0.00    -0.152 SA
BRANCH  24  25
HETATM   25  C   UNK N   1      35.756  13.012  11.478  0.00  0.00     0.076 C 
HETATM   26  C   UNK N   1      35.482  14.170  12.442  0.00  0.00     0.020 C 
HETATM   27  C   UNK N   1      35.948  13.894  13.879  0.00  0.00     0.026 C 
HETATM   28  C   UNK N   1      36.242  12.416  14.120  0.00  0.00     0.076 C 
HETATM   29  C   UNK N   1      37.322  11.905  13.161  0.00  0.00     0.057 C 
HETATM   30  C   UNK N   1      37.132  12.372  11.708  0.00  0.00     0.133 C 
BRANCH  28  31
HETATM   31  N   UNK N   1      36.669  12.215  15.493  0.00  0.00    -0.426 N 
HETATM   32  H   UNK N   1      36.404  11.372  16.001  0.00  0.00     0.150 HD
HETATM   33  H   UNK N   1      37.239  12.925  15.953  0.00  0.00     0.150 HD
ENDBRANCH  28  31
BRANCH  30  34
HETATM   34  O   UNK N   1      38.149  13.272  11.382  0.00  0.00    -0.394 OA
HETATM   35  H   UNK N   1      38.288  14.211  11.580  0.00  0.00     0.210 HD
ENDBRANCH  30  34
ENDBRANCH  24  25
ENDBRANCH  23  24
ENDBRANCH  21  23
ENDBRANCH  20  21
ENDBRANCH  12  20
BRANCH  14  36
HETATM   36  C   UNK N   1      30.150  17.185   9.336  0.00  0.00    -0.025 C 
HETATM   37  C   UNK N   1      29.426  18.247   9.699  0.00  0.00     0.008 C 
ENDBRANCH  14  36
BRANCH  15  38
HETATM   38  O   UNK N   1      29.041  16.097   6.873  0.00  0.00    -0.394 OA
HETATM   39  H   UNK N   1      28.249  15.538   6.834  0.00  0.00     0.210 HD
ENDBRANCH  15  38
TORSDOF 9
ENDMDL
