MODEL 1
REMARK VINA RESULT:      -6.0      0.000      0.000
REMARK  8 active torsions:
REMARK  status: ('A' for Active; 'I' for Inactive)
REMARK    1  A    between atoms: C_3  and  C_15 
REMARK    2  A    between atoms: C_5  and  O_7 
REMARK    3  A    between atoms: O_7  and  C_8 
REMARK    4  A    between atoms: C_8  and  C_9 
REMARK    5  A    between atoms: C_15  and  C_16 
REMARK    6  A    between atoms: C_15  and  O_19 
REMARK    7  A    between atoms: C_16  and  C_17 
REMARK    8  A    between atoms: C_17  and  N_18 
ROOT
HETATM    1  C   UNK N   1      33.084  17.554   4.492  0.00  0.00     0.003 A 
HETATM    2  C   UNK N   1      33.529  17.467   5.818  0.00  0.00     0.010 A 
HETATM    3  C   UNK N   1      32.605  17.306   6.864  0.00  0.00    -0.027 A 
HETATM    4  C   UNK N   1      31.243  17.238   6.564  0.00  0.00     0.046 A 
HETATM    5  C   UNK N   1      30.791  17.306   5.247  0.00  0.00     0.069 A 
HETATM    6  C   UNK N   1      31.718  17.463   4.203  0.00  0.00     0.037 A 
ENDROOT
BRANCH   3   7
HETATM    7  C   UNK N   1      33.024  17.167   8.303  0.00  0.00     0.152 C 
BRANCH   7   8
HETATM    8  C   UNK N   1      33.564  15.788   8.660  0.00  0.00     0.055 C 
BRANCH   8   9
HETATM    9  C   UNK N   1      34.854  15.922   9.452  0.00  0.00     0.114 C 
BRANCH   9  10
HETATM   10  N   UNK N   1      34.772  17.082  10.320  0.00  0.00    -0.430 N 
HETATM   11  H   UNK N   1      33.888  17.502  10.605  0.00  0.00     0.149 HD
HETATM   12  H   UNK N   1      35.640  17.495  10.663  0.00  0.00     0.149 HD
ENDBRANCH   9  10
ENDBRANCH   8   9
ENDBRANCH   7   8
BRANCH   7  13
HETATM   13  O   UNK N   1      31.935  17.467   9.128  0.00  0.00    -0.391 OA
HETATM   14  H   UNK N   1      30.976  17.491   8.983  0.00  0.00     0.210 HD
ENDBRANCH   7  13
ENDBRANCH   3   7
BRANCH   5  15
HETATM   15  O   UNK N   1      29.464  17.193   5.026  0.00  0.00    -0.351 OA
BRANCH  15  16
HETATM   16  C   UNK N   1      28.502  17.140   6.008  0.00  0.00     0.180 C 
BRANCH  16  17
HETATM   17  C   UNK N   1      27.640  18.389   5.903  0.00  0.00     0.010 C 
HETATM   18  C   UNK N   1      27.870  19.099   4.567  0.00  0.00     0.007 C 
HETATM   19  C   UNK N   1      26.942  20.302   4.454  0.00  0.00     0.000 C 
HETATM   20  C   UNK N   1      27.209  21.271   5.601  0.00  0.00     0.000 C 
HETATM   21  C   UNK N   1      27.021  20.571   6.947  0.00  0.00     0.000 C 
HETATM   22  C   UNK N   1      27.933  19.348   7.051  0.00  0.00     0.007 C 
ENDBRANCH  16  17
ENDBRANCH  15  16
ENDBRANCH   5  15
TORSDOF 8
ENDMDL
MODEL 2
REMARK VINA RESULT:      -5.8     10.842     15.112
REMARK  8 active torsions:
REMARK  status: ('A' for Active; 'I' for Inactive)
REMARK    1  A    between atoms: C_3  and  C_15 
REMARK    2  A    between atoms: C_5  and  O_7 
REMARK    3  A    between atoms: O_7  and  C_8 
REMARK    4  A    between atoms: C_8  and  C_9 
REMARK    5  A    between atoms: C_15  and  C_16 
REMARK    6  A    between atoms: C_15  and  O_19 
REMARK    7  A    between atoms: C_16  and  C_17 
REMARK    8  A    between atoms: C_17  and  N_18 
ROOT
HETATM    1  C   UNK N   1      35.174  13.508  18.764  0.00  0.00     0.003 A 
HETATM    2  C   UNK N   1      35.256  13.394  17.371  0.00  0.00     0.010 A 
HETATM    3  C   UNK N   1      35.319  12.126  16.768  0.00  0.00    -0.027 A 
HETATM    4  C   UNK N   1      35.303  10.987  17.576  0.00  0.00     0.046 A 
HETATM    5  C   UNK N   1      35.204  11.089  18.963  0.00  0.00     0.069 A 
HETATM    6  C   UNK N   1      35.136  12.359  19.561  0.00  0.00     0.037 A 
ENDROOT
BRANCH   3   7
HETATM    7  C   UNK N   1      35.370  11.937  15.275  0.00  0.00     0.152 C 
BRANCH   7   8
HETATM    8  C   UNK N   1      36.593  12.561  14.615  0.00  0.00     0.055 C 
BRANCH   8   9
HETATM    9  C   UNK N   1      36.176  13.740  13.753  0.00  0.00     0.114 C 
BRANCH   9  10
HETATM   10  N   UNK N   1      36.856  14.939  14.207  0.00  0.00    -0.430 N 
HETATM   11  H   UNK N   1      37.870  15.044  14.188  0.00  0.00     0.149 HD
HETATM   12  H   UNK N   1      36.293  15.713  14.562  0.00  0.00     0.149 HD
ENDBRANCH   9  10
ENDBRANCH   8   9
ENDBRANCH   7   8
BRANCH   7  13
HETATM   13  O   UNK N   1      34.211  12.474  14.706  0.00  0.00    -0.391 OA
HETATM   14  H   UNK N   1      33.815  12.417  13.822  0.00  0.00     0.210 HD
ENDBRANCH   7  13
ENDBRANCH   3   7
BRANCH   5  15
HETATM   15  O   UNK N   1      35.152   9.947  19.681  0.00  0.00    -0.351 OA
BRANCH  15  16
HETATM   16  C   UNK N   1      34.210   9.662  20.642  0.00  0.00     0.180 C 
BRANCH  16  17
HETATM   17  C   UNK N   1      33.151   8.761  20.024  0.00  0.00     0.010 C 
HETATM   18  C   UNK N   1      31.809   8.928  20.740  0.00  0.00     0.007 C 
HETATM   19  C   UNK N   1      30.748   8.073  20.056  0.00  0.00     0.000 C 
HETATM   20  C   UNK N   1      31.167   6.607  20.086  0.00  0.00     0.000 C 
HETATM   21  C   UNK N   1      32.525   6.424  19.409  0.00  0.00     0.000 C 
HETATM   22  C   UNK N   1      33.584   7.300  20.077  0.00  0.00     0.007 C 
ENDBRANCH  16  17
ENDBRANCH  15  16
ENDBRANCH   5  15
TORSDOF 8
ENDMDL
MODEL 3
REMARK VINA RESULT:      -5.6      5.915      9.626
REMARK  8 active torsions:
REMARK  status: ('A' for Active; 'I' for Inactive)
REMARK    1  A    between atoms: C_3  and  C_15 
REMARK    2  A    between atoms: C_5  and  O_7 
REMARK    3  A    between atoms: O_7  and  C_8 
REMARK    4  A    between atoms: C_8  and  C_9 
REMARK    5  A    between atoms: C_15  and  C_16 
REMARK    6  A    between atoms: C_15  and  O_19 
REMARK    7  A    between atoms: C_16  and  C_17 
REMARK    8  A    between atoms: C_17  and  N_18 
ROOT
HETATM    1  C   UNK N   1      23.258  17.501   4.961  0.00  0.00     0.003 A 
HETATM    2  C   UNK N   1      22.180  18.287   4.538  0.00  0.00     0.010 A 
HETATM    3  C   UNK N   1      22.403  19.428   3.750  0.00  0.00    -0.027 A 
HETATM    4  C   UNK N   1      23.711  19.767   3.398  0.00  0.00     0.046 A 
HETATM    5  C   UNK N   1      24.791  18.981   3.798  0.00  0.00     0.069 A 
HETATM    6  C   UNK N   1      24.563  17.838   4.583  0.00  0.00     0.037 A 
ENDROOT
BRANCH   3   7
HETATM    7  C   UNK N   1      21.283  20.292   3.233  0.00  0.00     0.152 C 
BRANCH   7   8
HETATM    8  C   UNK N   1      20.483  19.655   2.103  0.00  0.00     0.055 C 
BRANCH   8   9
HETATM    9  C   UNK N   1      20.941  20.208   0.765  0.00  0.00     0.114 C 
BRANCH   9  10
HETATM   10  N   UNK N   1      20.231  21.442   0.480  0.00  0.00    -0.430 N 
HETATM   11  H   UNK N   1      19.242  21.575   0.688  0.00  0.00     0.149 HD
HETATM   12  H   UNK N   1      20.746  22.212   0.052  0.00  0.00     0.149 HD
ENDBRANCH   9  10
ENDBRANCH   8   9
ENDBRANCH   7   8
BRANCH   7  13
HETATM   13  O   UNK N   1      21.807  21.513   2.799  0.00  0.00    -0.391 OA
HETATM   14  H   UNK N   1      21.628  22.080   2.033  0.00  0.00     0.210 HD
ENDBRANCH   7  13
ENDBRANCH   3   7
BRANCH   5  15
HETATM   15  O   UNK N   1      26.025  19.343   3.388  0.00  0.00    -0.351 OA
BRANCH  15  16
HETATM   16  C   UNK N   1      26.749  20.395   3.900  0.00  0.00     0.180 C 
BRANCH  16  17
HETATM   17  C   UNK N   1      27.760  19.844   4.894  0.00  0.00     0.010 C 
HETATM   18  C   UNK N   1      28.191  18.428   4.505  0.00  0.00     0.007 C 
HETATM   19  C   UNK N   1      29.257  17.927   5.471  0.00  0.00     0.000 C 
HETATM   20  C   UNK N   1      28.705  17.922   6.893  0.00  0.00     0.000 C 
HETATM   21  C   UNK N   1      28.233  19.321   7.289  0.00  0.00     0.000 C 
HETATM   22  C   UNK N   1      27.182  19.835   6.305  0.00  0.00     0.007 C 
ENDBRANCH  16  17
ENDBRANCH  15  16
ENDBRANCH   5  15
TORSDOF 8
ENDMDL
MODEL 4
REMARK VINA RESULT:      -5.6     11.349     13.704
REMARK  8 active torsions:
REMARK  status: ('A' for Active; 'I' for Inactive)
REMARK    1  A    between atoms: C_3  and  C_15 
REMARK    2  A    between atoms: C_5  and  O_7 
REMARK    3  A    between atoms: O_7  and  C_8 
REMARK    4  A    between atoms: C_8  and  C_9 
REMARK    5  A    between atoms: C_15  and  C_16 
REMARK    6  A    between atoms: C_15  and  O_19 
REMARK    7  A    between atoms: C_16  and  C_17 
REMARK    8  A    between atoms: C_17  and  N_18 
ROOT
HETATM    1  C   UNK N   1      27.934  22.860  -6.373  0.00  0.00     0.003 A 
HETATM    2  C   UNK N   1      28.969  22.828  -5.430  0.00  0.00     0.010 A 
HETATM    3  C   UNK N   1      28.908  23.641  -4.286  0.00  0.00    -0.027 A 
HETATM    4  C   UNK N   1      27.808  24.481  -4.106  0.00  0.00     0.046 A 
HETATM    5  C   UNK N   1      26.763  24.509  -5.030  0.00  0.00     0.069 A 
HETATM    6  C   UNK N   1      26.826  23.691  -6.171  0.00  0.00     0.037 A 
ENDROOT
BRANCH   3   7
HETATM    7  C   UNK N   1      29.969  23.622  -3.218  0.00  0.00     0.152 C 
BRANCH   7   8
HETATM    8  C   UNK N   1      31.320  23.104  -3.698  0.00  0.00     0.055 C 
BRANCH   8   9
HETATM    9  C   UNK N   1      31.732  21.891  -2.882  0.00  0.00     0.114 C 
BRANCH   9  10
HETATM   10  N   UNK N   1      31.173  20.692  -3.477  0.00  0.00    -0.430 N 
HETATM   11  H   UNK N   1      30.537  20.711  -4.274  0.00  0.00     0.149 HD
HETATM   12  H   UNK N   1      31.427  19.787  -3.079  0.00  0.00     0.149 HD
ENDBRANCH   9  10
ENDBRANCH   8   9
ENDBRANCH   7   8
BRANCH   7  13
HETATM   13  O   UNK N   1      29.527  22.840  -2.146  0.00  0.00    -0.391 OA
HETATM   14  H   UNK N   1      29.741  21.944  -1.843  0.00  0.00     0.210 HD
ENDBRANCH   7  13
ENDBRANCH   3   7
BRANCH   5  15
HETATM   15  O   UNK N   1      25.711  25.314  -4.774  0.00  0.00    -0.351 OA
BRANCH  15  16
HETATM   16  C   UNK N   1      25.136  26.174  -5.682  0.00  0.00     0.180 C 
BRANCH  16  17
HETATM   17  C   UNK N   1      25.660  27.576  -5.413  0.00  0.00     0.010 C 
HETATM   18  C   UNK N   1      27.041  27.772  -6.041  0.00  0.00     0.007 C 
HETATM   19  C   UNK N   1      27.511  29.205  -5.822  0.00  0.00     0.000 C 
HETATM   20  C   UNK N   1      27.580  29.504  -4.328  0.00  0.00     0.000 C 
HETATM   21  C   UNK N   1      26.218  29.278  -3.673  0.00  0.00     0.000 C 
HETATM   22  C   UNK N   1      25.734  27.848  -3.914  0.00  0.00     0.007 C 
ENDBRANCH  16  17
ENDBRANCH  15  16
ENDBRANCH   5  15
TORSDOF 8
ENDMDL
MODEL 5
REMARK VINA RESULT:      -5.6      5.891     11.029
REMARK  8 active torsions:
REMARK  status: ('A' for Active; 'I' for Inactive)
REMARK    1  A    between atoms: C_3  and  C_15 
REMARK    2  A    between atoms: C_5  and  O_7 
REMARK    3  A    between atoms: O_7  and  C_8 
REMARK    4  A    between atoms: C_8  and  C_9 
REMARK    5  A    between atoms: C_15  and  C_16 
REMARK    6  A    between atoms: C_15  and  O_19 
REMARK    7  A    between atoms: C_16  and  C_17 
REMARK    8  A    between atoms: C_17  and  N_18 
ROOT
HETATM    1  C   UNK N   1      37.064  13.035  10.284  0.00  0.00     0.003 A 
HETATM    2  C   UNK N   1      36.383  14.171   9.829  0.00  0.00     0.010 A 
HETATM    3  C   UNK N   1      35.788  15.054  10.746  0.00  0.00    -0.027 A 
HETATM    4  C   UNK N   1      35.881  14.780  12.112  0.00  0.00     0.046 A 
HETATM    5  C   UNK N   1      36.571  13.661  12.577  0.00  0.00     0.069 A 
HETATM    6  C   UNK N   1      37.168  12.783  11.657  0.00  0.00     0.037 A 
ENDROOT
BRANCH   3   7
HETATM    7  C   UNK N   1      35.077  16.311  10.320  0.00  0.00     0.152 C 
BRANCH   7   8
HETATM    8  C   UNK N   1      34.631  16.305   8.862  0.00  0.00     0.055 C 
BRANCH   8   9
HETATM    9  C   UNK N   1      33.820  17.553   8.561  0.00  0.00     0.114 C 
BRANCH   9  10
HETATM   10  N   UNK N   1      34.714  18.677   8.352  0.00  0.00    -0.430 N 
HETATM   11  H   UNK N   1      34.394  19.589   8.027  0.00  0.00     0.149 HD
HETATM   12  H   UNK N   1      35.709  18.548   8.538  0.00  0.00     0.149 HD
ENDBRANCH   9  10
ENDBRANCH   8   9
ENDBRANCH   7   8
BRANCH   7  13
HETATM   13  O   UNK N   1      35.912  17.409  10.546  0.00  0.00    -0.391 OA
HETATM   14  H   UNK N   1      36.758  17.692  10.164  0.00  0.00     0.210 HD
ENDBRANCH   7  13
ENDBRANCH   3   7
BRANCH   5  15
HETATM   15  O   UNK N   1      36.656  13.479  13.912  0.00  0.00    -0.351 OA
BRANCH  15  16
HETATM   16  C   UNK N   1      35.606  13.596  14.793  0.00  0.00     0.180 C 
BRANCH  16  17
HETATM   17  C   UNK N   1      35.933  12.790  16.040  0.00  0.00     0.010 C 
HETATM   18  C   UNK N   1      35.926  11.290  15.737  0.00  0.00     0.007 C 
HETATM   19  C   UNK N   1      36.329  10.508  16.981  0.00  0.00     0.000 C 
HETATM   20  C   UNK N   1      35.356  10.806  18.117  0.00  0.00     0.000 C 
HETATM   21  C   UNK N   1      35.320  12.305  18.411  0.00  0.00     0.000 C 
HETATM   22  C   UNK N   1      34.940  13.092  17.157  0.00  0.00     0.007 C 
ENDBRANCH  16  17
ENDBRANCH  15  16
ENDBRANCH   5  15
TORSDOF 8
ENDMDL
MODEL 6
REMARK VINA RESULT:      -5.4     11.371     13.665
REMARK  8 active torsions:
REMARK  status: ('A' for Active; 'I' for Inactive)
REMARK    1  A    between atoms: C_3  and  C_15 
REMARK    2  A    between atoms: C_5  and  O_7 
REMARK    3  A    between atoms: O_7  and  C_8 
REMARK    4  A    between atoms: C_8  and  C_9 
REMARK    5  A    between atoms: C_15  and  C_16 
REMARK    6  A    between atoms: C_15  and  O_19 
REMARK    7  A    between atoms: C_16  and  C_17 
REMARK    8  A    between atoms: C_17  and  N_18 
ROOT
HETATM    1  C   UNK N   1      30.100  26.565  -4.171  0.00  0.00     0.003 A 
HETATM    2  C   UNK N   1      30.784  25.482  -3.605  0.00  0.00     0.010 A 
HETATM    3  C   UNK N   1      30.102  24.286  -3.323  0.00  0.00    -0.027 A 
HETATM    4  C   UNK N   1      28.738  24.196  -3.609  0.00  0.00     0.046 A 
HETATM    5  C   UNK N   1      28.052  25.262  -4.189  0.00  0.00     0.069 A 
HETATM    6  C   UNK N   1      28.738  26.455  -4.474  0.00  0.00     0.037 A 
ENDROOT
BRANCH   3   7
HETATM    7  C   UNK N   1      30.789  23.074  -2.752  0.00  0.00     0.152 C 
BRANCH   7   8
HETATM    8  C   UNK N   1      30.403  21.766  -3.431  0.00  0.00     0.055 C 
BRANCH   8   9
HETATM    9  C   UNK N   1      31.650  20.981  -3.798  0.00  0.00     0.114 C 
BRANCH   9  10
HETATM   10  N   UNK N   1      32.628  21.095  -2.732  0.00  0.00    -0.430 N 
HETATM   11  H   UNK N   1      33.175  21.940  -2.567  0.00  0.00     0.149 HD
HETATM   12  H   UNK N   1      32.774  20.294  -2.118  0.00  0.00     0.149 HD
ENDBRANCH   9  10
ENDBRANCH   8   9
ENDBRANCH   7   8
BRANCH   7  13
HETATM   13  O   UNK N   1      30.506  22.988  -1.385  0.00  0.00    -0.391 OA
HETATM   14  H   UNK N   1      30.962  22.574  -0.635  0.00  0.00     0.210 HD
ENDBRANCH   7  13
ENDBRANCH   3   7
BRANCH   5  15
HETATM   15  O   UNK N   1      26.744  25.093  -4.477  0.00  0.00    -0.351 OA
BRANCH  15  16
HETATM   16  C   UNK N   1      25.925  26.057  -5.018  0.00  0.00     0.180 C 
BRANCH  16  17
HETATM   17  C   UNK N   1      25.581  25.651  -6.443  0.00  0.00     0.010 C 
HETATM   18  C   UNK N   1      25.920  24.179  -6.687  0.00  0.00     0.007 C 
HETATM   19  C   UNK N   1      25.498  23.777  -8.095  0.00  0.00     0.000 C 
HETATM   20  C   UNK N   1      26.221  24.646  -9.119  0.00  0.00     0.000 C 
HETATM   21  C   UNK N   1      25.925  26.125  -8.870  0.00  0.00     0.000 C 
HETATM   22  C   UNK N   1      26.325  26.523  -7.449  0.00  0.00     0.007 C 
ENDBRANCH  16  17
ENDBRANCH  15  16
ENDBRANCH   5  15
TORSDOF 8
ENDMDL
MODEL 7
REMARK VINA RESULT:      -5.4     11.082     12.609
REMARK  8 active torsions:
REMARK  status: ('A' for Active; 'I' for Inactive)
REMARK    1  A    between atoms: C_3  and  C_15 
REMARK    2  A    between atoms: C_5  and  O_7 
REMARK    3  A    between atoms: O_7  and  C_8 
REMARK    4  A    between atoms: C_8  and  C_9 
REMARK    5  A    between atoms: C_15  and  C_16 
REMARK    6  A    between atoms: C_15  and  O_19 
REMARK    7  A    between atoms: C_16  and  C_17 
REMARK    8  A    between atoms: C_17  and  N_18 
ROOT
HETATM    1  C   UNK N   1      31.648  25.259  -4.665  0.00  0.00     0.003 A 
HETATM    2  C   UNK N   1      32.312  24.048  -4.436  0.00  0.00     0.010 A 
HETATM    3  C   UNK N   1      31.669  23.010  -3.741  0.00  0.00    -0.027 A 
HETATM    4  C   UNK N   1      30.365  23.205  -3.281  0.00  0.00     0.046 A 
HETATM    5  C   UNK N   1      29.688  24.401  -3.519  0.00  0.00     0.069 A 
HETATM    6  C   UNK N   1      30.334  25.435  -4.218  0.00  0.00     0.037 A 
ENDROOT
BRANCH   3   7
HETATM    7  C   UNK N   1      32.315  21.672  -3.498  0.00  0.00     0.152 C 
BRANCH   7   8
HETATM    8  C   UNK N   1      31.675  20.526  -4.273  0.00  0.00     0.055 C 
BRANCH   8   9
HETATM    9  C   UNK N   1      32.752  19.623  -4.850  0.00  0.00     0.114 C 
BRANCH   9  10
HETATM   10  N   UNK N   1      33.567  19.090  -3.775  0.00  0.00    -0.430 N 
HETATM   11  H   UNK N   1      33.580  18.101  -3.524  0.00  0.00     0.149 HD
HETATM   12  H   UNK N   1      34.155  19.734  -3.244  0.00  0.00     0.149 HD
ENDBRANCH   9  10
ENDBRANCH   8   9
ENDBRANCH   7   8
BRANCH   7  13
HETATM   13  O   UNK N   1      32.275  21.386  -2.130  0.00  0.00    -0.391 OA
HETATM   14  H   UNK N   1      31.827  20.704  -1.604  0.00  0.00     0.210 HD
ENDBRANCH   7  13
ENDBRANCH   3   7
BRANCH   5  15
HETATM   15  O   UNK N   1      28.416  24.507  -3.082  0.00  0.00    -0.351 OA
BRANCH  15  16
HETATM   16  C   UNK N   1      27.301  24.147  -3.805  0.00  0.00     0.180 C 
BRANCH  16  17
HETATM   17  C   UNK N   1      26.818  25.363  -4.581  0.00  0.00     0.010 C 
HETATM   18  C   UNK N   1      26.209  26.404  -3.639  0.00  0.00     0.007 C 
HETATM   19  C   UNK N   1      25.802  27.641  -4.430  0.00  0.00     0.000 C 
HETATM   20  C   UNK N   1      24.783  27.259  -5.499  0.00  0.00     0.000 C 
HETATM   21  C   UNK N   1      25.359  26.191  -6.429  0.00  0.00     0.000 C 
HETATM   22  C   UNK N   1      25.792  24.960  -5.634  0.00  0.00     0.007 C 
ENDBRANCH  16  17
ENDBRANCH  15  16
ENDBRANCH   5  15
TORSDOF 8
ENDMDL
MODEL 8
REMARK VINA RESULT:      -5.3     13.010     15.665
REMARK  8 active torsions:
REMARK  status: ('A' for Active; 'I' for Inactive)
REMARK    1  A    between atoms: C_3  and  C_15 
REMARK    2  A    between atoms: C_5  and  O_7 
REMARK    3  A    between atoms: O_7  and  C_8 
REMARK    4  A    between atoms: C_8  and  C_9 
REMARK    5  A    between atoms: C_15  and  C_16 
REMARK    6  A    between atoms: C_15  and  O_19 
REMARK    7  A    between atoms: C_16  and  C_17 
REMARK    8  A    between atoms: C_17  and  N_18 
ROOT
HETATM    1  C   UNK N   1      27.801  27.955  -7.455  0.00  0.00     0.003 A 
HETATM    2  C   UNK N   1      27.724  28.892  -6.417  0.00  0.00     0.010 A 
HETATM    3  C   UNK N   1      26.813  28.707  -5.364  0.00  0.00    -0.027 A 
HETATM    4  C   UNK N   1      25.987  27.581  -5.369  0.00  0.00     0.046 A 
HETATM    5  C   UNK N   1      26.068  26.632  -6.387  0.00  0.00     0.069 A 
HETATM    6  C   UNK N   1      26.982  26.820  -7.438  0.00  0.00     0.037 A 
ENDROOT
BRANCH   3   7
HETATM    7  C   UNK N   1      26.711  29.658  -4.201  0.00  0.00     0.152 C 
BRANCH   7   8
HETATM    8  C   UNK N   1      28.047  29.966  -3.535  0.00  0.00     0.055 C 
BRANCH   8   9
HETATM    9  C   UNK N   1      27.817  30.632  -2.190  0.00  0.00     0.114 C 
BRANCH   9  10
HETATM   10  N   UNK N   1      27.951  29.648  -1.131  0.00  0.00    -0.430 N 
HETATM   11  H   UNK N   1      27.501  29.746  -0.221  0.00  0.00     0.149 HD
HETATM   12  H   UNK N   1      28.523  28.821  -1.305  0.00  0.00     0.149 HD
ENDBRANCH   9  10
ENDBRANCH   8   9
ENDBRANCH   7   8
BRANCH   7  13
HETATM   13  O   UNK N   1      25.831  29.129  -3.252  0.00  0.00    -0.391 OA
HETATM   14  H   UNK N   1      25.533  29.430  -2.379  0.00  0.00     0.210 HD
ENDBRANCH   7  13
ENDBRANCH   3   7
BRANCH   5  15
HETATM   15  O   UNK N   1      25.268  25.548  -6.309  0.00  0.00    -0.351 OA
BRANCH  15  16
HETATM   16  C   UNK N   1      25.517  24.440  -5.532  0.00  0.00     0.180 C 
BRANCH  16  17
HETATM   17  C   UNK N   1      27.012  24.372  -5.257  0.00  0.00     0.010 C 
HETATM   18  C   UNK N   1      27.659  23.232  -6.046  0.00  0.00     0.007 C 
HETATM   19  C   UNK N   1      29.165  23.231  -5.812  0.00  0.00     0.000 C 
HETATM   20  C   UNK N   1      29.458  23.057  -4.325  0.00  0.00     0.000 C 
HETATM   21  C   UNK N   1      28.788  24.166  -3.514  0.00  0.00     0.000 C 
HETATM   22  C   UNK N   1      27.280  24.184  -3.768  0.00  0.00     0.007 C 
ENDBRANCH  16  17
ENDBRANCH  15  16
ENDBRANCH   5  15
TORSDOF 8
ENDMDL
MODEL 9
REMARK VINA RESULT:      -5.2      9.969     14.431
REMARK  8 active torsions:
REMARK  status: ('A' for Active; 'I' for Inactive)
REMARK    1  A    between atoms: C_3  and  C_15 
REMARK    2  A    between atoms: C_5  and  O_7 
REMARK    3  A    between atoms: O_7  and  C_8 
REMARK    4  A    between atoms: C_8  and  C_9 
REMARK    5  A    between atoms: C_15  and  C_16 
REMARK    6  A    between atoms: C_15  and  O_19 
REMARK    7  A    between atoms: C_16  and  C_17 
REMARK    8  A    between atoms: C_17  and  N_18 
ROOT
HETATM    1  C   UNK N   1      36.858  10.244  15.726  0.00  0.00     0.003 A 
HETATM    2  C   UNK N   1      36.675  11.317  14.845  0.00  0.00     0.010 A 
HETATM    3  C   UNK N   1      36.023  12.483  15.278  0.00  0.00    -0.027 A 
HETATM    4  C   UNK N   1      35.558  12.555  16.592  0.00  0.00     0.046 A 
HETATM    5  C   UNK N   1      35.750  11.500  17.483  0.00  0.00     0.069 A 
HETATM    6  C   UNK N   1      36.407  10.337  17.048  0.00  0.00     0.037 A 
ENDROOT
BRANCH   3   7
HETATM    7  C   UNK N   1      35.830  13.684  14.389  0.00  0.00     0.152 C 
BRANCH   7   8
HETATM    8  C   UNK N   1      35.488  13.336  12.946  0.00  0.00     0.055 C 
BRANCH   8   9
HETATM    9  C   UNK N   1      36.371  14.127  11.996  0.00  0.00     0.114 C 
BRANCH   9  10
HETATM   10  N   UNK N   1      37.577  13.373  11.710  0.00  0.00    -0.430 N 
HETATM   11  H   UNK N   1      38.483  13.596  12.123  0.00  0.00     0.149 HD
HETATM   12  H   UNK N   1      37.516  12.583  11.068  0.00  0.00     0.149 HD
ENDBRANCH   9  10
ENDBRANCH   8   9
ENDBRANCH   7   8
BRANCH   7  13
HETATM   13  O   UNK N   1      36.990  14.465  14.416  0.00  0.00    -0.391 OA
HETATM   14  H   UNK N   1      37.263  15.233  14.941  0.00  0.00     0.210 HD
ENDBRANCH   7  13
ENDBRANCH   3   7
BRANCH   5  15
HETATM   15  O   UNK N   1      35.312  11.652  18.751  0.00  0.00    -0.351 OA
BRANCH  15  16
HETATM   16  C   UNK N   1      35.388  10.691  19.732  0.00  0.00     0.180 C 
BRANCH  16  17
HETATM   17  C   UNK N   1      33.975  10.258  20.090  0.00  0.00     0.010 C 
HETATM   18  C   UNK N   1      33.777  10.245  21.608  0.00  0.00     0.007 C 
HETATM   19  C   UNK N   1      32.335   9.880  21.938  0.00  0.00     0.000 C 
HETATM   20  C   UNK N   1      32.004   8.505  21.366  0.00  0.00     0.000 C 
HETATM   21  C   UNK N   1      32.232   8.485  19.855  0.00  0.00     0.000 C 
HETATM   22  C   UNK N   1      33.672   8.876  19.521  0.00  0.00     0.007 C 
ENDBRANCH  16  17
ENDBRANCH  15  16
ENDBRANCH   5  15
TORSDOF 8
ENDMDL
