MODEL 1
REMARK VINA RESULT:      -8.2      0.000      0.000
REMARK  6 active torsions:
REMARK  status: ('A' for Active; 'I' for Inactive)
REMARK    1  A    between atoms: C_8  and  C_13 
REMARK       I    between atoms: C_13  and  N_15 
REMARK    2  A    between atoms: N_15  and  C_16 
REMARK    3  A    between atoms: C_16  and  C_17 
REMARK    4  A    between atoms: C_17  and  N_20 
REMARK    5  A    between atoms: N_20  and  C_21 
REMARK    6  A    between atoms: C_21  and  C_22 
REMARK       I    between atoms: C_22  and  N_24 
ROOT
HETATM    1  C   UNK N   1      23.815  19.677   3.666  0.00  0.00     0.238 C 
HETATM    2  O   UNK N   1      23.876  20.870   3.398  0.00  0.00    -0.272 OA
HETATM    3  N   UNK N   1      22.608  19.036   3.703  0.00  0.00    -0.334 N 
HETATM    4  C   UNK N   1      22.477  17.649   4.048  0.00  0.00     0.127 C 
HETATM    5  C   UNK N   1      20.983  17.399   4.113  0.00  0.00     0.023 C 
HETATM    6  C   UNK N   1      20.333  18.565   3.377  0.00  0.00     0.042 C 
HETATM    7  C   UNK N   1      21.373  19.679   3.362  0.00  0.00     0.194 C 
HETATM    8  C   UNK N   1      21.474  20.229   2.006  0.00  0.00     0.084 C 
HETATM    9  N   UNK N   1      21.574  20.678   0.947  0.00  0.00    -0.195 NA
ENDROOT
BRANCH   1  10
HETATM   10  C   UNK N   1      25.088  18.918   3.929  0.00  0.00     0.218 C 
BRANCH  10  11
HETATM   11  N   UNK N   1      25.574  19.057   5.309  0.00  0.00    -0.404 N 
HETATM   12  H   UNK N   1      25.111  18.628   6.111  0.00  0.00     0.154 HD
BRANCH  11  13
HETATM   13  C   UNK N   1      26.795  19.876   5.422  0.00  0.00     0.034 C 
HETATM   14  C   UNK N   1      27.388  20.107   4.044  0.00  0.00     0.039 C 
HETATM   15  C   UNK N   1      26.536  21.225   6.096  0.00  0.00     0.039 C 
BRANCH  13  16
HETATM   16  C   UNK N   1      27.870  19.106   6.174  0.00  0.00     0.152 C 
BRANCH  16  17
HETATM   17  N   UNK N   1      27.409  18.521   7.416  0.00  0.00    -0.354 N 
HETATM   18  C   UNK N   1      28.205  17.917   8.335  0.00  0.00     0.254 C 
HETATM   19  O   UNK N   1      27.708  17.578   9.397  0.00  0.00    -0.268 OA
HETATM   20  H   UNK N   1      26.444  18.566   7.608  0.00  0.00     0.162 HD
BRANCH  18  21
HETATM   21  C   UNK N   1      29.661  17.692   8.118  0.00  0.00     0.065 A 
HETATM   22  C   UNK N   1      30.613  18.318   8.958  0.00  0.00     0.108 A 
HETATM   23  N   UNK N   1      31.952  18.149   8.740  0.00  0.00    -0.350 N 
HETATM   24  C   UNK N   1      32.348  17.364   7.708  0.00  0.00     0.128 A 
ATOM     25  HN  UNK N   1      32.640  18.604   9.341  1.00  0.00     0.166 HD
HETATM   26  C   UNK N   1      33.630  17.075   7.293  0.00  0.00     0.076 A 
HETATM   27  N   UNK N   1      31.466  16.752   6.920  0.00  0.00    -0.250 N 
HETATM   28  C   UNK N   1      33.414  16.240   6.194  0.00  0.00     0.026 A 
HETATM   29  C   UNK N   1      34.468  15.640   5.337  0.00  0.00     0.070 C 
HETATM   30  N   UNK N   1      32.091  16.059   5.991  0.00  0.00    -0.297 N 
ATOM     31  HN  UNK N   1      31.659  15.495   5.259  1.00  0.00     0.187 HD
HETATM   32  C   UNK N   1      30.136  16.879   7.078  0.00  0.00     0.136 A 
ENDBRANCH  18  21
ENDBRANCH  16  17
ENDBRANCH  13  16
ENDBRANCH  11  13
ENDBRANCH  10  11
ENDBRANCH   1  10
TORSDOF 6
ENDMDL
MODEL 2
REMARK VINA RESULT:      -8.0      1.506      2.392
REMARK  6 active torsions:
REMARK  status: ('A' for Active; 'I' for Inactive)
REMARK    1  A    between atoms: C_8  and  C_13 
REMARK       I    between atoms: C_13  and  N_15 
REMARK    2  A    between atoms: N_15  and  C_16 
REMARK    3  A    between atoms: C_16  and  C_17 
REMARK    4  A    between atoms: C_17  and  N_20 
REMARK    5  A    between atoms: N_20  and  C_21 
REMARK    6  A    between atoms: C_21  and  C_22 
REMARK       I    between atoms: C_22  and  N_24 
ROOT
HETATM    1  C   UNK N   1      24.166  18.112   4.614  0.00  0.00     0.238 C 
HETATM    2  O   UNK N   1      23.919  17.097   5.253  0.00  0.00    -0.272 OA
HETATM    3  N   UNK N   1      23.155  18.833   4.041  0.00  0.00    -0.334 N 
HETATM    4  C   UNK N   1      23.393  20.008   3.251  0.00  0.00     0.127 C 
HETATM    5  C   UNK N   1      22.034  20.391   2.697  0.00  0.00     0.023 C 
HETATM    6  C   UNK N   1      21.012  19.652   3.554  0.00  0.00     0.042 C 
HETATM    7  C   UNK N   1      21.771  18.505   4.211  0.00  0.00     0.194 C 
HETATM    8  C   UNK N   1      21.455  18.474   5.643  0.00  0.00     0.084 C 
HETATM    9  N   UNK N   1      21.225  18.428   6.774  0.00  0.00    -0.195 NA
ENDROOT
BRANCH   1  10
HETATM   10  C   UNK N   1      25.594  18.570   4.488  0.00  0.00     0.218 C 
BRANCH  10  11
HETATM   11  N   UNK N   1      26.276  18.713   5.782  0.00  0.00    -0.404 N 
HETATM   12  H   UNK N   1      26.140  18.068   6.560  0.00  0.00     0.154 HD
BRANCH  11  13
HETATM   13  C   UNK N   1      27.175  19.880   5.846  0.00  0.00     0.034 C 
HETATM   14  C   UNK N   1      28.147  19.844   4.681  0.00  0.00     0.039 C 
HETATM   15  C   UNK N   1      26.414  21.208   5.831  0.00  0.00     0.039 C 
BRANCH  13  16
HETATM   16  C   UNK N   1      28.058  19.790   7.082  0.00  0.00     0.152 C 
BRANCH  16  17
HETATM   17  N   UNK N   1      27.491  18.992   8.148  0.00  0.00    -0.354 N 
HETATM   18  C   UNK N   1      28.077  17.898   8.700  0.00  0.00     0.254 C 
HETATM   19  O   UNK N   1      27.550  17.391   9.677  0.00  0.00    -0.268 OA
HETATM   20  H   UNK N   1      26.612  19.264   8.500  0.00  0.00     0.162 HD
BRANCH  18  21
HETATM   21  C   UNK N   1      29.353  17.324   8.190  0.00  0.00     0.065 A 
HETATM   22  C   UNK N   1      29.416  16.765   6.891  0.00  0.00     0.108 A 
HETATM   23  N   UNK N   1      30.573  16.201   6.431  0.00  0.00    -0.350 N 
HETATM   24  C   UNK N   1      31.660  16.196   7.242  0.00  0.00     0.128 A 
ATOM     25  HN  UNK N   1      30.619  15.792   5.497  1.00  0.00     0.166 HD
HETATM   26  C   UNK N   1      32.908  15.666   6.998  0.00  0.00     0.076 A 
HETATM   27  N   UNK N   1      31.624  16.734   8.459  0.00  0.00    -0.250 N 
HETATM   28  C   UNK N   1      33.595  15.946   8.183  0.00  0.00     0.026 A 
HETATM   29  C   UNK N   1      35.001  15.574   8.481  0.00  0.00     0.070 C 
HETATM   30  N   UNK N   1      32.791  16.598   9.052  0.00  0.00    -0.297 N 
ATOM     31  HN  UNK N   1      33.041  16.921   9.986  1.00  0.00     0.187 HD
HETATM   32  C   UNK N   1      30.517  17.302   8.972  0.00  0.00     0.136 A 
ENDBRANCH  18  21
ENDBRANCH  16  17
ENDBRANCH  13  16
ENDBRANCH  11  13
ENDBRANCH  10  11
ENDBRANCH   1  10
TORSDOF 6
ENDMDL
MODEL 3
REMARK VINA RESULT:      -7.6      5.408      7.413
REMARK  6 active torsions:
REMARK  status: ('A' for Active; 'I' for Inactive)
REMARK    1  A    between atoms: C_8  and  C_13 
REMARK       I    between atoms: C_13  and  N_15 
REMARK    2  A    between atoms: N_15  and  C_16 
REMARK    3  A    between atoms: C_16  and  C_17 
REMARK    4  A    between atoms: C_17  and  N_20 
REMARK    5  A    between atoms: N_20  and  C_21 
REMARK    6  A    between atoms: C_21  and  C_22 
REMARK       I    between atoms: C_22  and  N_24 
ROOT
HETATM    1  C   UNK N   1      20.976  17.627   6.899  0.00  0.00     0.238 C 
HETATM    2  O   UNK N   1      20.728  18.674   7.482  0.00  0.00    -0.272 OA
HETATM    3  N   UNK N   1      20.827  16.426   7.537  0.00  0.00    -0.334 N 
HETATM    4  C   UNK N   1      21.140  15.172   6.912  0.00  0.00     0.127 C 
HETATM    5  C   UNK N   1      20.978  14.136   8.008  0.00  0.00     0.023 C 
HETATM    6  C   UNK N   1      20.161  14.813   9.103  0.00  0.00     0.042 C 
HETATM    7  C   UNK N   1      20.309  16.311   8.868  0.00  0.00     0.194 C 
HETATM    8  C   UNK N   1      18.987  16.943   8.928  0.00  0.00     0.084 C 
HETATM    9  N   UNK N   1      17.958  17.466   8.968  0.00  0.00    -0.195 NA
ENDROOT
BRANCH   1  10
HETATM   10  C   UNK N   1      21.422  17.674   5.462  0.00  0.00     0.218 C 
BRANCH  10  11
HETATM   11  N   UNK N   1      22.816  18.111   5.299  0.00  0.00    -0.404 N 
HETATM   12  H   UNK N   1      23.154  19.025   5.601  0.00  0.00     0.154 HD
BRANCH  11  13
HETATM   13  C   UNK N   1      23.677  17.102   4.657  0.00  0.00     0.034 C 
HETATM   14  C   UNK N   1      22.864  16.287   3.667  0.00  0.00     0.039 C 
HETATM   15  C   UNK N   1      24.875  17.726   3.937  0.00  0.00     0.039 C 
BRANCH  13  16
HETATM   16  C   UNK N   1      24.148  16.088   5.688  0.00  0.00     0.152 C 
BRANCH  16  17
HETATM   17  N   UNK N   1      25.488  15.593   5.451  0.00  0.00    -0.354 N 
HETATM   18  C   UNK N   1      25.994  14.440   5.959  0.00  0.00     0.254 C 
HETATM   19  O   UNK N   1      27.096  14.075   5.580  0.00  0.00    -0.268 OA
HETATM   20  H   UNK N   1      26.077  16.135   4.877  0.00  0.00     0.162 HD
BRANCH  18  21
HETATM   21  C   UNK N   1      25.244  13.585   6.921  0.00  0.00     0.065 A 
HETATM   22  C   UNK N   1      24.449  12.512   6.452  0.00  0.00     0.108 A 
HETATM   23  N   UNK N   1      23.726  11.748   7.325  0.00  0.00    -0.350 N 
HETATM   24  C   UNK N   1      23.794  12.034   8.649  0.00  0.00     0.128 A 
ATOM     25  HN  UNK N   1      23.148  10.977   6.989  1.00  0.00     0.166 HD
HETATM   26  C   UNK N   1      23.139  11.419   9.693  0.00  0.00     0.076 A 
HETATM   27  N   UNK N   1      24.552  13.028   9.108  0.00  0.00    -0.250 N 
HETATM   28  C   UNK N   1      23.586  12.143  10.802  0.00  0.00     0.026 A 
HETATM   29  C   UNK N   1      23.175  11.918  12.211  0.00  0.00     0.070 C 
HETATM   30  N   UNK N   1      24.445  13.113  10.418  0.00  0.00    -0.297 N 
ATOM     31  HN  UNK N   1      24.918  13.782  11.025  1.00  0.00     0.187 HD
HETATM   32  C   UNK N   1      25.284  13.818   8.303  0.00  0.00     0.136 A 
ENDBRANCH  18  21
ENDBRANCH  16  17
ENDBRANCH  13  16
ENDBRANCH  11  13
ENDBRANCH  10  11
ENDBRANCH   1  10
TORSDOF 6
ENDMDL
MODEL 4
REMARK VINA RESULT:      -7.6      6.094     12.642
REMARK  6 active torsions:
REMARK  status: ('A' for Active; 'I' for Inactive)
REMARK    1  A    between atoms: C_8  and  C_13 
REMARK       I    between atoms: C_13  and  N_15 
REMARK    2  A    between atoms: N_15  and  C_16 
REMARK    3  A    between atoms: C_16  and  C_17 
REMARK    4  A    between atoms: C_17  and  N_20 
REMARK    5  A    between atoms: N_20  and  C_21 
REMARK    6  A    between atoms: C_21  and  C_22 
REMARK       I    between atoms: C_22  and  N_24 
ROOT
HETATM    1  C   UNK N   1      36.084  12.595  12.669  0.00  0.00     0.238 C 
HETATM    2  O   UNK N   1      37.241  12.985  12.579  0.00  0.00    -0.272 OA
HETATM    3  N   UNK N   1      35.622  12.063  13.841  0.00  0.00    -0.334 N 
HETATM    4  C   UNK N   1      34.286  11.557  13.989  0.00  0.00     0.127 C 
HETATM    5  C   UNK N   1      34.252  10.935  15.372  0.00  0.00     0.023 C 
HETATM    6  C   UNK N   1      35.458  11.501  16.112  0.00  0.00     0.042 C 
HETATM    7  C   UNK N   1      36.413  12.000  15.034  0.00  0.00     0.194 C 
HETATM    8  C   UNK N   1      36.871  13.350  15.381  0.00  0.00     0.084 C 
HETATM    9  N   UNK N   1      37.245  14.413  15.629  0.00  0.00    -0.195 NA
ENDROOT
BRANCH   1  10
HETATM   10  C   UNK N   1      35.169  12.732  11.483  0.00  0.00     0.218 C 
BRANCH  10  11
HETATM   11  N   UNK N   1      34.548  14.059  11.376  0.00  0.00    -0.404 N 
HETATM   12  H   UNK N   1      33.857  14.409  12.041  0.00  0.00     0.154 HD
BRANCH  11  13
HETATM   13  C   UNK N   1      35.019  14.837  10.216  0.00  0.00     0.034 C 
HETATM   14  C   UNK N   1      36.396  15.407  10.505  0.00  0.00     0.039 C 
HETATM   15  C   UNK N   1      35.073  14.004   8.934  0.00  0.00     0.039 C 
BRANCH  13  16
HETATM   16  C   UNK N   1      34.137  16.060  10.016  0.00  0.00     0.152 C 
BRANCH  16  17
HETATM   17  N   UNK N   1      34.864  17.247   9.618  0.00  0.00    -0.354 N 
HETATM   18  C   UNK N   1      34.551  18.033   8.557  0.00  0.00     0.254 C 
HETATM   19  O   UNK N   1      35.170  19.075   8.406  0.00  0.00    -0.268 OA
HETATM   20  H   UNK N   1      35.645  17.503  10.160  0.00  0.00     0.162 HD
BRANCH  18  21
HETATM   21  C   UNK N   1      33.459  17.700   7.600  0.00  0.00     0.065 A 
HETATM   22  C   UNK N   1      33.759  17.401   6.249  0.00  0.00     0.108 A 
HETATM   23  N   UNK N   1      32.759  17.134   5.357  0.00  0.00    -0.350 N 
HETATM   24  C   UNK N   1      31.476  17.152   5.794  0.00  0.00     0.128 A 
ATOM     25  HN  UNK N   1      32.973  16.923   4.381  1.00  0.00     0.166 HD
HETATM   26  C   UNK N   1      30.321  16.939   5.073  0.00  0.00     0.076 A 
HETATM   27  N   UNK N   1      31.177  17.413   7.065  0.00  0.00    -0.250 N 
HETATM   28  C   UNK N   1      29.325  17.097   6.039  0.00  0.00     0.026 A 
HETATM   29  C   UNK N   1      27.862  16.995   5.804  0.00  0.00     0.070 C 
HETATM   30  N   UNK N   1      29.873  17.382   7.241  0.00  0.00    -0.297 N 
ATOM     31  HN  UNK N   1      29.373  17.543   8.115  1.00  0.00     0.187 HD
HETATM   32  C   UNK N   1      32.112  17.687   7.992  0.00  0.00     0.136 A 
ENDBRANCH  18  21
ENDBRANCH  16  17
ENDBRANCH  13  16
ENDBRANCH  11  13
ENDBRANCH  10  11
ENDBRANCH   1  10
TORSDOF 6
ENDMDL
MODEL 5
REMARK VINA RESULT:      -7.5      3.962      7.722
REMARK  6 active torsions:
REMARK  status: ('A' for Active; 'I' for Inactive)
REMARK    1  A    between atoms: C_8  and  C_13 
REMARK       I    between atoms: C_13  and  N_15 
REMARK    2  A    between atoms: N_15  and  C_16 
REMARK    3  A    between atoms: C_16  and  C_17 
REMARK    4  A    between atoms: C_17  and  N_20 
REMARK    5  A    between atoms: N_20  and  C_21 
REMARK    6  A    between atoms: C_21  and  C_22 
REMARK       I    between atoms: C_22  and  N_24 
ROOT
HETATM    1  C   UNK N   1      20.180  15.455   5.978  0.00  0.00     0.238 C 
HETATM    2  O   UNK N   1      19.926  16.652   6.024  0.00  0.00    -0.272 OA
HETATM    3  N   UNK N   1      20.633  14.800   7.089  0.00  0.00    -0.334 N 
HETATM    4  C   UNK N   1      20.981  13.407   7.079  0.00  0.00     0.127 C 
HETATM    5  C   UNK N   1      21.569  13.139   8.452  0.00  0.00     0.023 C 
HETATM    6  C   UNK N   1      21.130  14.307   9.328  0.00  0.00     0.042 C 
HETATM    7  C   UNK N   1      20.763  15.433   8.368  0.00  0.00     0.194 C 
HETATM    8  C   UNK N   1      19.468  15.999   8.760  0.00  0.00     0.084 C 
HETATM    9  N   UNK N   1      18.449  16.462   9.045  0.00  0.00    -0.195 NA
ENDROOT
BRANCH   1  10
HETATM   10  C   UNK N   1      19.962  14.708   4.690  0.00  0.00     0.218 C 
BRANCH  10  11
HETATM   11  N   UNK N   1      19.526  15.570   3.583  0.00  0.00    -0.404 N 
HETATM   12  H   UNK N   1      18.612  16.023   3.553  0.00  0.00     0.154 HD
BRANCH  11  13
HETATM   13  C   UNK N   1      20.537  15.717   2.520  0.00  0.00     0.034 C 
HETATM   14  C   UNK N   1      21.487  14.534   2.547  0.00  0.00     0.039 C 
HETATM   15  C   UNK N   1      19.911  15.834   1.128  0.00  0.00     0.039 C 
BRANCH  13  16
HETATM   16  C   UNK N   1      21.421  16.922   2.805  0.00  0.00     0.152 C 
BRANCH  16  17
HETATM   17  N   UNK N   1      20.714  18.041   3.390  0.00  0.00    -0.354 N 
HETATM   18  C   UNK N   1      21.292  19.199   3.802  0.00  0.00     0.254 C 
HETATM   19  O   UNK N   1      20.565  20.112   4.160  0.00  0.00    -0.268 OA
HETATM   20  H   UNK N   1      19.739  17.955   3.497  0.00  0.00     0.162 HD
BRANCH  18  21
HETATM   21  C   UNK N   1      22.766  19.413   3.790  0.00  0.00     0.065 A 
HETATM   22  C   UNK N   1      23.350  20.306   2.860  0.00  0.00     0.108 A 
HETATM   23  N   UNK N   1      24.705  20.478   2.816  0.00  0.00    -0.350 N 
HETATM   24  C   UNK N   1      25.476  19.782   3.687  0.00  0.00     0.128 A 
ATOM     25  HN  UNK N   1      25.129  21.117   2.143  1.00  0.00     0.166 HD
HETATM   26  C   UNK N   1      26.849  19.780   3.805  0.00  0.00     0.076 A 
HETATM   27  N   UNK N   1      24.942  18.952   4.582  0.00  0.00    -0.250 N 
HETATM   28  C   UNK N   1      27.065  18.877   4.849  0.00  0.00     0.026 A 
HETATM   29  C   UNK N   1      28.387  18.471   5.388  0.00  0.00     0.070 C 
HETATM   30  N   UNK N   1      25.889  18.390   5.303  0.00  0.00    -0.297 N 
ATOM     31  HN  UNK N   1      25.760  17.718   6.059  1.00  0.00     0.187 HD
HETATM   32  C   UNK N   1      23.618  18.736   4.675  0.00  0.00     0.136 A 
ENDBRANCH  18  21
ENDBRANCH  16  17
ENDBRANCH  13  16
ENDBRANCH  11  13
ENDBRANCH  10  11
ENDBRANCH   1  10
TORSDOF 6
ENDMDL
MODEL 6
REMARK VINA RESULT:      -7.5      3.499      6.538
REMARK  6 active torsions:
REMARK  status: ('A' for Active; 'I' for Inactive)
REMARK    1  A    between atoms: C_8  and  C_13 
REMARK       I    between atoms: C_13  and  N_15 
REMARK    2  A    between atoms: N_15  and  C_16 
REMARK    3  A    between atoms: C_16  and  C_17 
REMARK    4  A    between atoms: C_17  and  N_20 
REMARK    5  A    between atoms: N_20  and  C_21 
REMARK    6  A    between atoms: C_21  and  C_22 
REMARK       I    between atoms: C_22  and  N_24 
ROOT
HETATM    1  C   UNK N   1      21.176  16.562   7.167  0.00  0.00     0.238 C 
HETATM    2  O   UNK N   1      20.722  17.516   7.786  0.00  0.00    -0.272 OA
HETATM    3  N   UNK N   1      21.350  15.355   7.786  0.00  0.00    -0.334 N 
HETATM    4  C   UNK N   1      21.913  14.216   7.118  0.00  0.00     0.127 C 
HETATM    5  C   UNK N   1      22.061  13.161   8.198  0.00  0.00     0.023 C 
HETATM    6  C   UNK N   1      21.171  13.615   9.349  0.00  0.00     0.042 C 
HETATM    7  C   UNK N   1      20.949  15.109   9.140  0.00  0.00     0.194 C 
HETATM    8  C   UNK N   1      19.521  15.410   9.283  0.00  0.00     0.084 C 
HETATM    9  N   UNK N   1      18.402  15.675   9.389  0.00  0.00    -0.195 NA
ENDROOT
BRANCH   1  10
HETATM   10  C   UNK N   1      21.517  16.726   5.711  0.00  0.00     0.218 C 
BRANCH  10  11
HETATM   11  N   UNK N   1      20.599  17.624   4.996  0.00  0.00    -0.404 N 
HETATM   12  H   UNK N   1      19.633  17.780   5.282  0.00  0.00     0.154 HD
BRANCH  11  13
HETATM   13  C   UNK N   1      21.211  18.278   3.824  0.00  0.00     0.034 C 
HETATM   14  C   UNK N   1      21.404  17.263   2.712  0.00  0.00     0.039 C 
HETATM   15  C   UNK N   1      20.376  19.449   3.303  0.00  0.00     0.039 C 
BRANCH  13  16
HETATM   16  C   UNK N   1      22.620  18.742   4.163  0.00  0.00     0.152 C 
BRANCH  16  17
HETATM   17  N   UNK N   1      23.110  19.798   3.304  0.00  0.00    -0.354 N 
HETATM   18  C   UNK N   1      24.416  20.136   3.152  0.00  0.00     0.254 C 
HETATM   19  O   UNK N   1      24.705  20.962   2.300  0.00  0.00    -0.268 OA
HETATM   20  H   UNK N   1      22.445  20.310   2.789  0.00  0.00     0.162 HD
BRANCH  18  21
HETATM   21  C   UNK N   1      25.509  19.510   3.948  0.00  0.00     0.065 A 
HETATM   22  C   UNK N   1      26.191  18.373   3.453  0.00  0.00     0.108 A 
HETATM   23  N   UNK N   1      27.168  17.769   4.195  0.00  0.00    -0.350 N 
HETATM   24  C   UNK N   1      27.474  18.287   5.410  0.00  0.00     0.128 A 
ATOM     25  HN  UNK N   1      27.657  16.946   3.843  1.00  0.00     0.166 HD
HETATM   26  C   UNK N   1      28.395  17.833   6.328  0.00  0.00     0.076 A 
HETATM   27  N   UNK N   1      26.855  19.368   5.883  0.00  0.00    -0.250 N 
HETATM   28  C   UNK N   1      28.258  18.747   7.376  0.00  0.00     0.026 A 
HETATM   29  C   UNK N   1      29.009  18.721   8.656  0.00  0.00     0.070 C 
HETATM   30  N   UNK N   1      27.317  19.670   7.078  0.00  0.00    -0.297 N 
ATOM     31  HN  UNK N   1      27.022  20.450   7.665  1.00  0.00     0.187 HD
HETATM   32  C   UNK N   1      25.885  20.006   5.205  0.00  0.00     0.136 A 
ENDBRANCH  18  21
ENDBRANCH  16  17
ENDBRANCH  13  16
ENDBRANCH  11  13
ENDBRANCH  10  11
ENDBRANCH   1  10
TORSDOF 6
ENDMDL
MODEL 7
REMARK VINA RESULT:      -7.4      6.410     12.908
REMARK  6 active torsions:
REMARK  status: ('A' for Active; 'I' for Inactive)
REMARK    1  A    between atoms: C_8  and  C_13 
REMARK       I    between atoms: C_13  and  N_15 
REMARK    2  A    between atoms: N_15  and  C_16 
REMARK    3  A    between atoms: C_16  and  C_17 
REMARK    4  A    between atoms: C_17  and  N_20 
REMARK    5  A    between atoms: N_20  and  C_21 
REMARK    6  A    between atoms: C_21  and  C_22 
REMARK       I    between atoms: C_22  and  N_24 
ROOT
HETATM    1  C   UNK N   1      35.864  13.509  13.910  0.00  0.00     0.238 C 
HETATM    2  O   UNK N   1      36.687  14.158  14.542  0.00  0.00    -0.272 OA
HETATM    3  N   UNK N   1      35.347  12.353  14.427  0.00  0.00    -0.334 N 
HETATM    4  C   UNK N   1      34.408  11.537  13.712  0.00  0.00     0.127 C 
HETATM    5  C   UNK N   1      34.225  10.302  14.574  0.00  0.00     0.023 C 
HETATM    6  C   UNK N   1      34.751  10.677  15.955  0.00  0.00     0.042 C 
HETATM    7  C   UNK N   1      35.665  11.877  15.740  0.00  0.00     0.194 C 
HETATM    8  C   UNK N   1      35.337  12.916  16.722  0.00  0.00     0.084 C 
HETATM    9  N   UNK N   1      35.098  13.751  17.483  0.00  0.00    -0.195 NA
ENDROOT
BRANCH   1  10
HETATM   10  C   UNK N   1      35.407  14.013  12.567  0.00  0.00     0.218 C 
BRANCH  10  11
HETATM   11  N   UNK N   1      36.196  13.483  11.447  0.00  0.00    -0.404 N 
HETATM   12  H   UNK N   1      36.611  12.551  11.447  0.00  0.00     0.154 HD
BRANCH  11  13
HETATM   13  C   UNK N   1      36.331  14.428  10.324  0.00  0.00     0.034 C 
HETATM   14  C   UNK N   1      36.133  15.849  10.821  0.00  0.00     0.039 C 
HETATM   15  C   UNK N   1      37.688  14.320   9.626  0.00  0.00     0.039 C 
BRANCH  13  16
HETATM   16  C   UNK N   1      35.204  14.214   9.325  0.00  0.00     0.152 C 
BRANCH  16  17
HETATM   17  N   UNK N   1      35.593  14.434   7.948  0.00  0.00    -0.354 N 
HETATM   18  C   UNK N   1      35.093  15.406   7.143  0.00  0.00     0.254 C 
HETATM   19  O   UNK N   1      35.598  15.563   6.043  0.00  0.00    -0.268 OA
HETATM   20  H   UNK N   1      36.273  13.832   7.567  0.00  0.00     0.162 HD
BRANCH  18  21
HETATM   21  C   UNK N   1      33.990  16.314   7.564  0.00  0.00     0.065 A 
HETATM   22  C   UNK N   1      34.281  17.592   8.099  0.00  0.00     0.108 A 
HETATM   23  N   UNK N   1      33.276  18.414   8.525  0.00  0.00    -0.350 N 
HETATM   24  C   UNK N   1      31.995  17.984   8.416  0.00  0.00     0.128 A 
ATOM     25  HN  UNK N   1      33.484  19.334   8.916  1.00  0.00     0.166 HD
HETATM   26  C   UNK N   1      30.839  18.628   8.800  0.00  0.00     0.076 A 
HETATM   27  N   UNK N   1      31.702  16.792   7.898  0.00  0.00    -0.250 N 
HETATM   28  C   UNK N   1      29.847  17.705   8.456  0.00  0.00     0.026 A 
HETATM   29  C   UNK N   1      28.388  17.877   8.671  0.00  0.00     0.070 C 
HETATM   30  N   UNK N   1      30.399  16.600   7.909  0.00  0.00    -0.297 N 
ATOM     31  HN  UNK N   1      29.903  15.776   7.569  1.00  0.00     0.187 HD
HETATM   32  C   UNK N   1      32.643  15.935   7.464  0.00  0.00     0.136 A 
ENDBRANCH  18  21
ENDBRANCH  16  17
ENDBRANCH  13  16
ENDBRANCH  11  13
ENDBRANCH  10  11
ENDBRANCH   1  10
TORSDOF 6
ENDMDL
MODEL 8
REMARK VINA RESULT:      -7.3      4.291     11.404
REMARK  6 active torsions:
REMARK  status: ('A' for Active; 'I' for Inactive)
REMARK    1  A    between atoms: C_8  and  C_13 
REMARK       I    between atoms: C_13  and  N_15 
REMARK    2  A    between atoms: N_15  and  C_16 
REMARK    3  A    between atoms: C_16  and  C_17 
REMARK    4  A    between atoms: C_17  and  N_20 
REMARK    5  A    between atoms: N_20  and  C_21 
REMARK    6  A    between atoms: C_21  and  C_22 
REMARK       I    between atoms: C_22  and  N_24 
ROOT
HETATM    1  C   UNK N   1      34.977  14.753  10.783  0.00  0.00     0.238 C 
HETATM    2  O   UNK N   1      35.003  15.629  11.638  0.00  0.00    -0.272 OA
HETATM    3  N   UNK N   1      35.744  13.630  10.918  0.00  0.00    -0.334 N 
HETATM    4  C   UNK N   1      35.778  12.591   9.928  0.00  0.00     0.127 C 
HETATM    5  C   UNK N   1      36.854  11.632  10.402  0.00  0.00     0.023 C 
HETATM    6  C   UNK N   1      37.083  11.958  11.873  0.00  0.00     0.042 C 
HETATM    7  C   UNK N   1      36.549  13.371  12.075  0.00  0.00     0.194 C 
HETATM    8  C   UNK N   1      35.699  13.400  13.270  0.00  0.00     0.084 C 
HETATM    9  N   UNK N   1      35.024  13.451  14.206  0.00  0.00    -0.195 NA
ENDROOT
BRANCH   1  10
HETATM   10  C   UNK N   1      34.069  14.916   9.593  0.00  0.00     0.218 C 
BRANCH  10  11
HETATM   11  N   UNK N   1      33.531  16.276   9.453  0.00  0.00    -0.404 N 
HETATM   12  H   UNK N   1      33.203  16.832  10.243  0.00  0.00     0.154 HD
BRANCH  11  13
HETATM   13  C   UNK N   1      33.510  16.758   8.060  0.00  0.00     0.034 C 
HETATM   14  C   UNK N   1      34.132  18.141   7.986  0.00  0.00     0.039 C 
HETATM   15  C   UNK N   1      34.246  15.819   7.103  0.00  0.00     0.039 C 
BRANCH  13  16
HETATM   16  C   UNK N   1      32.074  16.962   7.601  0.00  0.00     0.152 C 
BRANCH  16  17
HETATM   17  N   UNK N   1      31.477  15.785   7.007  0.00  0.00    -0.354 N 
HETATM   18  C   UNK N   1      30.375  15.784   6.215  0.00  0.00     0.254 C 
HETATM   19  O   UNK N   1      30.049  14.739   5.677  0.00  0.00    -0.268 OA
HETATM   20  H   UNK N   1      31.905  14.917   7.193  0.00  0.00     0.162 HD
BRANCH  18  21
HETATM   21  C   UNK N   1      29.577  17.013   5.943  0.00  0.00     0.065 A 
HETATM   22  C   UNK N   1      29.583  17.596   4.653  0.00  0.00     0.108 A 
HETATM   23  N   UNK N   1      28.886  18.746   4.406  0.00  0.00    -0.350 N 
HETATM   24  C   UNK N   1      28.183  19.310   5.419  0.00  0.00     0.128 A 
ATOM     25  HN  UNK N   1      28.893  19.171   3.479  1.00  0.00     0.166 HD
HETATM   26  C   UNK N   1      27.437  20.468   5.405  0.00  0.00     0.076 A 
HETATM   27  N   UNK N   1      28.152  18.764   6.634  0.00  0.00    -0.250 N 
HETATM   28  C   UNK N   1      26.968  20.546   6.719  0.00  0.00     0.026 A 
HETATM   29  C   UNK N   1      26.115  21.627   7.275  0.00  0.00     0.070 C 
HETATM   30  N   UNK N   1      27.415  19.497   7.443  0.00  0.00    -0.297 N 
ATOM     31  HN  UNK N   1      27.221  19.309   8.426  1.00  0.00     0.187 HD
HETATM   32  C   UNK N   1      28.817  17.637   6.943  0.00  0.00     0.136 A 
ENDBRANCH  18  21
ENDBRANCH  16  17
ENDBRANCH  13  16
ENDBRANCH  11  13
ENDBRANCH  10  11
ENDBRANCH   1  10
TORSDOF 6
ENDMDL
MODEL 9
REMARK VINA RESULT:      -7.3     10.936     13.007
REMARK  6 active torsions:
REMARK  status: ('A' for Active; 'I' for Inactive)
REMARK    1  A    between atoms: C_8  and  C_13 
REMARK       I    between atoms: C_13  and  N_15 
REMARK    2  A    between atoms: N_15  and  C_16 
REMARK    3  A    between atoms: C_16  and  C_17 
REMARK    4  A    between atoms: C_17  and  N_20 
REMARK    5  A    between atoms: N_20  and  C_21 
REMARK    6  A    between atoms: C_21  and  C_22 
REMARK       I    between atoms: C_22  and  N_24 
ROOT
HETATM    1  C   UNK N   1      25.461  27.090  -6.191  0.00  0.00     0.238 C 
HETATM    2  O   UNK N   1      24.428  26.939  -5.552  0.00  0.00    -0.272 OA
HETATM    3  N   UNK N   1      26.370  28.042  -5.823  0.00  0.00    -0.334 N 
HETATM    4  C   UNK N   1      27.579  28.285  -6.559  0.00  0.00     0.127 C 
HETATM    5  C   UNK N   1      28.201  29.502  -5.902  0.00  0.00     0.023 C 
HETATM    6  C   UNK N   1      27.523  29.635  -4.543  0.00  0.00     0.042 C 
HETATM    7  C   UNK N   1      26.219  28.852  -4.650  0.00  0.00     0.194 C 
HETATM    8  C   UNK N   1      26.080  27.982  -3.478  0.00  0.00     0.084 C 
HETATM    9  N   UNK N   1      25.946  27.287  -2.566  0.00  0.00    -0.195 NA
ENDROOT
BRANCH   1  10
HETATM   10  C   UNK N   1      25.730  26.197  -7.372  0.00  0.00     0.218 C 
BRANCH  10  11
HETATM   11  N   UNK N   1      25.363  24.793  -7.136  0.00  0.00    -0.404 N 
HETATM   12  H   UNK N   1      24.409  24.489  -6.943  0.00  0.00     0.154 HD
BRANCH  11  13
HETATM   13  C   UNK N   1      26.508  23.867  -7.205  0.00  0.00     0.034 C 
HETATM   14  C   UNK N   1      26.052  22.460  -6.863  0.00  0.00     0.039 C 
HETATM   15  C   UNK N   1      27.177  23.863  -8.581  0.00  0.00     0.039 C 
BRANCH  13  16
HETATM   16  C   UNK N   1      27.522  24.212  -6.125  0.00  0.00     0.152 C 
BRANCH  16  17
HETATM   17  N   UNK N   1      26.994  24.128  -4.780  0.00  0.00    -0.354 N 
HETATM   18  C   UNK N   1      27.727  23.851  -3.671  0.00  0.00     0.254 C 
HETATM   19  O   UNK N   1      27.182  23.935  -2.582  0.00  0.00    -0.268 OA
HETATM   20  H   UNK N   1      26.029  24.284  -4.661  0.00  0.00     0.162 HD
BRANCH  18  21
HETATM   21  C   UNK N   1      29.172  23.495  -3.727  0.00  0.00     0.065 A 
HETATM   22  C   UNK N   1      30.145  24.496  -3.964  0.00  0.00     0.108 A 
HETATM   23  N   UNK N   1      31.469  24.171  -4.058  0.00  0.00    -0.350 N 
HETATM   24  C   UNK N   1      31.832  22.873  -3.909  0.00  0.00     0.128 A 
ATOM     25  HN  UNK N   1      32.171  24.890  -4.234  1.00  0.00     0.166 HD
HETATM   26  C   UNK N   1      33.092  22.321  -3.987  0.00  0.00     0.076 A 
HETATM   27  N   UNK N   1      30.932  21.922  -3.666  0.00  0.00    -0.250 N 
HETATM   28  C   UNK N   1      32.843  20.963  -3.766  0.00  0.00     0.026 A 
HETATM   29  C   UNK N   1      33.862  19.883  -3.761  0.00  0.00     0.070 C 
HETATM   30  N   UNK N   1      31.524  20.750  -3.572  0.00  0.00    -0.297 N 
ATOM     31  HN  UNK N   1      31.073  19.854  -3.388  1.00  0.00     0.187 HD
HETATM   32  C   UNK N   1      29.614  22.174  -3.566  0.00  0.00     0.136 A 
ENDBRANCH  18  21
ENDBRANCH  16  17
ENDBRANCH  13  16
ENDBRANCH  11  13
ENDBRANCH  10  11
ENDBRANCH   1  10
TORSDOF 6
ENDMDL
