REMARK  6 active torsions:
REMARK  status: ('A' for Active; 'I' for Inactive)
REMARK       I    between atoms: C_8  and  N_21 
REMARK    1  A    between atoms: N_12  and  C_13 
REMARK    2  A    between atoms: C_13  and  C_14 
REMARK    3  A    between atoms: C_16  and  C_17 
REMARK    4  A    between atoms: C_16  and  C_19 
REMARK    5  A    between atoms: C_17  and  O_18 
REMARK    6  A    between atoms: C_19  and  O_20 
ROOT
HETATM    1  C   UNK N   1       0.543  -0.297  -0.206  0.00  0.00     0.190 A 
HETATM    2  N   UNK N   1       1.327   0.821  -0.226  0.00  0.00    -0.344 N 
ATOM      3  HN  UNK N   1       1.028   1.794  -0.280  1.00  0.00     0.167 HD
HETATM    4  C   UNK N   1       2.585   0.346  -0.156  0.00  0.00     0.148 A 
HETATM    5  C   UNK N   1       3.795   1.021  -0.102  0.00  0.00     0.290 A 
HETATM    6  O   UNK N   1       3.844   2.239  -0.120  0.00  0.00    -0.265 OA
HETATM    7  N   UNK N   1       4.948   0.272  -0.015  0.00  0.00    -0.154 N 
HETATM    8  C   UNK N   1       4.896  -1.101   0.025  0.00  0.00     0.680 A 
HETATM    9  N   UNK N   1       3.689  -1.749  -0.014  0.00  0.00    -0.174 N 
ATOM     10  HN  UNK N   1       3.639  -2.766   0.028  1.00  0.00     0.186 HD
HETATM   11  C   UNK N   1       2.565  -1.001  -0.110  0.00  0.00     0.161 A 
HETATM   12  N   UNK N   1       1.296  -1.425  -0.138  0.00  0.00    -0.302 N 
HETATM   13  N   UNK N   1       6.088  -1.845   0.109  0.00  0.00    -0.234 N 
HETATM   14  H   UNK N   1       5.821   0.726   0.020  0.00  0.00     0.187 HD
HETATM   15  H   UNK N   1       6.054  -2.828   0.168  0.00  0.00     0.174 HD
HETATM   16  H   UNK N   1       6.957  -1.383   0.109  0.00  0.00     0.174 HD
ENDROOT
BRANCH  12  17
HETATM   17  C   UNK N   1       0.864  -2.785   0.026  0.00  0.00     0.103 C 
BRANCH  17  18
HETATM   18  C   UNK N   1      -0.425  -3.138   0.079  0.00  0.00    -0.050 A 
HETATM   19  C   UNK N   1      -1.053  -4.287   0.554  0.00  0.00     0.055 A 
HETATM   20  C   UNK N   1      -1.833  -2.906   0.069  0.00  0.00     0.031 A 
BRANCH  20  21
HETATM   21  C   UNK N   1      -2.891  -3.505  -0.859  0.00  0.00     0.180 C 
BRANCH  21  22
HETATM   22  O   UNK N   1      -4.134  -2.886  -0.690  0.00  0.00    -0.400 OA
HETATM   23  H   UNK N   1      -4.193  -1.925  -0.573  0.00  0.00     0.209 HD
ENDBRANCH  21  22
ENDBRANCH  20  21
BRANCH  20  24
HETATM   24  C   UNK N   1      -2.261  -1.960   1.174  0.00  0.00     0.180 C 
BRANCH  24  25
HETATM   25  O   UNK N   1      -2.703  -0.765   0.599  0.00  0.00    -0.400 OA
HETATM   26  H   UNK N   1      -2.138  -0.085   0.199  0.00  0.00     0.209 HD
ENDBRANCH  24  25
ENDBRANCH  20  24
ENDBRANCH  17  18
ENDBRANCH  12  17
TORSDOF 6
