MODEL 1
REMARK VINA RESULT:      -9.0      0.000      0.000
REMARK  4 active torsions:
REMARK  status: ('A' for Active; 'I' for Inactive)
REMARK    1  A    between atoms: C_7  and  N_8 
REMARK    2  A    between atoms: C_17  and  C_18 
REMARK    3  A    between atoms: C_17  and  O_33 
REMARK       I    between atoms: C_26  and  N_28 
REMARK       I    between atoms: N_28  and  C_29 
REMARK    4  A    between atoms: C_29  and  O_31 
ROOT
HETATM    1  N   UNK N   1      31.964  16.152   6.096  0.00  0.00    -0.272 N 
HETATM    2  C   UNK N   1      30.595  16.238   6.131  0.00  0.00     0.262 A 
HETATM    3  O   UNK N   1      29.842  15.819   5.266  0.00  0.00    -0.267 OA
HETATM    4  C   UNK N   1      30.154  16.992   7.253  0.00  0.00     0.044 A 
HETATM    5  C   UNK N   1      28.864  17.385   7.612  0.00  0.00     0.018 A 
HETATM    6  C   UNK N   1      28.715  18.202   8.742  0.00  0.00     0.001 A 
HETATM    7  C   UNK N   1      29.848  18.616   9.469  0.00  0.00     0.001 A 
HETATM    8  C   UNK N   1      31.132  18.210   9.069  0.00  0.00     0.013 A 
HETATM    9  C   UNK N   1      31.259  17.381   7.946  0.00  0.00     0.018 A 
HETATM   10  C   UNK N   1      32.528  16.812   7.311  0.00  0.00     0.199 A 
ENDROOT
BRANCH  10  11
HETATM   11  C   UNK N   1      33.269  15.916   8.343  0.00  0.00     0.004 A 
HETATM   12  C   UNK N   1      32.701  14.661   8.729  0.00  0.00     0.015 A 
HETATM   13  C   UNK N   1      33.169  13.940   9.844  0.00  0.00     0.033 A 
HETATM   14  C   UNK N   1      34.210  14.500  10.567  0.00  0.00     0.076 A 
HETATM   15  C   UNK N   1      34.802  15.661  10.190  0.00  0.00     0.077 A 
HETATM   16  N   UNK N   1      34.742  14.070  11.722  0.00  0.00    -0.189 N 
HETATM   17  C   UNK N   1      34.365  16.396   9.091  0.00  0.00     0.045 A 
HETATM   18  N   UNK N   1      35.742  16.002  11.084  0.00  0.00    -0.189 N 
HETATM   19  C   UNK N   1      35.676  15.016  12.013  0.00  0.00     0.687 A 
ATOM     20  HN  UNK N   1      36.362  16.812  11.069  1.00  0.00     0.184 HD
HETATM   21  N   UNK N   1      36.423  15.062  13.221  0.00  0.00    -0.135 N 
HETATM   22  C   UNK N   1      36.169  14.305  14.321  0.00  0.00     0.378 C 
HETATM   23  H   UNK N   1      37.182  15.688  13.265  0.00  0.00     0.189 HD
HETATM   24  O   UNK N   1      35.235  13.511  14.331  0.00  0.00    -0.238 OA
HETATM   25  H   UNK N   1      34.512  13.263  12.237  0.00  0.00     0.184 HD
BRANCH  22  26
HETATM   26  O   UNK N   1      36.933  14.476  15.426  0.00  0.00    -0.308 OA
HETATM   27  C   UNK N   1      37.392  15.709  15.826  0.00  0.00     0.215 C 
ENDBRANCH  22  26
ENDBRANCH  10  11
BRANCH  10  28
HETATM   28  O   UNK N   1      33.332  17.890   6.941  0.00  0.00    -0.362 OA
HETATM   29  H   UNK N   1      33.816  18.724   6.837  0.00  0.00     0.213 HD
ENDBRANCH  10  28
BRANCH   1  30
HETATM   30  C   UNK N   1      32.676  15.686   4.895  0.00  0.00     0.049 A 
HETATM   31  C   UNK N   1      33.079  14.330   4.846  0.00  0.00     0.054 A 
HETATM   32  C   UNK N   1      33.664  13.753   3.722  0.00  0.00     0.036 A 
HETATM   33  C   UNK N   1      33.895  14.522   2.594  0.00  0.00     0.024 A 
HETATM   34 Cl   UNK N   1      34.038  12.042   3.708  0.00  0.00    -0.084 Cl
HETATM   35  C   UNK N   1      33.515  15.857   2.585  0.00  0.00     0.011 A 
HETATM   36  C   UNK N   1      32.893  16.450   3.693  0.00  0.00    -0.035 A 
HETATM   37  C   UNK N   1      32.441  17.839   3.467  0.00  0.00     0.050 C 
ENDBRANCH   1  30
TORSDOF 4
ENDMDL
MODEL 2
REMARK VINA RESULT:      -8.6      5.510     10.626
REMARK  4 active torsions:
REMARK  status: ('A' for Active; 'I' for Inactive)
REMARK    1  A    between atoms: C_7  and  N_8 
REMARK    2  A    between atoms: C_17  and  C_18 
REMARK    3  A    between atoms: C_17  and  O_33 
REMARK       I    between atoms: C_26  and  N_28 
REMARK       I    between atoms: N_28  and  C_29 
REMARK    4  A    between atoms: C_29  and  O_31 
ROOT
HETATM    1  N   UNK N   1      30.182  15.971   5.303  0.00  0.00    -0.272 N 
HETATM    2  C   UNK N   1      30.311  14.608   5.220  0.00  0.00     0.262 A 
HETATM    3  O   UNK N   1      30.912  13.907   6.021  0.00  0.00    -0.267 OA
HETATM    4  C   UNK N   1      29.759  14.110   4.008  0.00  0.00     0.044 A 
HETATM    5  C   UNK N   1      29.755  12.813   3.495  0.00  0.00     0.018 A 
HETATM    6  C   UNK N   1      29.201  12.608   2.223  0.00  0.00     0.001 A 
HETATM    7  C   UNK N   1      28.686  13.696   1.494  0.00  0.00     0.001 A 
HETATM    8  C   UNK N   1      28.719  14.992   2.038  0.00  0.00     0.013 A 
HETATM    9  C   UNK N   1      29.262  15.172   3.317  0.00  0.00     0.018 A 
HETATM   10  C   UNK N   1      29.418  16.464   4.120  0.00  0.00     0.199 A 
ENDROOT
BRANCH  10  11
HETATM   11  C   UNK N   1      28.017  17.091   4.373  0.00  0.00     0.004 A 
HETATM   12  C   UNK N   1      26.978  16.294   4.949  0.00  0.00     0.015 A 
HETATM   13  C   UNK N   1      25.632  16.707   4.949  0.00  0.00     0.033 A 
HETATM   14  C   UNK N   1      25.346  17.927   4.360  0.00  0.00     0.076 A 
HETATM   15  C   UNK N   1      26.320  18.727   3.856  0.00  0.00     0.077 A 
HETATM   16  N   UNK N   1      24.142  18.475   4.132  0.00  0.00    -0.189 N 
HETATM   17  C   UNK N   1      27.660  18.349   3.843  0.00  0.00     0.045 A 
HETATM   18  N   UNK N   1      25.770  19.819   3.304  0.00  0.00    -0.189 N 
HETATM   19  C   UNK N   1      24.438  19.633   3.480  0.00  0.00     0.687 A 
ATOM     20  HN  UNK N   1      26.242  20.605   2.858  1.00  0.00     0.184 HD
HETATM   21  N   UNK N   1      23.470  20.507   2.915  0.00  0.00    -0.135 N 
HETATM   22  C   UNK N   1      22.151  20.213   2.767  0.00  0.00     0.378 C 
HETATM   23  H   UNK N   1      23.777  21.391   2.609  0.00  0.00     0.189 HD
HETATM   24  O   UNK N   1      21.709  19.127   3.123  0.00  0.00    -0.238 OA
HETATM   25  H   UNK N   1      23.255  18.125   4.377  0.00  0.00     0.184 HD
BRANCH  22  26
HETATM   26  O   UNK N   1      21.340  21.120   2.172  0.00  0.00    -0.308 OA
HETATM   27  C   UNK N   1      20.726  20.886   0.964  0.00  0.00     0.215 C 
ENDBRANCH  22  26
ENDBRANCH  10  11
BRANCH  10  28
HETATM   28  O   UNK N   1      30.207  17.334   3.367  0.00  0.00    -0.362 OA
HETATM   29  H   UNK N   1      30.897  17.881   2.959  0.00  0.00     0.213 HD
ENDBRANCH  10  28
BRANCH   1  30
HETATM   30  C   UNK N   1      30.925  16.754   6.304  0.00  0.00     0.049 A 
HETATM   31  C   UNK N   1      30.216  17.233   7.433  0.00  0.00     0.054 A 
HETATM   32  C   UNK N   1      30.833  17.892   8.492  0.00  0.00     0.036 A 
HETATM   33  C   UNK N   1      32.197  18.126   8.457  0.00  0.00     0.024 A 
HETATM   34 Cl   UNK N   1      29.899  18.360   9.898  0.00  0.00    -0.084 Cl
HETATM   35  C   UNK N   1      32.942  17.674   7.376  0.00  0.00     0.011 A 
HETATM   36  C   UNK N   1      32.348  16.977   6.315  0.00  0.00    -0.035 A 
HETATM   37  C   UNK N   1      33.305  16.459   5.315  0.00  0.00     0.050 C 
ENDBRANCH   1  30
TORSDOF 4
ENDMDL
MODEL 3
REMARK VINA RESULT:      -8.3      3.663      9.457
REMARK  4 active torsions:
REMARK  status: ('A' for Active; 'I' for Inactive)
REMARK    1  A    between atoms: C_7  and  N_8 
REMARK    2  A    between atoms: C_17  and  C_18 
REMARK    3  A    between atoms: C_17  and  O_33 
REMARK       I    between atoms: C_26  and  N_28 
REMARK       I    between atoms: N_28  and  C_29 
REMARK    4  A    between atoms: C_29  and  O_31 
ROOT
HETATM    1  N   UNK N   1      36.582  12.838  12.442  0.00  0.00    -0.272 N 
HETATM    2  C   UNK N   1      37.501  11.911  12.020  0.00  0.00     0.262 A 
HETATM    3  O   UNK N   1      37.882  10.950  12.671  0.00  0.00    -0.267 OA
HETATM    4  C   UNK N   1      38.060  12.274  10.764  0.00  0.00     0.044 A 
HETATM    5  C   UNK N   1      39.076  11.662  10.029  0.00  0.00     0.018 A 
HETATM    6  C   UNK N   1      39.494  12.280   8.841  0.00  0.00     0.001 A 
HETATM    7  C   UNK N   1      38.904  13.490   8.430  0.00  0.00     0.001 A 
HETATM    8  C   UNK N   1      37.892  14.083   9.203  0.00  0.00     0.013 A 
HETATM    9  C   UNK N   1      37.478  13.442  10.379  0.00  0.00     0.018 A 
HETATM   10  C   UNK N   1      36.414  13.877  11.386  0.00  0.00     0.199 A 
ENDROOT
BRANCH  10  11
HETATM   11  C   UNK N   1      35.033  13.971  10.676  0.00  0.00     0.004 A 
HETATM   12  C   UNK N   1      34.529  12.842   9.956  0.00  0.00     0.015 A 
HETATM   13  C   UNK N   1      33.437  12.945   9.074  0.00  0.00     0.033 A 
HETATM   14  C   UNK N   1      32.863  14.197   8.922  0.00  0.00     0.076 A 
HETATM   15  C   UNK N   1      33.286  15.271   9.635  0.00  0.00     0.077 A 
HETATM   16  N   UNK N   1      31.902  14.569   8.062  0.00  0.00    -0.189 N 
HETATM   17  C   UNK N   1      34.361  15.201  10.516  0.00  0.00     0.045 A 
HETATM   18  N   UNK N   1      32.599  16.361   9.263  0.00  0.00    -0.189 N 
HETATM   19  C   UNK N   1      31.767  15.903   8.295  0.00  0.00     0.687 A 
ATOM     20  HN  UNK N   1      32.681  17.311   9.625  1.00  0.00     0.184 HD
HETATM   21  N   UNK N   1      30.944  16.773   7.529  0.00  0.00    -0.135 N 
HETATM   22  C   UNK N   1      30.350  16.443   6.352  0.00  0.00     0.378 C 
HETATM   23  H   UNK N   1      30.793  17.682   7.876  0.00  0.00     0.189 HD
HETATM   24  O   UNK N   1      30.505  15.330   5.864  0.00  0.00    -0.238 OA
HETATM   25  H   UNK N   1      31.411  14.011   7.416  0.00  0.00     0.184 HD
BRANCH  22  26
HETATM   26  O   UNK N   1      29.624  17.381   5.698  0.00  0.00    -0.308 OA
HETATM   27  C   UNK N   1      28.502  17.962   6.243  0.00  0.00     0.215 C 
ENDBRANCH  22  26
ENDBRANCH  10  11
BRANCH  10  28
HETATM   28  O   UNK N   1      36.788  15.128  11.879  0.00  0.00    -0.362 OA
HETATM   29  H   UNK N   1      36.986  16.061  12.054  0.00  0.00     0.213 HD
ENDBRANCH  10  28
BRANCH   1  30
HETATM   30  C   UNK N   1      36.084  12.851  13.828  0.00  0.00     0.049 A 
HETATM   31  C   UNK N   1      36.638  13.797  14.724  0.00  0.00     0.054 A 
HETATM   32  C   UNK N   1      36.173  13.971  16.024  0.00  0.00     0.036 A 
HETATM   33  C   UNK N   1      35.140  13.181  16.499  0.00  0.00     0.024 A 
HETATM   34 Cl   UNK N   1      36.844  15.236  17.033  0.00  0.00    -0.084 Cl
HETATM   35  C   UNK N   1      34.557  12.239  15.661  0.00  0.00     0.011 A 
HETATM   36  C   UNK N   1      34.986  12.071  14.337  0.00  0.00    -0.035 A 
HETATM   37  C   UNK N   1      34.173  11.118  13.551  0.00  0.00     0.050 C 
ENDBRANCH   1  30
TORSDOF 4
ENDMDL
MODEL 4
REMARK VINA RESULT:      -8.3      1.761      2.204
REMARK  4 active torsions:
REMARK  status: ('A' for Active; 'I' for Inactive)
REMARK    1  A    between atoms: C_7  and  N_8 
REMARK    2  A    between atoms: C_17  and  C_18 
REMARK    3  A    between atoms: C_17  and  O_33 
REMARK       I    between atoms: C_26  and  N_28 
REMARK       I    between atoms: N_28  and  C_29 
REMARK    4  A    between atoms: C_29  and  O_31 
ROOT
HETATM    1  N   UNK N   1      31.916  16.110   6.421  0.00  0.00    -0.272 N 
HETATM    2  C   UNK N   1      30.546  16.041   6.447  0.00  0.00     0.262 A 
HETATM    3  O   UNK N   1      29.857  15.416   5.655  0.00  0.00    -0.267 OA
HETATM    4  C   UNK N   1      30.006  16.895   7.448  0.00  0.00     0.044 A 
HETATM    5  C   UNK N   1      28.675  17.186   7.749  0.00  0.00     0.018 A 
HETATM    6  C   UNK N   1      28.418  18.137   8.749  0.00  0.00     0.001 A 
HETATM    7  C   UNK N   1      29.486  18.780   9.402  0.00  0.00     0.001 A 
HETATM    8  C   UNK N   1      30.814  18.470   9.062  0.00  0.00     0.013 A 
HETATM    9  C   UNK N   1      31.049  17.506   8.072  0.00  0.00     0.018 A 
HETATM   10  C   UNK N   1      32.383  17.000   7.523  0.00  0.00     0.199 A 
ENDROOT
BRANCH  10  11
HETATM   11  C   UNK N   1      33.208  16.356   8.673  0.00  0.00     0.004 A 
HETATM   12  C   UNK N   1      34.334  17.054   9.215  0.00  0.00     0.015 A 
HETATM   13  C   UNK N   1      35.275  16.422  10.050  0.00  0.00     0.033 A 
HETATM   14  C   UNK N   1      35.071  15.080  10.329  0.00  0.00     0.076 A 
HETATM   15  C   UNK N   1      33.982  14.410   9.874  0.00  0.00     0.077 A 
HETATM   16  N   UNK N   1      35.880  14.239  10.992  0.00  0.00    -0.189 N 
HETATM   17  C   UNK N   1      33.033  15.007   9.048  0.00  0.00     0.045 A 
HETATM   18  N   UNK N   1      34.054  13.123  10.244  0.00  0.00    -0.189 N 
HETATM   19  C   UNK N   1      35.229  13.047  10.918  0.00  0.00     0.687 A 
ATOM     20  HN  UNK N   1      33.383  12.377  10.063  1.00  0.00     0.184 HD
HETATM   21  N   UNK N   1      35.761  11.811  11.375  0.00  0.00    -0.135 N 
HETATM   22  C   UNK N   1      37.052  11.614  11.751  0.00  0.00     0.378 C 
HETATM   23  H   UNK N   1      35.150  11.040  11.422  0.00  0.00     0.189 HD
HETATM   24  O   UNK N   1      37.863  12.532  11.708  0.00  0.00    -0.238 OA
HETATM   25  H   UNK N   1      36.741  14.437  11.428  0.00  0.00     0.184 HD
BRANCH  22  26
HETATM   26  O   UNK N   1      37.444  10.373  12.127  0.00  0.00    -0.308 OA
HETATM   27  C   UNK N   1      37.558  10.000  13.446  0.00  0.00     0.215 C 
ENDBRANCH  22  26
ENDBRANCH  10  11
BRANCH  10  28
HETATM   28  O   UNK N   1      33.065  18.098   6.996  0.00  0.00    -0.362 OA
HETATM   29  H   UNK N   1      33.682  18.738   6.610  0.00  0.00     0.213 HD
ENDBRANCH  10  28
BRANCH   1  30
HETATM   30  C   UNK N   1      32.692  15.557   5.298  0.00  0.00     0.049 A 
HETATM   31  C   UNK N   1      33.207  14.245   5.429  0.00  0.00     0.054 A 
HETATM   32  C   UNK N   1      33.864  13.583   4.396  0.00  0.00     0.036 A 
HETATM   33  C   UNK N   1      34.058  14.220   3.182  0.00  0.00     0.024 A 
HETATM   34 Cl   UNK N   1      34.379  11.922   4.606  0.00  0.00    -0.084 Cl
HETATM   35  C   UNK N   1      33.569  15.506   2.998  0.00  0.00     0.011 A 
HETATM   36  C   UNK N   1      32.874  16.180   4.012  0.00  0.00    -0.035 A 
HETATM   37  C   UNK N   1      32.315  17.485   3.604  0.00  0.00     0.050 C 
ENDBRANCH   1  30
TORSDOF 4
ENDMDL
MODEL 5
REMARK VINA RESULT:      -8.3     13.721     17.066
REMARK  4 active torsions:
REMARK  status: ('A' for Active; 'I' for Inactive)
REMARK    1  A    between atoms: C_7  and  N_8 
REMARK    2  A    between atoms: C_17  and  C_18 
REMARK    3  A    between atoms: C_17  and  O_33 
REMARK       I    between atoms: C_26  and  N_28 
REMARK       I    between atoms: N_28  and  C_29 
REMARK    4  A    between atoms: C_29  and  O_31 
ROOT
HETATM    1  N   UNK N   1      27.522  26.125  -5.116  0.00  0.00    -0.272 N 
HETATM    2  C   UNK N   1      27.380  26.342  -6.464  0.00  0.00     0.262 A 
HETATM    3  O   UNK N   1      27.691  27.369  -7.048  0.00  0.00    -0.267 OA
HETATM    4  C   UNK N   1      26.705  25.261  -7.092  0.00  0.00     0.044 A 
HETATM    5  C   UNK N   1      26.287  25.118  -8.416  0.00  0.00     0.018 A 
HETATM    6  C   UNK N   1      25.562  23.966  -8.758  0.00  0.00     0.001 A 
HETATM    7  C   UNK N   1      25.261  23.004  -7.776  0.00  0.00     0.001 A 
HETATM    8  C   UNK N   1      25.688  23.189  -6.449  0.00  0.00     0.013 A 
HETATM    9  C   UNK N   1      26.424  24.339  -6.132  0.00  0.00     0.018 A 
HETATM   10  C   UNK N   1      26.992  24.771  -4.780  0.00  0.00     0.199 A 
ENDROOT
BRANCH  10  11
HETATM   11  C   UNK N   1      28.003  23.703  -4.275  0.00  0.00     0.004 A 
HETATM   12  C   UNK N   1      28.243  23.562  -2.872  0.00  0.00     0.015 A 
HETATM   13  C   UNK N   1      29.330  22.822  -2.370  0.00  0.00     0.033 A 
HETATM   14  C   UNK N   1      30.172  22.229  -3.297  0.00  0.00     0.076 A 
HETATM   15  C   UNK N   1      29.935  22.300  -4.631  0.00  0.00     0.077 A 
HETATM   16  N   UNK N   1      31.327  21.581  -3.073  0.00  0.00    -0.189 N 
HETATM   17  C   UNK N   1      28.868  23.023  -5.158  0.00  0.00     0.045 A 
HETATM   18  N   UNK N   1      30.922  21.688  -5.301  0.00  0.00    -0.189 N 
HETATM   19  C   UNK N   1      31.763  21.266  -4.323  0.00  0.00     0.687 A 
ATOM     20  HN  UNK N   1      31.019  21.567  -6.309  1.00  0.00     0.184 HD
HETATM   21  N   UNK N   1      33.023  20.676  -4.609  0.00  0.00    -0.135 N 
HETATM   22  C   UNK N   1      34.037  20.537  -3.714  0.00  0.00     0.378 C 
HETATM   23  H   UNK N   1      33.174  20.343  -5.524  0.00  0.00     0.189 HD
HETATM   24  O   UNK N   1      33.913  20.938  -2.563  0.00  0.00    -0.238 OA
HETATM   25  H   UNK N   1      31.757  21.381  -2.210  0.00  0.00     0.184 HD
BRANCH  22  26
HETATM   26  O   UNK N   1      35.207  19.995  -4.127  0.00  0.00    -0.308 OA
HETATM   27  C   UNK N   1      35.277  19.074  -5.147  0.00  0.00     0.215 C 
ENDBRANCH  22  26
ENDBRANCH  10  11
BRANCH  10  28
HETATM   28  O   UNK N   1      25.923  24.882  -3.891  0.00  0.00    -0.362 OA
HETATM   29  H   UNK N   1      25.074  24.909  -3.422  0.00  0.00     0.213 HD
ENDBRANCH  10  28
BRANCH   1  30
HETATM   30  C   UNK N   1      27.916  27.208  -4.200  0.00  0.00     0.049 A 
HETATM   31  C   UNK N   1      29.284  27.317  -3.849  0.00  0.00     0.054 A 
HETATM   32  C   UNK N   1      29.787  28.359  -3.077  0.00  0.00     0.036 A 
HETATM   33  C   UNK N   1      28.932  29.336  -2.596  0.00  0.00     0.024 A 
HETATM   34 Cl   UNK N   1      31.509  28.476  -2.776  0.00  0.00    -0.084 Cl
HETATM   35  C   UNK N   1      27.582  29.281  -2.914  0.00  0.00     0.011 A 
HETATM   36  C   UNK N   1      27.058  28.259  -3.719  0.00  0.00    -0.035 A 
HETATM   37  C   UNK N   1      25.630  28.426  -4.061  0.00  0.00     0.050 C 
ENDBRANCH   1  30
TORSDOF 4
ENDMDL
MODEL 6
REMARK VINA RESULT:      -8.0      2.828      4.174
REMARK  4 active torsions:
REMARK  status: ('A' for Active; 'I' for Inactive)
REMARK    1  A    between atoms: C_7  and  N_8 
REMARK    2  A    between atoms: C_17  and  C_18 
REMARK    3  A    between atoms: C_17  and  O_33 
REMARK       I    between atoms: C_26  and  N_28 
REMARK       I    between atoms: N_28  and  C_29 
REMARK    4  A    between atoms: C_29  and  O_31 
ROOT
HETATM    1  N   UNK N   1      29.578  15.447   4.311  0.00  0.00    -0.272 N 
HETATM    2  C   UNK N   1      28.280  15.528   4.750  0.00  0.00     0.262 A 
HETATM    3  O   UNK N   1      27.512  14.585   4.853  0.00  0.00    -0.267 OA
HETATM    4  C   UNK N   1      27.890  16.880   4.957  0.00  0.00     0.044 A 
HETATM    5  C   UNK N   1      26.648  17.405   5.314  0.00  0.00     0.018 A 
HETATM    6  C   UNK N   1      26.515  18.800   5.376  0.00  0.00     0.001 A 
HETATM    7  C   UNK N   1      27.610  19.628   5.066  0.00  0.00     0.001 A 
HETATM    8  C   UNK N   1      28.843  19.062   4.697  0.00  0.00     0.013 A 
HETATM    9  C   UNK N   1      28.959  17.666   4.657  0.00  0.00     0.018 A 
HETATM   10  C   UNK N   1      30.174  16.815   4.286  0.00  0.00     0.199 A 
ENDROOT
BRANCH  10  11
HETATM   11  C   UNK N   1      31.339  17.115   5.271  0.00  0.00     0.004 A 
HETATM   12  C   UNK N   1      32.674  17.242   4.772  0.00  0.00     0.015 A 
HETATM   13  C   UNK N   1      33.794  17.236   5.625  0.00  0.00     0.033 A 
HETATM   14  C   UNK N   1      33.554  17.098   6.983  0.00  0.00     0.076 A 
HETATM   15  C   UNK N   1      32.296  17.032   7.486  0.00  0.00     0.077 A 
HETATM   16  N   UNK N   1      34.450  16.947   7.971  0.00  0.00    -0.189 N 
HETATM   17  C   UNK N   1      31.168  17.037   6.670  0.00  0.00     0.045 A 
HETATM   18  N   UNK N   1      32.348  16.852   8.814  0.00  0.00    -0.189 N 
HETATM   19  C   UNK N   1      33.677  16.794   9.080  0.00  0.00     0.687 A 
ATOM     20  HN  UNK N   1      31.570  16.776   9.470  1.00  0.00     0.184 HD
HETATM   21  N   UNK N   1      34.178  16.476  10.371  0.00  0.00    -0.135 N 
HETATM   22  C   UNK N   1      35.451  16.082  10.634  0.00  0.00     0.378 C 
HETATM   23  H   UNK N   1      33.556  16.546  11.133  0.00  0.00     0.189 HD
HETATM   24  O   UNK N   1      36.270  15.969   9.730  0.00  0.00    -0.238 OA
HETATM   25  H   UNK N   1      35.433  16.946   7.910  0.00  0.00     0.184 HD
BRANCH  22  26
HETATM   26  O   UNK N   1      35.790  15.766  11.907  0.00  0.00    -0.308 OA
HETATM   27  C   UNK N   1      35.696  14.486  12.403  0.00  0.00     0.215 C 
ENDBRANCH  22  26
ENDBRANCH  10  11
BRANCH  10  28
HETATM   28  O   UNK N   1      30.543  17.154   2.984  0.00  0.00    -0.362 OA
HETATM   29  H   UNK N   1      30.822  17.201   2.057  0.00  0.00     0.213 HD
ENDBRANCH  10  28
BRANCH   1  30
HETATM   30  C   UNK N   1      30.122  14.201   3.747  0.00  0.00     0.049 A 
HETATM   31  C   UNK N   1      29.699  13.817   2.452  0.00  0.00     0.054 A 
HETATM   32  C   UNK N   1      30.224  12.718   1.777  0.00  0.00     0.036 A 
HETATM   33  C   UNK N   1      31.187  11.932   2.386  0.00  0.00     0.024 A 
HETATM   34 Cl   UNK N   1      29.721  12.374   0.135  0.00  0.00    -0.084 Cl
HETATM   35  C   UNK N   1      31.642  12.265   3.655  0.00  0.00     0.011 A 
HETATM   36  C   UNK N   1      31.153  13.387   4.339  0.00  0.00    -0.035 A 
HETATM   37  C   UNK N   1      31.837  13.665   5.619  0.00  0.00     0.050 C 
ENDBRANCH   1  30
TORSDOF 4
ENDMDL
MODEL 7
REMARK VINA RESULT:      -7.8     10.577     12.703
REMARK  4 active torsions:
REMARK  status: ('A' for Active; 'I' for Inactive)
REMARK    1  A    between atoms: C_7  and  N_8 
REMARK    2  A    between atoms: C_17  and  C_18 
REMARK    3  A    between atoms: C_17  and  O_33 
REMARK       I    between atoms: C_26  and  N_28 
REMARK       I    between atoms: N_28  and  C_29 
REMARK    4  A    between atoms: C_29  and  O_31 
ROOT
HETATM    1  N   UNK N   1      22.582  12.103   6.406  0.00  0.00    -0.272 N 
HETATM    2  C   UNK N   1      23.305  11.526   7.420  0.00  0.00     0.262 A 
HETATM    3  O   UNK N   1      24.192  10.700   7.270  0.00  0.00    -0.267 OA
HETATM    4  C   UNK N   1      22.809  11.918   8.694  0.00  0.00     0.044 A 
HETATM    5  C   UNK N   1      23.196  11.501   9.968  0.00  0.00     0.018 A 
HETATM    6  C   UNK N   1      22.479  11.995  11.069  0.00  0.00     0.001 A 
HETATM    7  C   UNK N   1      21.394  12.869  10.870  0.00  0.00     0.001 A 
HETATM    8  C   UNK N   1      21.026  13.256   9.570  0.00  0.00     0.013 A 
HETATM    9  C   UNK N   1      21.764  12.764   8.485  0.00  0.00     0.018 A 
HETATM   10  C   UNK N   1      21.567  13.027   6.992  0.00  0.00     0.199 A 
ENDROOT
BRANCH  10  11
HETATM   11  C   UNK N   1      21.721  14.547   6.706  0.00  0.00     0.004 A 
HETATM   12  C   UNK N   1      20.555  15.365   6.571  0.00  0.00     0.015 A 
HETATM   13  C   UNK N   1      20.613  16.669   6.046  0.00  0.00     0.033 A 
HETATM   14  C   UNK N   1      21.857  17.139   5.656  0.00  0.00     0.076 A 
HETATM   15  C   UNK N   1      22.986  16.405   5.826  0.00  0.00     0.077 A 
HETATM   16  N   UNK N   1      22.150  18.287   5.026  0.00  0.00    -0.189 N 
HETATM   17  C   UNK N   1      22.962  15.113   6.344  0.00  0.00     0.045 A 
HETATM   18  N   UNK N   1      24.038  17.068   5.323  0.00  0.00    -0.189 N 
HETATM   19  C   UNK N   1      23.495  18.210   4.833  0.00  0.00     0.687 A 
ATOM     20  HN  UNK N   1      25.017  16.781   5.312  1.00  0.00     0.184 HD
HETATM   21  N   UNK N   1      24.254  19.150   4.085  0.00  0.00    -0.135 N 
HETATM   22  C   UNK N   1      23.726  20.124   3.298  0.00  0.00     0.378 C 
HETATM   23  H   UNK N   1      25.236  19.092   4.140  0.00  0.00     0.189 HD
HETATM   24  O   UNK N   1      22.512  20.245   3.182  0.00  0.00    -0.238 OA
HETATM   25  H   UNK N   1      21.538  19.013   4.764  0.00  0.00     0.184 HD
BRANCH  22  26
HETATM   26  O   UNK N   1      24.563  20.931   2.602  0.00  0.00    -0.308 OA
HETATM   27  C   UNK N   1      25.932  20.831   2.691  0.00  0.00     0.215 C 
ENDBRANCH  22  26
ENDBRANCH  10  11
BRANCH  10  28
HETATM   28  O   UNK N   1      20.281  12.600   6.657  0.00  0.00    -0.362 OA
HETATM   29  H   UNK N   1      19.338  12.385   6.590  0.00  0.00     0.213 HD
ENDBRANCH  10  28
BRANCH   1  30
HETATM   30  C   UNK N   1      22.700  11.635   5.015  0.00  0.00     0.049 A 
HETATM   31  C   UNK N   1      23.609  12.308   4.163  0.00  0.00     0.054 A 
HETATM   32  C   UNK N   1      23.880  11.890   2.863  0.00  0.00     0.036 A 
HETATM   33  C   UNK N   1      23.228  10.783   2.345  0.00  0.00     0.024 A 
HETATM   34 Cl   UNK N   1      25.095  12.717   1.911  0.00  0.00    -0.084 Cl
HETATM   35  C   UNK N   1      22.330  10.083   3.139  0.00  0.00     0.011 A 
HETATM   36  C   UNK N   1      22.067  10.465   4.463  0.00  0.00    -0.035 A 
HETATM   37  C   UNK N   1      21.186   9.537   5.201  0.00  0.00     0.050 C 
ENDBRANCH   1  30
TORSDOF 4
ENDMDL
MODEL 8
REMARK VINA RESULT:      -7.7      5.396     10.052
REMARK  4 active torsions:
REMARK  status: ('A' for Active; 'I' for Inactive)
REMARK    1  A    between atoms: C_7  and  N_8 
REMARK    2  A    between atoms: C_17  and  C_18 
REMARK    3  A    between atoms: C_17  and  O_33 
REMARK       I    between atoms: C_26  and  N_28 
REMARK       I    between atoms: N_28  and  C_29 
REMARK    4  A    between atoms: C_29  and  O_31 
ROOT
HETATM    1  N   UNK N   1      29.852  15.781   5.178  0.00  0.00    -0.272 N 
HETATM    2  C   UNK N   1      30.146  14.442   5.120  0.00  0.00     0.262 A 
HETATM    3  O   UNK N   1      30.723  13.809   5.991  0.00  0.00    -0.267 OA
HETATM    4  C   UNK N   1      29.803  13.893   3.854  0.00  0.00     0.044 A 
HETATM    5  C   UNK N   1      30.010  12.608   3.352  0.00  0.00     0.018 A 
HETATM    6  C   UNK N   1      29.639  12.350   2.024  0.00  0.00     0.001 A 
HETATM    7  C   UNK N   1      29.093  13.378   1.232  0.00  0.00     0.001 A 
HETATM    8  C   UNK N   1      28.911  14.664   1.768  0.00  0.00     0.013 A 
HETATM    9  C   UNK N   1      29.274  14.896   3.102  0.00  0.00     0.018 A 
HETATM   10  C   UNK N   1      29.182  16.191   3.910  0.00  0.00     0.199 A 
ENDROOT
BRANCH  10  11
HETATM   11  C   UNK N   1      27.699  16.651   3.990  0.00  0.00     0.004 A 
HETATM   12  C   UNK N   1      27.387  18.047   3.957  0.00  0.00     0.015 A 
HETATM   13  C   UNK N   1      26.112  18.536   4.299  0.00  0.00     0.033 A 
HETATM   14  C   UNK N   1      25.159  17.604   4.678  0.00  0.00     0.076 A 
HETATM   15  C   UNK N   1      25.413  16.271   4.665  0.00  0.00     0.077 A 
HETATM   16  N   UNK N   1      23.925  17.829   5.158  0.00  0.00    -0.189 N 
HETATM   17  C   UNK N   1      26.662  15.756   4.329  0.00  0.00     0.045 A 
HETATM   18  N   UNK N   1      24.344  15.601   5.120  0.00  0.00    -0.189 N 
HETATM   19  C   UNK N   1      23.454  16.580   5.422  0.00  0.00     0.687 A 
ATOM     20  HN  UNK N   1      24.227  14.593   5.217  1.00  0.00     0.184 HD
HETATM   21  N   UNK N   1      22.218  16.307   6.069  0.00  0.00    -0.135 N 
HETATM   22  C   UNK N   1      21.444  17.237   6.688  0.00  0.00     0.378 C 
HETATM   23  H   UNK N   1      21.898  15.376   6.068  0.00  0.00     0.189 HD
HETATM   24  O   UNK N   1      21.791  18.412   6.729  0.00  0.00    -0.238 OA
HETATM   25  H   UNK N   1      23.468  18.692   5.287  0.00  0.00     0.184 HD
BRANCH  22  26
HETATM   26  O   UNK N   1      20.307  16.838   7.305  0.00  0.00    -0.308 OA
HETATM   27  C   UNK N   1      19.284  16.205   6.636  0.00  0.00     0.215 C 
ENDBRANCH  22  26
ENDBRANCH  10  11
BRANCH  10  28
HETATM   28  O   UNK N   1      29.950  17.152   3.251  0.00  0.00    -0.362 OA
HETATM   29  H   UNK N   1      30.453  17.925   2.950  0.00  0.00     0.213 HD
ENDBRANCH  10  28
BRANCH   1  30
HETATM   30  C   UNK N   1      30.375  16.636   6.257  0.00  0.00     0.049 A 
HETATM   31  C   UNK N   1      29.486  17.021   7.289  0.00  0.00     0.054 A 
HETATM   32  C   UNK N   1      29.892  17.739   8.410  0.00  0.00     0.036 A 
HETATM   33  C   UNK N   1      31.215  18.129   8.537  0.00  0.00     0.024 A 
HETATM   34 Cl   UNK N   1      28.750  18.085   9.692  0.00  0.00    -0.084 Cl
HETATM   35  C   UNK N   1      32.130  17.774   7.555  0.00  0.00     0.011 A 
HETATM   36  C   UNK N   1      31.751  17.022   6.435  0.00  0.00    -0.035 A 
HETATM   37  C   UNK N   1      32.873  16.626   5.559  0.00  0.00     0.050 C 
ENDBRANCH   1  30
TORSDOF 4
ENDMDL
MODEL 9
REMARK VINA RESULT:      -7.5      5.044      7.874
REMARK  4 active torsions:
REMARK  status: ('A' for Active; 'I' for Inactive)
REMARK    1  A    between atoms: C_7  and  N_8 
REMARK    2  A    between atoms: C_17  and  C_18 
REMARK    3  A    between atoms: C_17  and  O_33 
REMARK       I    between atoms: C_26  and  N_28 
REMARK       I    between atoms: N_28  and  C_29 
REMARK    4  A    between atoms: C_29  and  O_31 
ROOT
HETATM    1  N   UNK N   1      30.009  17.012   5.574  0.00  0.00    -0.272 N 
HETATM    2  C   UNK N   1      30.158  17.165   6.929  0.00  0.00     0.262 A 
HETATM    3  O   UNK N   1      29.242  17.262   7.732  0.00  0.00    -0.267 OA
HETATM    4  C   UNK N   1      31.526  17.324   7.283  0.00  0.00     0.044 A 
HETATM    5  C   UNK N   1      32.102  17.587   8.526  0.00  0.00     0.018 A 
HETATM    6  C   UNK N   1      33.491  17.776   8.583  0.00  0.00     0.001 A 
HETATM    7  C   UNK N   1      34.260  17.715   7.406  0.00  0.00     0.001 A 
HETATM    8  C   UNK N   1      33.643  17.460   6.170  0.00  0.00     0.013 A 
HETATM    9  C   UNK N   1      32.257  17.259   6.137  0.00  0.00     0.018 A 
HETATM   10  C   UNK N   1      31.357  16.973   4.934  0.00  0.00     0.199 A 
ENDROOT
BRANCH  10  11
HETATM   11  C   UNK N   1      31.799  15.645   4.257  0.00  0.00     0.004 A 
HETATM   12  C   UNK N   1      31.625  14.405   4.948  0.00  0.00     0.015 A 
HETATM   13  C   UNK N   1      32.245  13.216   4.520  0.00  0.00     0.033 A 
HETATM   14  C   UNK N   1      33.045  13.293   3.390  0.00  0.00     0.076 A 
HETATM   15  C   UNK N   1      33.182  14.444   2.685  0.00  0.00     0.077 A 
HETATM   16  N   UNK N   1      33.826  12.338   2.862  0.00  0.00    -0.189 N 
HETATM   17  C   UNK N   1      32.580  15.635   3.081  0.00  0.00     0.045 A 
HETATM   18  N   UNK N   1      34.043  14.256   1.674  0.00  0.00    -0.189 N 
HETATM   19  C   UNK N   1      34.427  12.963   1.813  0.00  0.00     0.687 A 
ATOM     20  HN  UNK N   1      34.340  14.928   0.966  1.00  0.00     0.184 HD
HETATM   21  N   UNK N   1      35.451  12.386   1.014  0.00  0.00    -0.135 N 
HETATM   22  C   UNK N   1      36.107  11.232   1.306  0.00  0.00     0.378 C 
HETATM   23  H   UNK N   1      35.704  12.857   0.186  0.00  0.00     0.189 HD
HETATM   24  O   UNK N   1      35.842  10.603   2.324  0.00  0.00    -0.238 OA
HETATM   25  H   UNK N   1      33.939  11.406   3.161  0.00  0.00     0.184 HD
BRANCH  22  26
HETATM   26  O   UNK N   1      37.094  10.812   0.480  0.00  0.00    -0.308 OA
HETATM   27  C   UNK N   1      37.757  11.662  -0.375  0.00  0.00     0.215 C 
ENDBRANCH  22  26
ENDBRANCH  10  11
BRANCH  10  28
HETATM   28  O   UNK N   1      31.495  18.039   4.044  0.00  0.00    -0.362 OA
HETATM   29  H   UNK N   1      31.642  18.644   3.300  0.00  0.00     0.213 HD
ENDBRANCH  10  28
BRANCH   1  30
HETATM   30  C   UNK N   1      28.691  17.125   4.928  0.00  0.00     0.049 A 
HETATM   31  C   UNK N   1      28.231  18.417   4.579  0.00  0.00     0.054 A 
HETATM   32  C   UNK N   1      27.052  18.637   3.872  0.00  0.00     0.036 A 
HETATM   33  C   UNK N   1      26.261  17.563   3.501  0.00  0.00     0.024 A 
HETATM   34 Cl   UNK N   1      26.608  20.261   3.390  0.00  0.00    -0.084 Cl
HETATM   35  C   UNK N   1      26.667  16.272   3.814  0.00  0.00     0.011 A 
HETATM   36  C   UNK N   1      27.868  16.025   4.494  0.00  0.00    -0.035 A 
HETATM   37  C   UNK N   1      28.207  14.594   4.631  0.00  0.00     0.050 C 
ENDBRANCH   1  30
TORSDOF 4
ENDMDL
