MODEL 1
REMARK VINA RESULT:      -7.7      0.000      0.000
REMARK  5 active torsions:
REMARK  status: ('A' for Active; 'I' for Inactive)
REMARK    1  A    between atoms: O_2  and  C_3 
REMARK    2  A    between atoms: C_13  and  C_5 
REMARK    3  A    between atoms: C_7  and  O_11 
REMARK    4  A    between atoms: C_8  and  O_9 
REMARK    5  A    between atoms: C_20  and  O_27 
ROOT
HETATM    1  C   UNK N   1      22.386  17.739   4.136  0.00  0.00     0.066 C 
HETATM    2  C   UNK N   1      23.868  18.188   4.332  0.00  0.00    -0.037 A 
HETATM    3  C   UNK N   1      24.797  17.337   4.979  0.00  0.00     0.048 A 
HETATM    4  C   UNK N   1      26.082  17.799   5.218  0.00  0.00     0.105 A 
HETATM    5  C   UNK N   1      26.489  19.010   4.842  0.00  0.00     0.105 A 
HETATM    6  C   UNK N   1      25.658  19.890   4.162  0.00  0.00     0.050 A 
HETATM    7  C   UNK N   1      24.335  19.484   3.885  0.00  0.00    -0.019 A 
HETATM    8  C   UNK N   1      23.459  20.436   3.108  0.00  0.00     0.158 C 
HETATM    9  C   UNK N   1      22.213  19.710   2.669  0.00  0.00     0.058 C 
HETATM   10  C   UNK N   1      21.512  18.978   3.791  0.00  0.00     0.107 C 
HETATM   11  C   UNK N   1      20.195  18.835   3.091  0.00  0.00     0.264 C 
HETATM   12  O   UNK N   1      19.271  18.146   3.483  0.00  0.00    -0.265 OA
HETATM   13  O   UNK N   1      20.045  19.679   2.060  0.00  0.00    -0.321 OA
HETATM   14  C   UNK N   1      21.155  20.461   1.873  0.00  0.00     0.187 C 
HETATM   15  O   UNK N   1      27.753  19.189   5.216  0.00  0.00    -0.323 OA
HETATM   16  C   UNK N   1      28.183  18.033   5.877  0.00  0.00     0.352 A 
HETATM   17  O   UNK N   1      27.079  17.177   5.847  0.00  0.00    -0.323 OA
ENDROOT
BRANCH   1  18
HETATM   18  C   UNK N   1      21.799  16.871   5.276  0.00  0.00    -0.043 A 
HETATM   19  C   UNK N   1      21.554  15.505   5.108  0.00  0.00     0.047 A 
HETATM   20  C   UNK N   1      20.942  14.720   6.082  0.00  0.00     0.104 A 
HETATM   21  C   UNK N   1      20.568  15.310   7.319  0.00  0.00     0.135 A 
HETATM   22  C   UNK N   1      20.827  16.693   7.522  0.00  0.00     0.104 A 
HETATM   23  C   UNK N   1      21.415  17.447   6.488  0.00  0.00     0.047 A 
BRANCH  20  24
HETATM   24  O   UNK N   1      20.728  13.412   5.775  0.00  0.00    -0.353 OA
HETATM   25  C   UNK N   1      21.606  12.375   5.989  0.00  0.00     0.210 C 
ENDBRANCH  20  24
BRANCH  21  26
HETATM   26  O   UNK N   1      19.976  14.531   8.269  0.00  0.00    -0.351 OA
HETATM   27  C   UNK N   1      20.580  14.015   9.392  0.00  0.00     0.210 C 
ENDBRANCH  21  26
BRANCH  22  28
HETATM   28  O   UNK N   1      20.512  17.285   8.701  0.00  0.00    -0.353 OA
HETATM   29  C   UNK N   1      19.262  17.778   8.998  0.00  0.00     0.210 C 
ENDBRANCH  22  28
ENDBRANCH   1  18
BRANCH   8  30
HETATM   30  O   UNK N   1      24.133  20.859   1.958  0.00  0.00    -0.390 OA
HETATM   31  H   UNK N   1      23.973  20.547   1.053  0.00  0.00     0.210 HD
ENDBRANCH   8  30
TORSDOF 5
ENDMDL
MODEL 2
REMARK VINA RESULT:      -7.7      0.480      2.291
REMARK  5 active torsions:
REMARK  status: ('A' for Active; 'I' for Inactive)
REMARK    1  A    between atoms: O_2  and  C_3 
REMARK    2  A    between atoms: C_13  and  C_5 
REMARK    3  A    between atoms: C_7  and  O_11 
REMARK    4  A    between atoms: C_8  and  O_9 
REMARK    5  A    between atoms: C_20  and  O_27 
ROOT
HETATM    1  C   UNK N   1      22.238  17.763   4.080  0.00  0.00     0.066 C 
HETATM    2  C   UNK N   1      23.741  18.114   4.314  0.00  0.00    -0.037 A 
HETATM    3  C   UNK N   1      24.599  17.197   4.966  0.00  0.00     0.048 A 
HETATM    4  C   UNK N   1      25.905  17.573   5.240  0.00  0.00     0.105 A 
HETATM    5  C   UNK N   1      26.396  18.761   4.891  0.00  0.00     0.105 A 
HETATM    6  C   UNK N   1      25.638  19.701   4.207  0.00  0.00     0.050 A 
HETATM    7  C   UNK N   1      24.298  19.384   3.897  0.00  0.00    -0.019 A 
HETATM    8  C   UNK N   1      23.501  20.401   3.115  0.00  0.00     0.158 C 
HETATM    9  C   UNK N   1      22.221  19.761   2.640  0.00  0.00     0.058 C 
HETATM   10  C   UNK N   1      21.452  19.059   3.735  0.00  0.00     0.107 C 
HETATM   11  C   UNK N   1      20.144  19.011   3.006  0.00  0.00     0.264 C 
HETATM   12  O   UNK N   1      19.170  18.376   3.368  0.00  0.00    -0.265 OA
HETATM   13  O   UNK N   1      20.070  19.876   1.985  0.00  0.00    -0.321 OA
HETATM   14  C   UNK N   1      21.231  20.589   1.833  0.00  0.00     0.187 C 
HETATM   15  O   UNK N   1      27.660  18.854   5.294  0.00  0.00    -0.323 OA
HETATM   16  C   UNK N   1      28.002  17.664   5.946  0.00  0.00     0.352 A 
HETATM   17  O   UNK N   1      26.848  16.881   5.880  0.00  0.00    -0.323 OA
ENDROOT
BRANCH   1  18
HETATM   18  C   UNK N   1      21.572  16.919   5.193  0.00  0.00    -0.043 A 
HETATM   19  C   UNK N   1      21.260  17.463   6.443  0.00  0.00     0.047 A 
HETATM   20  C   UNK N   1      20.746  16.705   7.493  0.00  0.00     0.104 A 
HETATM   21  C   UNK N   1      20.495  15.321   7.295  0.00  0.00     0.135 A 
HETATM   22  C   UNK N   1      20.784  14.749   6.026  0.00  0.00     0.104 A 
HETATM   23  C   UNK N   1      21.336  15.555   5.012  0.00  0.00     0.047 A 
BRANCH  20  24
HETATM   24  O   UNK N   1      20.522  17.353   8.668  0.00  0.00    -0.353 OA
HETATM   25  C   UNK N   1      19.353  17.974   9.041  0.00  0.00     0.210 C 
ENDBRANCH  20  24
BRANCH  21  26
HETATM   26  O   UNK N   1      19.985  14.590   8.327  0.00  0.00    -0.351 OA
HETATM   27  C   UNK N   1      20.693  14.067   9.383  0.00  0.00     0.210 C 
ENDBRANCH  21  26
BRANCH  22  28
HETATM   28  O   UNK N   1      20.529  13.438   5.790  0.00  0.00    -0.353 OA
HETATM   29  C   UNK N   1      19.601  12.992   4.876  0.00  0.00     0.210 C 
ENDBRANCH  22  28
ENDBRANCH   1  18
BRANCH   8  30
HETATM   30  O   UNK N   1      24.225  20.796   1.987  0.00  0.00    -0.390 OA
HETATM   31  H   UNK N   1      25.185  20.935   1.942  0.00  0.00     0.210 HD
ENDBRANCH   8  30
TORSDOF 5
ENDMDL
MODEL 3
REMARK VINA RESULT:      -6.8      2.929      6.185
REMARK  5 active torsions:
REMARK  status: ('A' for Active; 'I' for Inactive)
REMARK    1  A    between atoms: O_2  and  C_3 
REMARK    2  A    between atoms: C_13  and  C_5 
REMARK    3  A    between atoms: C_7  and  O_11 
REMARK    4  A    between atoms: C_8  and  O_9 
REMARK    5  A    between atoms: C_20  and  O_27 
ROOT
HETATM    1  C   UNK N   1      27.050  16.156   4.854  0.00  0.00     0.066 C 
HETATM    2  C   UNK N   1      28.085  16.643   5.916  0.00  0.00    -0.037 A 
HETATM    3  C   UNK N   1      27.652  17.099   7.185  0.00  0.00     0.048 A 
HETATM    4  C   UNK N   1      28.586  17.610   8.073  0.00  0.00     0.105 A 
HETATM    5  C   UNK N   1      29.887  17.667   7.789  0.00  0.00     0.105 A 
HETATM    6  C   UNK N   1      30.402  17.199   6.589  0.00  0.00     0.050 A 
HETATM    7  C   UNK N   1      29.506  16.666   5.637  0.00  0.00    -0.019 A 
HETATM    8  C   UNK N   1      30.089  16.122   4.355  0.00  0.00     0.158 C 
HETATM    9  C   UNK N   1      29.023  15.348   3.622  0.00  0.00     0.058 C 
HETATM   10  C   UNK N   1      27.728  16.108   3.456  0.00  0.00     0.107 C 
HETATM   11  C   UNK N   1      27.182  15.256   2.351  0.00  0.00     0.264 C 
HETATM   12  O   UNK N   1      26.043  15.314   1.926  0.00  0.00    -0.265 OA
HETATM   13  O   UNK N   1      28.118  14.521   1.733  0.00  0.00    -0.321 OA
HETATM   14  C   UNK N   1      29.359  14.705   2.284  0.00  0.00     0.187 C 
HETATM   15  O   UNK N   1      30.539  18.216   8.811  0.00  0.00    -0.323 OA
HETATM   16  C   UNK N   1      29.608  18.538   9.804  0.00  0.00     0.352 A 
HETATM   17  O   UNK N   1      28.379  18.126   9.283  0.00  0.00    -0.323 OA
ENDROOT
BRANCH   1  18
HETATM   18  C   UNK N   1      25.695  16.904   4.855  0.00  0.00    -0.043 A 
HETATM   19  C   UNK N   1      24.548  16.348   5.430  0.00  0.00     0.047 A 
HETATM   20  C   UNK N   1      23.297  16.957   5.365  0.00  0.00     0.104 A 
HETATM   21  C   UNK N   1      23.166  18.213   4.714  0.00  0.00     0.135 A 
HETATM   22  C   UNK N   1      24.323  18.809   4.141  0.00  0.00     0.104 A 
HETATM   23  C   UNK N   1      25.555  18.132   4.205  0.00  0.00     0.047 A 
BRANCH  20  24
HETATM   24  O   UNK N   1      22.257  16.289   5.933  0.00  0.00    -0.353 OA
HETATM   25  C   UNK N   1      22.020  14.937   5.851  0.00  0.00     0.210 C 
ENDBRANCH  20  24
BRANCH  21  26
HETATM   26  O   UNK N   1      21.938  18.804   4.662  0.00  0.00    -0.351 OA
HETATM   27  C   UNK N   1      21.009  18.667   3.658  0.00  0.00     0.210 C 
ENDBRANCH  21  26
BRANCH  22  28
HETATM   28  O   UNK N   1      24.243  20.021   3.538  0.00  0.00    -0.353 OA
HETATM   29  C   UNK N   1      25.172  20.489   2.636  0.00  0.00     0.210 C 
ENDBRANCH  22  28
ENDBRANCH   1  18
BRANCH   8  30
HETATM   30  O   UNK N   1      31.130  15.238   4.652  0.00  0.00    -0.390 OA
HETATM   31  H   UNK N   1      31.139  14.584   5.368  0.00  0.00     0.210 HD
ENDBRANCH   8  30
TORSDOF 5
ENDMDL
MODEL 4
REMARK VINA RESULT:      -6.6      1.290      2.543
REMARK  5 active torsions:
REMARK  status: ('A' for Active; 'I' for Inactive)
REMARK    1  A    between atoms: O_2  and  C_3 
REMARK    2  A    between atoms: C_13  and  C_5 
REMARK    3  A    between atoms: C_7  and  O_11 
REMARK    4  A    between atoms: C_8  and  O_9 
REMARK    5  A    between atoms: C_20  and  O_27 
ROOT
HETATM    1  C   UNK N   1      22.676  17.346   4.110  0.00  0.00     0.066 C 
HETATM    2  C   UNK N   1      24.034  18.116   4.090  0.00  0.00    -0.037 A 
HETATM    3  C   UNK N   1      25.223  17.487   4.533  0.00  0.00     0.048 A 
HETATM    4  C   UNK N   1      26.395  18.225   4.589  0.00  0.00     0.105 A 
HETATM    5  C   UNK N   1      26.454  19.504   4.219  0.00  0.00     0.105 A 
HETATM    6  C   UNK N   1      25.348  20.183   3.729  0.00  0.00     0.050 A 
HETATM    7  C   UNK N   1      24.120  19.492   3.646  0.00  0.00    -0.019 A 
HETATM    8  C   UNK N   1      22.937  20.233   3.072  0.00  0.00     0.158 C 
HETATM    9  C   UNK N   1      21.827  19.250   2.799  0.00  0.00     0.058 C 
HETATM   10  C   UNK N   1      21.505  18.359   3.977  0.00  0.00     0.107 C 
HETATM   11  C   UNK N   1      20.154  17.933   3.490  0.00  0.00     0.264 C 
HETATM   12  O   UNK N   1      19.484  17.045   3.986  0.00  0.00    -0.265 OA
HETATM   13  O   UNK N   1      19.650  18.738   2.543  0.00  0.00    -0.321 OA
HETATM   14  C   UNK N   1      20.511  19.755   2.224  0.00  0.00     0.187 C 
HETATM   15  O   UNK N   1      27.692  19.958   4.395  0.00  0.00    -0.323 OA
HETATM   16  C   UNK N   1      28.472  18.920   4.915  0.00  0.00     0.352 A 
HETATM   17  O   UNK N   1      27.596  17.836   5.015  0.00  0.00    -0.323 OA
ENDROOT
BRANCH   1  18
HETATM   18  C   UNK N   1      22.496  16.348   5.279  0.00  0.00    -0.043 A 
HETATM   19  C   UNK N   1      21.776  16.685   6.429  0.00  0.00     0.047 A 
HETATM   20  C   UNK N   1      21.675  15.842   7.534  0.00  0.00     0.104 A 
HETATM   21  C   UNK N   1      22.301  14.567   7.498  0.00  0.00     0.135 A 
HETATM   22  C   UNK N   1      23.020  14.193   6.330  0.00  0.00     0.104 A 
HETATM   23  C   UNK N   1      23.120  15.099   5.257  0.00  0.00     0.047 A 
BRANCH  20  24
HETATM   24  O   UNK N   1      20.976  16.309   8.603  0.00  0.00    -0.353 OA
HETATM   25  C   UNK N   1      19.606  16.360   8.717  0.00  0.00     0.210 C 
ENDBRANCH  20  24
BRANCH  21  26
HETATM   26  O   UNK N   1      22.189  13.747   8.581  0.00  0.00    -0.351 OA
HETATM   27  C   UNK N   1      21.236  12.774   8.772  0.00  0.00     0.210 C 
ENDBRANCH  21  26
BRANCH  22  28
HETATM   28  O   UNK N   1      23.605  12.972   6.246  0.00  0.00    -0.353 OA
HETATM   29  C   UNK N   1      23.057  11.907   5.567  0.00  0.00     0.210 C 
ENDBRANCH  22  28
ENDBRANCH   1  18
BRANCH   8  30
HETATM   30  O   UNK N   1      23.298  20.818   1.854  0.00  0.00    -0.390 OA
HETATM   31  H   UNK N   1      23.515  20.346   1.035  0.00  0.00     0.210 HD
ENDBRANCH   8  30
TORSDOF 5
ENDMDL
MODEL 5
REMARK VINA RESULT:      -6.6      2.284      5.537
REMARK  5 active torsions:
REMARK  status: ('A' for Active; 'I' for Inactive)
REMARK    1  A    between atoms: O_2  and  C_3 
REMARK    2  A    between atoms: C_13  and  C_5 
REMARK    3  A    between atoms: C_7  and  O_11 
REMARK    4  A    between atoms: C_8  and  O_9 
REMARK    5  A    between atoms: C_20  and  O_27 
ROOT
HETATM    1  C   UNK N   1      25.151  17.093   4.769  0.00  0.00     0.066 C 
HETATM    2  C   UNK N   1      24.393  18.327   4.188  0.00  0.00    -0.037 A 
HETATM    3  C   UNK N   1      22.981  18.318   4.081  0.00  0.00     0.048 A 
HETATM    4  C   UNK N   1      22.344  19.391   3.477  0.00  0.00     0.105 A 
HETATM    5  C   UNK N   1      23.007  20.448   3.012  0.00  0.00     0.105 A 
HETATM    6  C   UNK N   1      24.386  20.560   3.117  0.00  0.00     0.050 A 
HETATM    7  C   UNK N   1      25.100  19.501   3.721  0.00  0.00    -0.019 A 
HETATM    8  C   UNK N   1      26.594  19.658   3.866  0.00  0.00     0.158 C 
HETATM    9  C   UNK N   1      27.114  18.579   4.781  0.00  0.00     0.058 C 
HETATM   10  C   UNK N   1      26.658  17.189   4.399  0.00  0.00     0.107 C 
HETATM   11  C   UNK N   1      27.704  16.457   5.182  0.00  0.00     0.264 C 
HETATM   12  O   UNK N   1      27.710  15.255   5.379  0.00  0.00    -0.265 OA
HETATM   13  O   UNK N   1      28.753  17.221   5.516  0.00  0.00    -0.321 OA
HETATM   14  C   UNK N   1      28.605  18.512   5.081  0.00  0.00     0.187 C 
HETATM   15  O   UNK N   1      22.147  21.308   2.473  0.00  0.00    -0.323 OA
HETATM   16  C   UNK N   1      20.859  20.774   2.589  0.00  0.00     0.352 A 
HETATM   17  O   UNK N   1      21.042  19.552   3.241  0.00  0.00    -0.323 OA
ENDROOT
BRANCH   1  18
HETATM   18  C   UNK N   1      24.526  15.715   4.442  0.00  0.00    -0.043 A 
HETATM   19  C   UNK N   1      24.689  15.110   3.192  0.00  0.00     0.047 A 
HETATM   20  C   UNK N   1      24.063  13.917   2.840  0.00  0.00     0.104 A 
HETATM   21  C   UNK N   1      23.240  13.255   3.789  0.00  0.00     0.135 A 
HETATM   22  C   UNK N   1      23.076  13.839   5.075  0.00  0.00     0.104 A 
HETATM   23  C   UNK N   1      23.703  15.066   5.365  0.00  0.00     0.047 A 
BRANCH  20  24
HETATM   24  O   UNK N   1      24.278  13.458   1.578  0.00  0.00    -0.353 OA
HETATM   25  C   UNK N   1      23.590  13.837   0.449  0.00  0.00     0.210 C 
ENDBRANCH  20  24
BRANCH  21  26
HETATM   26  O   UNK N   1      22.638  12.084   3.437  0.00  0.00    -0.351 OA
HETATM   27  C   UNK N   1      21.369  11.940   2.926  0.00  0.00     0.210 C 
ENDBRANCH  21  26
BRANCH  22  28
HETATM   28  O   UNK N   1      22.322  13.221   6.019  0.00  0.00    -0.353 OA
HETATM   29  C   UNK N   1      21.084  13.669   6.422  0.00  0.00     0.210 C 
ENDBRANCH  22  28
ENDBRANCH   1  18
BRANCH   8  30
HETATM   30  O   UNK N   1      26.880  20.893   4.457  0.00  0.00    -0.390 OA
HETATM   31  H   UNK N   1      26.407  21.293   5.204  0.00  0.00     0.210 HD
ENDBRANCH   8  30
TORSDOF 5
ENDMDL
MODEL 6
REMARK VINA RESULT:      -6.5      2.634      5.868
REMARK  5 active torsions:
REMARK  status: ('A' for Active; 'I' for Inactive)
REMARK    1  A    between atoms: O_2  and  C_3 
REMARK    2  A    between atoms: C_13  and  C_5 
REMARK    3  A    between atoms: C_7  and  O_11 
REMARK    4  A    between atoms: C_8  and  O_9 
REMARK    5  A    between atoms: C_20  and  O_27 
ROOT
HETATM    1  C   UNK N   1      25.207  17.080   4.748  0.00  0.00     0.066 C 
HETATM    2  C   UNK N   1      24.424  18.310   4.194  0.00  0.00    -0.037 A 
HETATM    3  C   UNK N   1      23.013  18.271   4.078  0.00  0.00     0.048 A 
HETATM    4  C   UNK N   1      22.354  19.343   3.497  0.00  0.00     0.105 A 
HETATM    5  C   UNK N   1      22.995  20.427   3.063  0.00  0.00     0.105 A 
HETATM    6  C   UNK N   1      24.371  20.568   3.180  0.00  0.00     0.050 A 
HETATM    7  C   UNK N   1      25.106  19.512   3.761  0.00  0.00    -0.019 A 
HETATM    8  C   UNK N   1      26.595  19.700   3.919  0.00  0.00     0.158 C 
HETATM    9  C   UNK N   1      27.135  18.610   4.810  0.00  0.00     0.058 C 
HETATM   10  C   UNK N   1      26.713  17.221   4.391  0.00  0.00     0.107 C 
HETATM   11  C   UNK N   1      27.772  16.493   5.161  0.00  0.00     0.264 C 
HETATM   12  O   UNK N   1      27.805  15.287   5.328  0.00  0.00    -0.265 OA
HETATM   13  O   UNK N   1      28.802  17.273   5.520  0.00  0.00    -0.321 OA
HETATM   14  C   UNK N   1      28.626  18.571   5.117  0.00  0.00     0.187 C 
HETATM   15  O   UNK N   1      22.119  21.281   2.540  0.00  0.00    -0.323 OA
HETATM   16  C   UNK N   1      20.843  20.713   2.635  0.00  0.00     0.352 A 
HETATM   17  O   UNK N   1      21.050  19.480   3.257  0.00  0.00    -0.323 OA
ENDROOT
BRANCH   1  18
HETATM   18  C   UNK N   1      24.616  15.696   4.384  0.00  0.00    -0.043 A 
HETATM   19  C   UNK N   1      23.961  14.903   5.331  0.00  0.00     0.047 A 
HETATM   20  C   UNK N   1      23.501  13.617   5.054  0.00  0.00     0.104 A 
HETATM   21  C   UNK N   1      23.672  13.081   3.750  0.00  0.00     0.135 A 
HETATM   22  C   UNK N   1      24.316  13.878   2.764  0.00  0.00     0.104 A 
HETATM   23  C   UNK N   1      24.793  15.157   3.108  0.00  0.00     0.047 A 
BRANCH  20  24
HETATM   24  O   UNK N   1      22.914  12.940   6.077  0.00  0.00    -0.353 OA
HETATM   25  C   UNK N   1      23.565  12.210   7.045  0.00  0.00     0.210 C 
ENDBRANCH  20  24
BRANCH  21  26
HETATM   26  O   UNK N   1      23.212  11.825   3.488  0.00  0.00    -0.351 OA
HETATM   27  C   UNK N   1      21.958  11.495   3.029  0.00  0.00     0.210 C 
ENDBRANCH  21  26
BRANCH  22  28
HETATM   28  O   UNK N   1      24.470  13.412   1.499  0.00  0.00    -0.353 OA
HETATM   29  C   UNK N   1      23.689  13.811   0.437  0.00  0.00     0.210 C 
ENDBRANCH  22  28
ENDBRANCH   1  18
BRANCH   8  30
HETATM   30  O   UNK N   1      26.849  20.926   4.542  0.00  0.00    -0.390 OA
HETATM   31  H   UNK N   1      27.431  21.627   4.210  0.00  0.00     0.210 HD
ENDBRANCH   8  30
TORSDOF 5
ENDMDL
MODEL 7
REMARK VINA RESULT:      -6.5      7.598     11.645
REMARK  5 active torsions:
REMARK  status: ('A' for Active; 'I' for Inactive)
REMARK    1  A    between atoms: O_2  and  C_3 
REMARK    2  A    between atoms: C_13  and  C_5 
REMARK    3  A    between atoms: C_7  and  O_11 
REMARK    4  A    between atoms: C_8  and  O_9 
REMARK    5  A    between atoms: C_20  and  O_27 
ROOT
HETATM    1  C   UNK N   1      33.104  15.756   6.549  0.00  0.00     0.066 C 
HETATM    2  C   UNK N   1      31.738  16.457   6.827  0.00  0.00    -0.037 A 
HETATM    3  C   UNK N   1      31.388  16.853   8.140  0.00  0.00     0.048 A 
HETATM    4  C   UNK N   1      30.130  17.390   8.370  0.00  0.00     0.105 A 
HETATM    5  C   UNK N   1      29.241  17.573   7.395  0.00  0.00     0.105 A 
HETATM    6  C   UNK N   1      29.519  17.256   6.073  0.00  0.00     0.050 A 
HETATM    7  C   UNK N   1      30.781  16.703   5.768  0.00  0.00    -0.019 A 
HETATM    8  C   UNK N   1      31.082  16.404   4.319  0.00  0.00     0.158 C 
HETATM    9  C   UNK N   1      32.554  16.107   4.175  0.00  0.00     0.058 C 
HETATM   10  C   UNK N   1      33.061  15.073   5.153  0.00  0.00     0.107 C 
HETATM   11  C   UNK N   1      34.316  14.745   4.404  0.00  0.00     0.264 C 
HETATM   12  O   UNK N   1      35.228  14.065   4.838  0.00  0.00    -0.265 OA
HETATM   13  O   UNK N   1      34.285  15.129   3.119  0.00  0.00    -0.321 OA
HETATM   14  C   UNK N   1      33.111  15.760   2.801  0.00  0.00     0.187 C 
HETATM   15  O   UNK N   1      28.124  18.084   7.905  0.00  0.00    -0.323 OA
HETATM   16  C   UNK N   1      28.298  18.232   9.286  0.00  0.00     0.352 A 
HETATM   17  O   UNK N   1      29.597  17.778   9.528  0.00  0.00    -0.323 OA
ENDROOT
BRANCH   1  18
HETATM   18  C   UNK N   1      33.613  14.822   7.675  0.00  0.00    -0.043 A 
HETATM   19  C   UNK N   1      33.052  13.560   7.893  0.00  0.00     0.047 A 
HETATM   20  C   UNK N   1      33.426  12.738   8.953  0.00  0.00     0.104 A 
HETATM   21  C   UNK N   1      34.441  13.172   9.848  0.00  0.00     0.135 A 
HETATM   22  C   UNK N   1      35.042  14.443   9.633  0.00  0.00     0.104 A 
HETATM   23  C   UNK N   1      34.599  15.248   8.566  0.00  0.00     0.047 A 
BRANCH  20  24
HETATM   24  O   UNK N   1      32.774  11.550   9.072  0.00  0.00    -0.353 OA
HETATM   25  C   UNK N   1      33.113  10.373   8.448  0.00  0.00     0.210 C 
ENDBRANCH  20  24
BRANCH  21  26
HETATM   26  O   UNK N   1      34.805  12.357  10.878  0.00  0.00    -0.351 OA
HETATM   27  C   UNK N   1      35.812  11.421  10.860  0.00  0.00     0.210 C 
ENDBRANCH  21  26
BRANCH  22  28
HETATM   28  O   UNK N   1      36.036  14.879  10.447  0.00  0.00    -0.353 OA
HETATM   29  C   UNK N   1      35.926  15.981  11.264  0.00  0.00     0.210 C 
ENDBRANCH  22  28
ENDBRANCH   1  18
BRANCH   8  30
HETATM   30  O   UNK N   1      30.796  17.529   3.540  0.00  0.00    -0.390 OA
HETATM   31  H   UNK N   1      29.921  17.789   3.210  0.00  0.00     0.210 HD
ENDBRANCH   8  30
TORSDOF 5
ENDMDL
MODEL 8
REMARK VINA RESULT:      -6.4     12.915     15.000
REMARK  5 active torsions:
REMARK  status: ('A' for Active; 'I' for Inactive)
REMARK    1  A    between atoms: O_2  and  C_3 
REMARK    2  A    between atoms: C_13  and  C_5 
REMARK    3  A    between atoms: C_7  and  O_11 
REMARK    4  A    between atoms: C_8  and  O_9 
REMARK    5  A    between atoms: C_20  and  O_27 
ROOT
HETATM    1  C   UNK N   1      30.158  22.861  -5.211  0.00  0.00     0.066 C 
HETATM    2  C   UNK N   1      30.182  21.935  -6.467  0.00  0.00    -0.037 A 
HETATM    3  C   UNK N   1      29.584  22.353  -7.680  0.00  0.00     0.048 A 
HETATM    4  C   UNK N   1      29.542  21.473  -8.750  0.00  0.00     0.105 A 
HETATM    5  C   UNK N   1      30.066  20.249  -8.691  0.00  0.00     0.105 A 
HETATM    6  C   UNK N   1      30.711  19.776  -7.557  0.00  0.00     0.050 A 
HETATM    7  C   UNK N   1      30.789  20.620  -6.429  0.00  0.00    -0.019 A 
HETATM    8  C   UNK N   1      31.532  20.105  -5.220  0.00  0.00     0.158 C 
HETATM    9  C   UNK N   1      31.753  21.245  -4.257  0.00  0.00     0.058 C 
HETATM   10  C   UNK N   1      30.497  22.025  -3.945  0.00  0.00     0.107 C 
HETATM   11  C   UNK N   1      31.016  22.671  -2.697  0.00  0.00     0.264 C 
HETATM   12  O   UNK N   1      30.459  23.572  -2.096  0.00  0.00    -0.265 OA
HETATM   13  O   UNK N   1      32.089  22.052  -2.183  0.00  0.00    -0.321 OA
HETATM   14  C   UNK N   1      32.475  20.980  -2.944  0.00  0.00     0.187 C 
HETATM   15  O   UNK N   1      29.865  19.625  -9.849  0.00  0.00    -0.323 OA
HETATM   16  C   UNK N   1      29.166  20.490 -10.699  0.00  0.00     0.352 A 
HETATM   17  O   UNK N   1      28.990  21.655  -9.949  0.00  0.00    -0.323 OA
ENDROOT
BRANCH   1  18
HETATM   18  C   UNK N   1      28.887  23.730  -5.051  0.00  0.00    -0.043 A 
HETATM   19  C   UNK N   1      27.628  23.274  -5.454  0.00  0.00     0.047 A 
HETATM   20  C   UNK N   1      26.484  24.067  -5.408  0.00  0.00     0.104 A 
HETATM   21  C   UNK N   1      26.575  25.393  -4.906  0.00  0.00     0.135 A 
HETATM   22  C   UNK N   1      27.840  25.872  -4.469  0.00  0.00     0.104 A 
HETATM   23  C   UNK N   1      28.971  25.039  -4.572  0.00  0.00     0.047 A 
BRANCH  20  24
HETATM   24  O   UNK N   1      25.330  23.511  -5.866  0.00  0.00    -0.353 OA
HETATM   25  C   UNK N   1      25.230  22.443  -6.727  0.00  0.00     0.210 C 
ENDBRANCH  20  24
BRANCH  21  26
HETATM   26  O   UNK N   1      25.448  26.158  -4.857  0.00  0.00    -0.351 OA
HETATM   27  C   UNK N   1      25.031  27.057  -5.811  0.00  0.00     0.210 C 
ENDBRANCH  21  26
BRANCH  22  28
HETATM   28  O   UNK N   1      27.961  27.121  -3.955  0.00  0.00    -0.353 OA
HETATM   29  C   UNK N   1      28.416  28.203  -4.675  0.00  0.00     0.210 C 
ENDBRANCH  22  28
ENDBRANCH   1  18
BRANCH   8  30
HETATM   30  O   UNK N   1      32.786  19.627  -5.609  0.00  0.00    -0.390 OA
HETATM   31  H   UNK N   1      33.538  19.448  -5.023  0.00  0.00     0.210 HD
ENDBRANCH   8  30
TORSDOF 5
ENDMDL
MODEL 9
REMARK VINA RESULT:      -6.4      7.828     11.966
REMARK  5 active torsions:
REMARK  status: ('A' for Active; 'I' for Inactive)
REMARK    1  A    between atoms: O_2  and  C_3 
REMARK    2  A    between atoms: C_13  and  C_5 
REMARK    3  A    between atoms: C_7  and  O_11 
REMARK    4  A    between atoms: C_8  and  O_9 
REMARK    5  A    between atoms: C_20  and  O_27 
ROOT
HETATM    1  C   UNK N   1      33.256  15.672   6.589  0.00  0.00     0.066 C 
HETATM    2  C   UNK N   1      31.925  16.440   6.863  0.00  0.00    -0.037 A 
HETATM    3  C   UNK N   1      31.603  16.874   8.171  0.00  0.00     0.048 A 
HETATM    4  C   UNK N   1      30.373  17.473   8.399  0.00  0.00     0.105 A 
HETATM    5  C   UNK N   1      29.486  17.679   7.427  0.00  0.00     0.105 A 
HETATM    6  C   UNK N   1      29.740  17.328   6.109  0.00  0.00     0.050 A 
HETATM    7  C   UNK N   1      30.974  16.711   5.805  0.00  0.00    -0.019 A 
HETATM    8  C   UNK N   1      31.250  16.374   4.361  0.00  0.00     0.158 C 
HETATM    9  C   UNK N   1      32.705  16.007   4.212  0.00  0.00     0.058 C 
HETATM   10  C   UNK N   1      33.172  14.968   5.206  0.00  0.00     0.107 C 
HETATM   11  C   UNK N   1      34.405  14.569   4.454  0.00  0.00     0.264 C 
HETATM   12  O   UNK N   1      35.287  13.855   4.894  0.00  0.00    -0.265 OA
HETATM   13  O   UNK N   1      34.383  14.932   3.163  0.00  0.00    -0.321 OA
HETATM   14  C   UNK N   1      33.237  15.611   2.842  0.00  0.00     0.187 C 
HETATM   15  O   UNK N   1      28.397  18.251   7.935  0.00  0.00    -0.323 OA
HETATM   16  C   UNK N   1      28.588  18.414   9.311  0.00  0.00     0.352 A 
HETATM   17  O   UNK N   1      29.866  17.905   9.553  0.00  0.00    -0.323 OA
ENDROOT
BRANCH   1  18
HETATM   18  C   UNK N   1      33.729  14.735   7.727  0.00  0.00    -0.043 A 
HETATM   19  C   UNK N   1      34.861  15.024   8.495  0.00  0.00     0.047 A 
HETATM   20  C   UNK N   1      35.362  14.156   9.462  0.00  0.00     0.104 A 
HETATM   21  C   UNK N   1      34.690  12.930   9.714  0.00  0.00     0.135 A 
HETATM   22  C   UNK N   1      33.523  12.624   8.962  0.00  0.00     0.104 A 
HETATM   23  C   UNK N   1      33.082  13.522   7.971  0.00  0.00     0.047 A 
BRANCH  20  24
HETATM   24  O   UNK N   1      36.494  14.542  10.110  0.00  0.00    -0.353 OA
HETATM   25  C   UNK N   1      37.784  14.249   9.734  0.00  0.00     0.210 C 
ENDBRANCH  20  24
BRANCH  21  26
HETATM   26  O   UNK N   1      35.184  12.091  10.668  0.00  0.00    -0.351 OA
HETATM   27  C   UNK N   1      34.925  12.148  12.018  0.00  0.00     0.210 C 
ENDBRANCH  21  26
BRANCH  22  28
HETATM   28  O   UNK N   1      32.836  11.478   9.195  0.00  0.00    -0.353 OA
HETATM   29  C   UNK N   1      33.081  10.293   8.537  0.00  0.00     0.210 C 
ENDBRANCH  22  28
ENDBRANCH   1  18
BRANCH   8  30
HETATM   30  O   UNK N   1      31.011  17.497   3.563  0.00  0.00    -0.390 OA
HETATM   31  H   UNK N   1      31.402  17.675   2.693  0.00  0.00     0.210 HD
ENDBRANCH   8  30
TORSDOF 5
ENDMDL
