MODEL 1
REMARK VINA RESULT:      -7.6      0.000      0.000
REMARK  11 active torsions:
REMARK  status: ('A' for Active; 'I' for Inactive)
REMARK    1  A    between atoms: C_3  and  C_4 
REMARK    2  A    between atoms: C_4  and  C_5 
REMARK    3  A    between atoms: C_5  and  C_6 
REMARK    4  A    between atoms: C_7  and  C_8 
REMARK    5  A    between atoms: C_8  and  C_9 
REMARK    6  A    between atoms: C_9  and  C_10 
REMARK    7  A    between atoms: C_11  and  C_12 
REMARK    8  A    between atoms: C_12  and  N_13 
REMARK    9  A    between atoms: C_16  and  O_31 
REMARK   10  A    between atoms: C_18  and  O_30 
REMARK   11  A    between atoms: C_26  and  O_27 
ROOT
HETATM    1  N   UNK N   1      29.750  22.604  -6.006  0.00  0.00    -0.308 N 
HETATM    2  C   UNK N   1      29.278  22.981  -4.756  0.00  0.00     0.070 A 
HETATM    3  C   UNK N   1      28.035  23.663  -4.704  0.00  0.00     0.068 A 
HETATM    4  C   UNK N   1      27.462  24.116  -3.527  0.00  0.00     0.070 A 
HETATM    5  C   UNK N   1      28.104  23.893  -2.327  0.00  0.00     0.075 A 
HETATM    6  C   UNK N   1      29.316  23.216  -2.311  0.00  0.00     0.097 A 
HETATM    7  C   UNK N   1      29.921  22.751  -3.504  0.00  0.00     0.093 A 
HETATM    8  N   UNK N   1      31.084  22.105  -3.336  0.00  0.00    -0.349 N 
HETATM    9  C   UNK N   1      32.002  21.506  -4.105  0.00  0.00     0.082 A 
HETATM   10  C   UNK N   1      31.938  21.428  -5.515  0.00  0.00     0.062 A 
HETATM   11  C   UNK N   1      33.007  20.762  -6.170  0.00  0.00     0.019 A 
HETATM   12  C   UNK N   1      34.075  20.197  -5.483  0.00  0.00     0.004 A 
HETATM   13  C   UNK N   1      34.115  20.276  -4.105  0.00  0.00     0.039 A 
HETATM   14  C   UNK N   1      33.094  20.922  -3.419  0.00  0.00     0.093 A 
HETATM   15  C   UNK N   1      30.919  21.929  -6.368  0.00  0.00     0.261 A 
HETATM   16  O   UNK N   1      31.093  21.724  -7.566  0.00  0.00    -0.267 OA
HETATM   17  H   UNK N   1      31.331  22.056  -2.385  0.00  0.00     0.166 HD
ENDROOT
BRANCH   1  18
HETATM   18  C   UNK N   1      28.880  22.915  -7.172  0.00  0.00     0.160 C 
BRANCH  18  19
HETATM   19  C   UNK N   1      27.664  22.032  -7.286  0.00  0.00    -0.004 C 
HETATM   20  C   UNK N   1      26.519  22.397  -7.874  0.00  0.00    -0.086 C 
HETATM   21  C   UNK N   1      25.408  21.407  -7.942  0.00  0.00     0.043 C 
BRANCH  20  22
HETATM   22  C   UNK N   1      26.296  23.772  -8.432  0.00  0.00     0.037 C 
BRANCH  22  23
HETATM   23  C   UNK N   1      25.732  24.719  -7.386  0.00  0.00     0.031 C 
BRANCH  23  24
HETATM   24  C   UNK N   1      26.624  25.910  -7.229  0.00  0.00    -0.024 C 
HETATM   25  C   UNK N   1      26.274  26.984  -6.510  0.00  0.00    -0.087 C 
HETATM   26  C   UNK N   1      24.949  27.061  -5.812  0.00  0.00     0.043 C 
BRANCH  25  27
HETATM   27  C   UNK N   1      27.225  28.127  -6.407  0.00  0.00     0.037 C 
BRANCH  27  28
HETATM   28  C   UNK N   1      27.685  28.288  -4.971  0.00  0.00     0.031 C 
BRANCH  28  29
HETATM   29  C   UNK N   1      28.773  27.306  -4.681  0.00  0.00    -0.024 C 
HETATM   30  C   UNK N   1      29.704  27.532  -3.748  0.00  0.00    -0.091 C 
HETATM   31  C   UNK N   1      30.760  26.510  -3.512  0.00  0.00     0.042 C 
HETATM   32  C   UNK N   1      29.705  28.781  -2.924  0.00  0.00     0.042 C 
ENDBRANCH  28  29
ENDBRANCH  27  28
ENDBRANCH  25  27
ENDBRANCH  23  24
ENDBRANCH  22  23
ENDBRANCH  20  22
ENDBRANCH  18  19
ENDBRANCH   1  18
BRANCH   4  33
HETATM   33  O   UNK N   1      26.290  24.772  -3.556  0.00  0.00    -0.361 OA
HETATM   34  H   UNK N   1      26.113  25.455  -2.939  0.00  0.00     0.217 HD
ENDBRANCH   4  33
BRANCH   6  35
HETATM   35  O   UNK N   1      29.916  23.004  -1.124  0.00  0.00    -0.358 OA
HETATM   36  H   UNK N   1      30.330  23.693  -0.644  0.00  0.00     0.217 HD
ENDBRANCH   6  35
BRANCH  14  37
HETATM   37  O   UNK N   1      33.157  20.984  -2.075  0.00  0.00    -0.358 OA
HETATM   38  H   UNK N   1      33.974  21.076  -1.629  0.00  0.00     0.217 HD
ENDBRANCH  14  37
TORSDOF 11
ENDMDL
MODEL 2
REMARK VINA RESULT:      -7.4      1.103      1.518
REMARK  11 active torsions:
REMARK  status: ('A' for Active; 'I' for Inactive)
REMARK    1  A    between atoms: C_3  and  C_4 
REMARK    2  A    between atoms: C_4  and  C_5 
REMARK    3  A    between atoms: C_5  and  C_6 
REMARK    4  A    between atoms: C_7  and  C_8 
REMARK    5  A    between atoms: C_8  and  C_9 
REMARK    6  A    between atoms: C_9  and  C_10 
REMARK    7  A    between atoms: C_11  and  C_12 
REMARK    8  A    between atoms: C_12  and  N_13 
REMARK    9  A    between atoms: C_16  and  O_31 
REMARK   10  A    between atoms: C_18  and  O_30 
REMARK   11  A    between atoms: C_26  and  O_27 
ROOT
HETATM    1  N   UNK N   1      29.622  22.546  -6.005  0.00  0.00    -0.308 N 
HETATM    2  C   UNK N   1      29.181  22.956  -4.754  0.00  0.00     0.070 A 
HETATM    3  C   UNK N   1      27.949  23.658  -4.692  0.00  0.00     0.068 A 
HETATM    4  C   UNK N   1      27.407  24.143  -3.513  0.00  0.00     0.070 A 
HETATM    5  C   UNK N   1      28.070  23.936  -2.322  0.00  0.00     0.075 A 
HETATM    6  C   UNK N   1      29.272  23.239  -2.316  0.00  0.00     0.097 A 
HETATM    7  C   UNK N   1      29.846  22.741  -3.511  0.00  0.00     0.093 A 
HETATM    8  N   UNK N   1      31.001  22.080  -3.353  0.00  0.00    -0.349 N 
HETATM    9  C   UNK N   1      31.895  21.452  -4.127  0.00  0.00     0.082 A 
HETATM   10  C   UNK N   1      31.801  21.346  -5.534  0.00  0.00     0.062 A 
HETATM   11  C   UNK N   1      32.846  20.650  -6.195  0.00  0.00     0.019 A 
HETATM   12  C   UNK N   1      33.919  20.083  -5.518  0.00  0.00     0.004 A 
HETATM   13  C   UNK N   1      33.988  20.189  -4.143  0.00  0.00     0.039 A 
HETATM   14  C   UNK N   1      32.991  20.865  -3.451  0.00  0.00     0.093 A 
HETATM   15  C   UNK N   1      30.773  21.845  -6.376  0.00  0.00     0.261 A 
HETATM   16  O   UNK N   1      30.919  21.613  -7.573  0.00  0.00    -0.267 OA
HETATM   17  H   UNK N   1      31.267  22.047  -2.405  0.00  0.00     0.166 HD
ENDROOT
BRANCH   1  18
HETATM   18  C   UNK N   1      28.733  22.846  -7.160  0.00  0.00     0.160 C 
BRANCH  18  19
HETATM   19  C   UNK N   1      27.468  22.029  -7.193  0.00  0.00    -0.004 C 
HETATM   20  C   UNK N   1      26.466  22.224  -8.057  0.00  0.00    -0.086 C 
HETATM   21  C   UNK N   1      25.286  21.316  -7.994  0.00  0.00     0.043 C 
BRANCH  20  22
HETATM   22  C   UNK N   1      26.465  23.340  -9.060  0.00  0.00     0.037 C 
BRANCH  22  23
HETATM   23  C   UNK N   1      25.696  24.549  -8.554  0.00  0.00     0.031 C 
BRANCH  23  24
HETATM   24  C   UNK N   1      26.627  25.699  -8.328  0.00  0.00    -0.024 C 
HETATM   25  C   UNK N   1      26.444  26.592  -7.347  0.00  0.00    -0.087 C 
HETATM   26  C   UNK N   1      25.282  26.496  -6.406  0.00  0.00     0.043 C 
BRANCH  25  27
HETATM   27  C   UNK N   1      27.421  27.707  -7.194  0.00  0.00     0.037 C 
BRANCH  27  28
HETATM   28  C   UNK N   1      27.797  27.868  -5.734  0.00  0.00     0.031 C 
BRANCH  28  29
HETATM   29  C   UNK N   1      27.498  29.263  -5.291  0.00  0.00    -0.024 C 
HETATM   30  C   UNK N   1      26.691  29.524  -4.257  0.00  0.00    -0.091 C 
HETATM   31  C   UNK N   1      26.437  30.939  -3.871  0.00  0.00     0.042 C 
HETATM   32  C   UNK N   1      26.046  28.428  -3.468  0.00  0.00     0.042 C 
ENDBRANCH  28  29
ENDBRANCH  27  28
ENDBRANCH  25  27
ENDBRANCH  23  24
ENDBRANCH  22  23
ENDBRANCH  20  22
ENDBRANCH  18  19
ENDBRANCH   1  18
BRANCH   4  33
HETATM   33  O   UNK N   1      26.245  24.817  -3.532  0.00  0.00    -0.361 OA
HETATM   34  H   UNK N   1      25.746  24.879  -4.323  0.00  0.00     0.217 HD
ENDBRANCH   4  33
BRANCH   6  35
HETATM   35  O   UNK N   1      29.892  23.043  -1.137  0.00  0.00    -0.358 OA
HETATM   36  H   UNK N   1      30.270  23.746  -0.647  0.00  0.00     0.217 HD
ENDBRANCH   6  35
BRANCH  14  37
HETATM   37  O   UNK N   1      33.082  20.953  -2.110  0.00  0.00    -0.358 OA
HETATM   38  H   UNK N   1      33.908  21.060  -1.683  0.00  0.00     0.217 HD
ENDBRANCH  14  37
TORSDOF 11
ENDMDL
MODEL 3
REMARK VINA RESULT:      -7.4     13.076     16.037
REMARK  11 active torsions:
REMARK  status: ('A' for Active; 'I' for Inactive)
REMARK    1  A    between atoms: C_3  and  C_4 
REMARK    2  A    between atoms: C_4  and  C_5 
REMARK    3  A    between atoms: C_5  and  C_6 
REMARK    4  A    between atoms: C_7  and  C_8 
REMARK    5  A    between atoms: C_8  and  C_9 
REMARK    6  A    between atoms: C_9  and  C_10 
REMARK    7  A    between atoms: C_11  and  C_12 
REMARK    8  A    between atoms: C_12  and  N_13 
REMARK    9  A    between atoms: C_16  and  O_31 
REMARK   10  A    between atoms: C_18  and  O_30 
REMARK   11  A    between atoms: C_26  and  O_27 
ROOT
HETATM    1  N   UNK N   1      23.163  17.180   5.072  0.00  0.00    -0.308 N 
HETATM    2  C   UNK N   1      22.878  18.288   4.285  0.00  0.00     0.070 A 
HETATM    3  C   UNK N   1      21.513  18.572   4.022  0.00  0.00     0.068 A 
HETATM    4  C   UNK N   1      21.092  19.631   3.234  0.00  0.00     0.070 A 
HETATM    5  C   UNK N   1      22.026  20.476   2.674  0.00  0.00     0.075 A 
HETATM    6  C   UNK N   1      23.378  20.261   2.908  0.00  0.00     0.097 A 
HETATM    7  C   UNK N   1      23.828  19.180   3.705  0.00  0.00     0.093 A 
HETATM    8  N   UNK N   1      25.158  19.101   3.855  0.00  0.00    -0.349 N 
HETATM    9  C   UNK N   1      26.038  18.306   4.477  0.00  0.00     0.082 A 
HETATM   10  C   UNK N   1      25.689  17.164   5.234  0.00  0.00     0.062 A 
HETATM   11  C   UNK N   1      26.755  16.432   5.818  0.00  0.00     0.019 A 
HETATM   12  C   UNK N   1      28.088  16.800   5.676  0.00  0.00     0.004 A 
HETATM   13  C   UNK N   1      28.408  17.924   4.940  0.00  0.00     0.039 A 
HETATM   14  C   UNK N   1      27.399  18.671   4.344  0.00  0.00     0.093 A 
HETATM   15  C   UNK N   1      24.387  16.660   5.497  0.00  0.00     0.261 A 
HETATM   16  O   UNK N   1      24.349  15.650   6.194  0.00  0.00    -0.267 OA
HETATM   17  H   UNK N   1      25.615  19.828   3.374  0.00  0.00     0.166 HD
ENDROOT
BRANCH   1  18
HETATM   18  C   UNK N   1      21.998  16.420   5.603  0.00  0.00     0.160 C 
BRANCH  18  19
HETATM   19  C   UNK N   1      21.232  17.141   6.682  0.00  0.00    -0.004 C 
HETATM   20  C   UNK N   1      20.632  16.536   7.713  0.00  0.00    -0.086 C 
HETATM   21  C   UNK N   1      19.937  17.380   8.725  0.00  0.00     0.043 C 
BRANCH  20  22
HETATM   22  C   UNK N   1      20.600  15.045   7.872  0.00  0.00     0.037 C 
BRANCH  22  23
HETATM   23  C   UNK N   1      20.610  14.635   9.335  0.00  0.00     0.031 C 
BRANCH  23  24
HETATM   24  C   UNK N   1      21.832  13.827   9.640  0.00  0.00    -0.024 C 
HETATM   25  C   UNK N   1      21.814  12.779  10.474  0.00  0.00    -0.087 C 
HETATM   26  C   UNK N   1      20.555  12.347  11.163  0.00  0.00     0.043 C 
BRANCH  25  27
HETATM   27  C   UNK N   1      23.079  12.030  10.720  0.00  0.00     0.037 C 
BRANCH  27  28
HETATM   28  C   UNK N   1      23.963  12.091   9.491  0.00  0.00     0.031 C 
BRANCH  28  29
HETATM   29  C   UNK N   1      23.697  10.905   8.622  0.00  0.00    -0.024 C 
HETATM   30  C   UNK N   1      23.352  11.028   7.337  0.00  0.00    -0.091 C 
HETATM   31  C   UNK N   1      23.099   9.803   6.531  0.00  0.00     0.042 C 
HETATM   32  C   UNK N   1      23.224  12.368   6.682  0.00  0.00     0.042 C 
ENDBRANCH  28  29
ENDBRANCH  27  28
ENDBRANCH  25  27
ENDBRANCH  23  24
ENDBRANCH  22  23
ENDBRANCH  20  22
ENDBRANCH  18  19
ENDBRANCH   1  18
BRANCH   4  33
HETATM   33  O   UNK N   1      19.782  19.828   3.013  0.00  0.00    -0.361 OA
HETATM   34  H   UNK N   1      19.179  19.113   3.064  0.00  0.00     0.217 HD
ENDBRANCH   4  33
BRANCH   6  35
HETATM   35  O   UNK N   1      24.267  21.108   2.357  0.00  0.00    -0.358 OA
HETATM   36  H   UNK N   1      24.693  21.778   2.852  0.00  0.00     0.217 HD
ENDBRANCH   6  35
BRANCH  14  37
HETATM   37  O   UNK N   1      27.738  19.763   3.633  0.00  0.00    -0.358 OA
HETATM   38  H   UNK N   1      28.617  19.901   3.341  0.00  0.00     0.217 HD
ENDBRANCH  14  37
TORSDOF 11
ENDMDL
MODEL 4
REMARK VINA RESULT:      -7.3     11.216     13.772
REMARK  11 active torsions:
REMARK  status: ('A' for Active; 'I' for Inactive)
REMARK    1  A    between atoms: C_3  and  C_4 
REMARK    2  A    between atoms: C_4  and  C_5 
REMARK    3  A    between atoms: C_5  and  C_6 
REMARK    4  A    between atoms: C_7  and  C_8 
REMARK    5  A    between atoms: C_8  and  C_9 
REMARK    6  A    between atoms: C_9  and  C_10 
REMARK    7  A    between atoms: C_11  and  C_12 
REMARK    8  A    between atoms: C_12  and  N_13 
REMARK    9  A    between atoms: C_16  and  O_31 
REMARK   10  A    between atoms: C_18  and  O_30 
REMARK   11  A    between atoms: C_26  and  O_27 
ROOT
HETATM    1  N   UNK N   1      31.684  16.838   6.463  0.00  0.00    -0.308 N 
HETATM    2  C   UNK N   1      30.699  17.015   7.426  0.00  0.00     0.070 A 
HETATM    3  C   UNK N   1      29.477  17.606   7.011  0.00  0.00     0.068 A 
HETATM    4  C   UNK N   1      28.422  17.860   7.872  0.00  0.00     0.070 A 
HETATM    5  C   UNK N   1      28.533  17.520   9.204  0.00  0.00     0.075 A 
HETATM    6  C   UNK N   1      29.697  16.923   9.667  0.00  0.00     0.097 A 
HETATM    7  C   UNK N   1      30.789  16.660   8.804  0.00  0.00     0.093 A 
HETATM    8  N   UNK N   1      31.843  16.070   9.386  0.00  0.00    -0.349 N 
HETATM    9  C   UNK N   1      33.058  15.637   9.025  0.00  0.00     0.082 A 
HETATM   10  C   UNK N   1      33.591  15.745   7.720  0.00  0.00     0.062 A 
HETATM   11  C   UNK N   1      34.902  15.239   7.520  0.00  0.00     0.019 A 
HETATM   12  C   UNK N   1      35.647  14.655   8.537  0.00  0.00     0.004 A 
HETATM   13  C   UNK N   1      35.106  14.552   9.803  0.00  0.00     0.039 A 
HETATM   14  C   UNK N   1      33.827  15.037  10.050  0.00  0.00     0.093 A 
HETATM   15  C   UNK N   1      32.965  16.291   6.568  0.00  0.00     0.261 A 
HETATM   16  O   UNK N   1      33.640  16.259   5.542  0.00  0.00    -0.267 OA
HETATM   17  H   UNK N   1      31.679  15.911  10.343  0.00  0.00     0.166 HD
ENDROOT
BRANCH   1  18
HETATM   18  C   UNK N   1      31.344  17.247   5.074  0.00  0.00     0.160 C 
BRANCH  18  19
HETATM   19  C   UNK N   1      31.101  16.095   4.134  0.00  0.00    -0.004 C 
HETATM   20  C   UNK N   1      29.890  15.680   3.746  0.00  0.00    -0.086 C 
HETATM   21  C   UNK N   1      29.801  14.546   2.785  0.00  0.00     0.043 C 
BRANCH  20  22
HETATM   22  C   UNK N   1      28.620  16.285   4.268  0.00  0.00     0.037 C 
BRANCH  22  23
HETATM   23  C   UNK N   1      27.410  15.829   3.469  0.00  0.00     0.031 C 
BRANCH  23  24
HETATM   24  C   UNK N   1      26.461  16.968   3.266  0.00  0.00    -0.024 C 
HETATM   25  C   UNK N   1      25.465  17.237   4.120  0.00  0.00    -0.087 C 
HETATM   26  C   UNK N   1      25.234  16.402   5.343  0.00  0.00     0.043 C 
BRANCH  25  27
HETATM   27  C   UNK N   1      24.566  18.392   3.840  0.00  0.00     0.037 C 
BRANCH  27  28
HETATM   28  C   UNK N   1      25.380  19.574   3.350  0.00  0.00     0.031 C 
BRANCH  28  29
HETATM   29  C   UNK N   1      25.641  20.508   4.486  0.00  0.00    -0.024 C 
HETATM   30  C   UNK N   1      26.867  20.696   4.985  0.00  0.00    -0.091 C 
HETATM   31  C   UNK N   1      27.054  21.641   6.119  0.00  0.00     0.042 C 
HETATM   32  C   UNK N   1      28.060  19.988   4.424  0.00  0.00     0.042 C 
ENDBRANCH  28  29
ENDBRANCH  27  28
ENDBRANCH  25  27
ENDBRANCH  23  24
ENDBRANCH  22  23
ENDBRANCH  20  22
ENDBRANCH  18  19
ENDBRANCH   1  18
BRANCH   4  33
HETATM   33  O   UNK N   1      27.302  18.441   7.412  0.00  0.00    -0.361 OA
HETATM   34  H   UNK N   1      26.511  17.945   7.326  0.00  0.00     0.217 HD
ENDBRANCH   4  33
BRANCH   6  35
HETATM   35  O   UNK N   1      29.774  16.593  10.970  0.00  0.00    -0.358 OA
HETATM   36  H   UNK N   1      30.533  16.773  11.488  0.00  0.00     0.217 HD
ENDBRANCH   6  35
BRANCH  14  37
HETATM   37  O   UNK N   1      33.322  14.922  11.293  0.00  0.00    -0.358 OA
HETATM   38  H   UNK N   1      32.542  15.373  11.546  0.00  0.00     0.217 HD
ENDBRANCH  14  37
TORSDOF 11
ENDMDL
MODEL 5
REMARK VINA RESULT:      -7.3     13.441     16.361
REMARK  11 active torsions:
REMARK  status: ('A' for Active; 'I' for Inactive)
REMARK    1  A    between atoms: C_3  and  C_4 
REMARK    2  A    between atoms: C_4  and  C_5 
REMARK    3  A    between atoms: C_5  and  C_6 
REMARK    4  A    between atoms: C_7  and  C_8 
REMARK    5  A    between atoms: C_8  and  C_9 
REMARK    6  A    between atoms: C_9  and  C_10 
REMARK    7  A    between atoms: C_11  and  C_12 
REMARK    8  A    between atoms: C_12  and  N_13 
REMARK    9  A    between atoms: C_16  and  O_31 
REMARK   10  A    between atoms: C_18  and  O_30 
REMARK   11  A    between atoms: C_26  and  O_27 
ROOT
HETATM    1  N   UNK N   1      23.902  16.381   5.537  0.00  0.00    -0.308 N 
HETATM    2  C   UNK N   1      22.554  16.463   5.210  0.00  0.00     0.070 A 
HETATM    3  C   UNK N   1      21.691  15.467   5.737  0.00  0.00     0.068 A 
HETATM    4  C   UNK N   1      20.332  15.417   5.471  0.00  0.00     0.070 A 
HETATM    5  C   UNK N   1      19.761  16.380   4.666  0.00  0.00     0.075 A 
HETATM    6  C   UNK N   1      20.550  17.391   4.135  0.00  0.00     0.097 A 
HETATM    7  C   UNK N   1      21.942  17.455   4.389  0.00  0.00     0.093 A 
HETATM    8  N   UNK N   1      22.575  18.491   3.821  0.00  0.00    -0.349 N 
HETATM    9  C   UNK N   1      23.823  18.974   3.758  0.00  0.00     0.082 A 
HETATM   10  C   UNK N   1      24.944  18.376   4.378  0.00  0.00     0.062 A 
HETATM   11  C   UNK N   1      26.195  19.021   4.198  0.00  0.00     0.019 A 
HETATM   12  C   UNK N   1      26.341  20.189   3.459  0.00  0.00     0.004 A 
HETATM   13  C   UNK N   1      25.232  20.763   2.869  0.00  0.00     0.039 A 
HETATM   14  C   UNK N   1      23.986  20.165   3.012  0.00  0.00     0.093 A 
HETATM   15  C   UNK N   1      24.972  17.203   5.178  0.00  0.00     0.261 A 
HETATM   16  O   UNK N   1      26.079  16.893   5.611  0.00  0.00    -0.267 OA
HETATM   17  H   UNK N   1      21.951  19.053   3.307  0.00  0.00     0.166 HD
ENDROOT
BRANCH   1  18
HETATM   18  C   UNK N   1      24.303  15.276   6.449  0.00  0.00     0.160 C 
BRANCH  18  19
HETATM   19  C   UNK N   1      24.625  13.983   5.747  0.00  0.00    -0.004 C 
HETATM   20  C   UNK N   1      24.674  12.789   6.349  0.00  0.00    -0.086 C 
HETATM   21  C   UNK N   1      24.974  11.588   5.521  0.00  0.00     0.043 C 
BRANCH  20  22
HETATM   22  C   UNK N   1      24.475  12.617   7.826  0.00  0.00     0.037 C 
BRANCH  22  23
HETATM   23  C   UNK N   1      23.288  11.720   8.132  0.00  0.00     0.031 C 
BRANCH  23  24
HETATM   24  C   UNK N   1      22.111  12.542   8.554  0.00  0.00    -0.024 C 
HETATM   25  C   UNK N   1      21.762  12.697   9.837  0.00  0.00    -0.087 C 
HETATM   26  C   UNK N   1      22.537  12.047  10.944  0.00  0.00     0.043 C 
BRANCH  25  27
HETATM   27  C   UNK N   1      20.574  13.534  10.168  0.00  0.00     0.037 C 
BRANCH  27  28
HETATM   28  C   UNK N   1      20.540  14.759   9.275  0.00  0.00     0.031 C 
BRANCH  28  29
HETATM   29  C   UNK N   1      19.192  15.397   9.351  0.00  0.00    -0.024 C 
HETATM   30  C   UNK N   1      18.978  16.656   8.954  0.00  0.00    -0.091 C 
HETATM   31  C   UNK N   1      17.608  17.229   9.060  0.00  0.00     0.042 C 
HETATM   32  C   UNK N   1      20.078  17.502   8.395  0.00  0.00     0.042 C 
ENDBRANCH  28  29
ENDBRANCH  27  28
ENDBRANCH  25  27
ENDBRANCH  23  24
ENDBRANCH  22  23
ENDBRANCH  20  22
ENDBRANCH  18  19
ENDBRANCH   1  18
BRANCH   4  33
HETATM   33  O   UNK N   1      19.579  14.434   5.989  0.00  0.00    -0.361 OA
HETATM   34  H   UNK N   1      18.933  14.624   6.640  0.00  0.00     0.217 HD
ENDBRANCH   4  33
BRANCH   6  35
HETATM   35  O   UNK N   1      19.963  18.323   3.361  0.00  0.00    -0.358 OA
HETATM   36  H   UNK N   1      19.036  18.354   3.231  0.00  0.00     0.217 HD
ENDBRANCH   6  35
BRANCH  14  37
HETATM   37  O   UNK N   1      22.920  20.746   2.428  0.00  0.00    -0.358 OA
HETATM   38  H   UNK N   1      22.506  21.496   2.804  0.00  0.00     0.217 HD
ENDBRANCH  14  37
TORSDOF 11
ENDMDL
MODEL 6
REMARK VINA RESULT:      -7.3     13.445     16.004
REMARK  11 active torsions:
REMARK  status: ('A' for Active; 'I' for Inactive)
REMARK    1  A    between atoms: C_3  and  C_4 
REMARK    2  A    between atoms: C_4  and  C_5 
REMARK    3  A    between atoms: C_5  and  C_6 
REMARK    4  A    between atoms: C_7  and  C_8 
REMARK    5  A    between atoms: C_8  and  C_9 
REMARK    6  A    between atoms: C_9  and  C_10 
REMARK    7  A    between atoms: C_11  and  C_12 
REMARK    8  A    between atoms: C_12  and  N_13 
REMARK    9  A    between atoms: C_16  and  O_31 
REMARK   10  A    between atoms: C_18  and  O_30 
REMARK   11  A    between atoms: C_26  and  O_27 
ROOT
HETATM    1  N   UNK N   1      24.023  14.658   7.251  0.00  0.00    -0.308 N 
HETATM    2  C   UNK N   1      22.914  15.292   6.705  0.00  0.00     0.070 A 
HETATM    3  C   UNK N   1      23.116  16.077   5.540  0.00  0.00     0.068 A 
HETATM    4  C   UNK N   1      22.103  16.780   4.909  0.00  0.00     0.070 A 
HETATM    5  C   UNK N   1      20.820  16.721   5.410  0.00  0.00     0.075 A 
HETATM    6  C   UNK N   1      20.555  15.955   6.538  0.00  0.00     0.097 A 
HETATM    7  C   UNK N   1      21.579  15.235   7.201  0.00  0.00     0.093 A 
HETATM    8  N   UNK N   1      21.176  14.531   8.269  0.00  0.00    -0.349 N 
HETATM    9  C   UNK N   1      21.727  13.727   9.188  0.00  0.00     0.082 A 
HETATM   10  C   UNK N   1      23.102  13.405   9.249  0.00  0.00     0.062 A 
HETATM   11  C   UNK N   1      23.512  12.543  10.299  0.00  0.00     0.019 A 
HETATM   12  C   UNK N   1      22.626  12.020  11.233  0.00  0.00     0.004 A 
HETATM   13  C   UNK N   1      21.285  12.340  11.152  0.00  0.00     0.039 A 
HETATM   14  C   UNK N   1      20.836  13.184  10.144  0.00  0.00     0.093 A 
HETATM   15  C   UNK N   1      24.134  13.831   8.371  0.00  0.00     0.261 A 
HETATM   16  O   UNK N   1      25.254  13.402   8.635  0.00  0.00    -0.267 OA
HETATM   17  H   UNK N   1      20.209  14.632   8.419  0.00  0.00     0.166 HD
ENDROOT
BRANCH   1  18
HETATM   18  C   UNK N   1      25.314  14.829   6.531  0.00  0.00     0.160 C 
BRANCH  18  19
HETATM   19  C   UNK N   1      25.698  13.657   5.666  0.00  0.00    -0.004 C 
HETATM   20  C   UNK N   1      26.895  13.505   5.089  0.00  0.00    -0.086 C 
HETATM   21  C   UNK N   1      27.145  12.276   4.285  0.00  0.00     0.043 C 
BRANCH  20  22
HETATM   22  C   UNK N   1      27.980  14.536   5.188  0.00  0.00     0.037 C 
BRANCH  22  23
HETATM   23  C   UNK N   1      28.147  15.303   3.887  0.00  0.00     0.031 C 
BRANCH  23  24
HETATM   24  C   UNK N   1      27.532  16.662   4.002  0.00  0.00    -0.024 C 
HETATM   25  C   UNK N   1      26.356  16.971   3.441  0.00  0.00    -0.087 C 
HETATM   26  C   UNK N   1      25.575  15.963   2.651  0.00  0.00     0.043 C 
BRANCH  25  27
HETATM   27  C   UNK N   1      25.817  18.350   3.605  0.00  0.00     0.037 C 
BRANCH  27  28
HETATM   28  C   UNK N   1      26.958  19.341   3.726  0.00  0.00     0.031 C 
BRANCH  28  29
HETATM   29  C   UNK N   1      26.557  20.461   4.630  0.00  0.00    -0.024 C 
HETATM   30  C   UNK N   1      26.940  20.514   5.910  0.00  0.00    -0.091 C 
HETATM   31  C   UNK N   1      26.501  21.660   6.753  0.00  0.00     0.042 C 
HETATM   32  C   UNK N   1      27.810  19.457   6.515  0.00  0.00     0.042 C 
ENDBRANCH  28  29
ENDBRANCH  27  28
ENDBRANCH  25  27
ENDBRANCH  23  24
ENDBRANCH  22  23
ENDBRANCH  20  22
ENDBRANCH  18  19
ENDBRANCH   1  18
BRANCH   4  33
HETATM   33  O   UNK N   1      22.372  17.518   3.820  0.00  0.00    -0.361 OA
HETATM   34  H   UNK N   1      22.309  17.142   2.965  0.00  0.00     0.217 HD
ENDBRANCH   4  33
BRANCH   6  35
HETATM   35  O   UNK N   1      19.291  15.908   6.999  0.00  0.00    -0.358 OA
HETATM   36  H   UNK N   1      18.967  15.184   7.496  0.00  0.00     0.217 HD
ENDBRANCH   6  35
BRANCH  14  37
HETATM   37  O   UNK N   1      19.523  13.479  10.086  0.00  0.00    -0.358 OA
HETATM   38  H   UNK N   1      19.060  13.792  10.837  0.00  0.00     0.217 HD
ENDBRANCH  14  37
TORSDOF 11
ENDMDL
MODEL 7
REMARK VINA RESULT:      -7.2     12.992     15.671
REMARK  11 active torsions:
REMARK  status: ('A' for Active; 'I' for Inactive)
REMARK    1  A    between atoms: C_3  and  C_4 
REMARK    2  A    between atoms: C_4  and  C_5 
REMARK    3  A    between atoms: C_5  and  C_6 
REMARK    4  A    between atoms: C_7  and  C_8 
REMARK    5  A    between atoms: C_8  and  C_9 
REMARK    6  A    between atoms: C_9  and  C_10 
REMARK    7  A    between atoms: C_11  and  C_12 
REMARK    8  A    between atoms: C_12  and  N_13 
REMARK    9  A    between atoms: C_16  and  O_31 
REMARK   10  A    between atoms: C_18  and  O_30 
REMARK   11  A    between atoms: C_26  and  O_27 
ROOT
HETATM    1  N   UNK N   1      28.997  16.272   5.470  0.00  0.00    -0.308 N 
HETATM    2  C   UNK N   1      29.310  16.861   6.688  0.00  0.00     0.070 A 
HETATM    3  C   UNK N   1      28.232  17.220   7.539  0.00  0.00     0.068 A 
HETATM    4  C   UNK N   1      28.403  17.836   8.768  0.00  0.00     0.070 A 
HETATM    5  C   UNK N   1      29.676  18.113   9.219  0.00  0.00     0.075 A 
HETATM    6  C   UNK N   1      30.773  17.770   8.440  0.00  0.00     0.097 A 
HETATM    7  C   UNK N   1      30.619  17.146   7.178  0.00  0.00     0.093 A 
HETATM    8  N   UNK N   1      31.764  16.862   6.542  0.00  0.00    -0.349 N 
HETATM    9  C   UNK N   1      32.141  16.305   5.384  0.00  0.00     0.082 A 
HETATM   10  C   UNK N   1      31.247  15.824   4.399  0.00  0.00     0.062 A 
HETATM   11  C   UNK N   1      31.823  15.271   3.226  0.00  0.00     0.019 A 
HETATM   12  C   UNK N   1      33.196  15.186   3.030  0.00  0.00     0.004 A 
HETATM   13  C   UNK N   1      34.053  15.653   4.008  0.00  0.00     0.039 A 
HETATM   14  C   UNK N   1      33.537  16.208   5.172  0.00  0.00     0.093 A 
HETATM   15  C   UNK N   1      29.827  15.815   4.444  0.00  0.00     0.261 A 
HETATM   16  O   UNK N   1      29.277  15.331   3.459  0.00  0.00    -0.267 OA
HETATM   17  H   UNK N   1      32.545  17.140   7.073  0.00  0.00     0.166 HD
ENDROOT
BRANCH   1  18
HETATM   18  C   UNK N   1      27.554  16.033   5.194  0.00  0.00     0.160 C 
BRANCH  18  19
HETATM   19  C   UNK N   1      27.132  14.592   5.323  0.00  0.00    -0.004 C 
HETATM   20  C   UNK N   1      26.051  14.180   5.993  0.00  0.00    -0.086 C 
HETATM   21  C   UNK N   1      25.737  12.724   6.008  0.00  0.00     0.043 C 
BRANCH  20  22
HETATM   22  C   UNK N   1      25.164  15.118   6.757  0.00  0.00     0.037 C 
BRANCH  22  23
HETATM   23  C   UNK N   1      23.696  14.889   6.438  0.00  0.00     0.031 C 
BRANCH  23  24
HETATM   24  C   UNK N   1      23.001  14.267   7.608  0.00  0.00    -0.024 C 
HETATM   25  C   UNK N   1      21.844  14.737   8.093  0.00  0.00    -0.087 C 
HETATM   26  C   UNK N   1      21.168  15.930   7.488  0.00  0.00     0.043 C 
BRANCH  25  27
HETATM   27  C   UNK N   1      21.221  14.056   9.263  0.00  0.00     0.037 C 
BRANCH  27  28
HETATM   28  C   UNK N   1      21.828  12.679   9.443  0.00  0.00     0.031 C 
BRANCH  28  29
HETATM   29  C   UNK N   1      21.946  12.369  10.900  0.00  0.00    -0.024 C 
HETATM   30  C   UNK N   1      23.126  12.141  11.486  0.00  0.00    -0.091 C 
HETATM   31  C   UNK N   1      23.168  11.836  12.942  0.00  0.00     0.042 C 
HETATM   32  C   UNK N   1      24.408  12.196  10.716  0.00  0.00     0.042 C 
ENDBRANCH  28  29
ENDBRANCH  27  28
ENDBRANCH  25  27
ENDBRANCH  23  24
ENDBRANCH  22  23
ENDBRANCH  20  22
ENDBRANCH  18  19
ENDBRANCH   1  18
BRANCH   4  33
HETATM   33  O   UNK N   1      27.334  18.165   9.511  0.00  0.00    -0.361 OA
HETATM   34  H   UNK N   1      26.495  18.279   9.111  0.00  0.00     0.217 HD
ENDBRANCH   4  33
BRANCH   6  35
HETATM   35  O   UNK N   1      32.004  18.043   8.911  0.00  0.00    -0.358 OA
HETATM   36  H   UNK N   1      32.695  17.412   8.901  0.00  0.00     0.217 HD
ENDBRANCH   6  35
BRANCH  14  37
HETATM   37  O   UNK N   1      34.394  16.654   6.110  0.00  0.00    -0.358 OA
HETATM   38  H   UNK N   1      35.189  17.089   5.877  0.00  0.00     0.217 HD
ENDBRANCH  14  37
TORSDOF 11
ENDMDL
MODEL 8
REMARK VINA RESULT:      -7.2     13.875     18.118
REMARK  11 active torsions:
REMARK  status: ('A' for Active; 'I' for Inactive)
REMARK    1  A    between atoms: C_3  and  C_4 
REMARK    2  A    between atoms: C_4  and  C_5 
REMARK    3  A    between atoms: C_5  and  C_6 
REMARK    4  A    between atoms: C_7  and  C_8 
REMARK    5  A    between atoms: C_8  and  C_9 
REMARK    6  A    between atoms: C_9  and  C_10 
REMARK    7  A    between atoms: C_11  and  C_12 
REMARK    8  A    between atoms: C_12  and  N_13 
REMARK    9  A    between atoms: C_16  and  O_31 
REMARK   10  A    between atoms: C_18  and  O_30 
REMARK   11  A    between atoms: C_26  and  O_27 
ROOT
HETATM    1  N   UNK N   1      32.782  17.115   6.662  0.00  0.00    -0.308 N 
HETATM    2  C   UNK N   1      32.271  16.917   5.386  0.00  0.00     0.070 A 
HETATM    3  C   UNK N   1      33.181  16.524   4.369  0.00  0.00     0.068 A 
HETATM    4  C   UNK N   1      32.809  16.316   3.052  0.00  0.00     0.070 A 
HETATM    5  C   UNK N   1      31.490  16.479   2.683  0.00  0.00     0.075 A 
HETATM    6  C   UNK N   1      30.549  16.845   3.635  0.00  0.00     0.097 A 
HETATM    7  C   UNK N   1      30.911  17.069   4.986  0.00  0.00     0.093 A 
HETATM    8  N   UNK N   1      29.897  17.406   5.797  0.00  0.00    -0.349 N 
HETATM    9  C   UNK N   1      29.723  17.707   7.090  0.00  0.00     0.082 A 
HETATM   10  C   UNK N   1      30.763  17.760   8.046  0.00  0.00     0.062 A 
HETATM   11  C   UNK N   1      30.397  18.107   9.373  0.00  0.00     0.019 A 
HETATM   12  C   UNK N   1      29.086  18.380   9.745  0.00  0.00     0.004 A 
HETATM   13  C   UNK N   1      28.083  18.314   8.798  0.00  0.00     0.039 A 
HETATM   14  C   UNK N   1      28.393  17.984   7.484  0.00  0.00     0.093 A 
HETATM   15  C   UNK N   1      32.144  17.493   7.845  0.00  0.00     0.261 A 
HETATM   16  O   UNK N   1      32.848  17.600   8.846  0.00  0.00    -0.267 OA
HETATM   17  H   UNK N   1      29.045  17.442   5.306  0.00  0.00     0.166 HD
ENDROOT
BRANCH   1  18
HETATM   18  C   UNK N   1      34.235  16.852   6.849  0.00  0.00     0.160 C 
BRANCH  18  19
HETATM   19  C   UNK N   1      34.598  15.390   6.881  0.00  0.00    -0.004 C 
HETATM   20  C   UNK N   1      35.025  14.743   7.971  0.00  0.00    -0.086 C 
HETATM   21  C   UNK N   1      35.316  13.286   7.863  0.00  0.00     0.043 C 
BRANCH  20  22
HETATM   22  C   UNK N   1      35.257  15.430   9.284  0.00  0.00     0.037 C 
BRANCH  22  23
HETATM   23  C   UNK N   1      34.437  14.803  10.399  0.00  0.00     0.031 C 
BRANCH  23  24
HETATM   24  C   UNK N   1      35.047  15.114  11.730  0.00  0.00    -0.024 C 
HETATM   25  C   UNK N   1      35.834  14.249  12.382  0.00  0.00    -0.087 C 
HETATM   26  C   UNK N   1      36.155  12.899  11.814  0.00  0.00     0.043 C 
BRANCH  25  27
HETATM   27  C   UNK N   1      36.399  14.641  13.704  0.00  0.00     0.037 C 
BRANCH  27  28
HETATM   28  C   UNK N   1      36.747  13.403  14.506  0.00  0.00     0.031 C 
BRANCH  28  29
HETATM   29  C   UNK N   1      36.416  13.629  15.945  0.00  0.00    -0.024 C 
HETATM   30  C   UNK N   1      35.332  13.096  16.519  0.00  0.00    -0.091 C 
HETATM   31  C   UNK N   1      35.064  13.364  17.958  0.00  0.00     0.042 C 
HETATM   32  C   UNK N   1      34.387  12.224  15.753  0.00  0.00     0.042 C 
ENDBRANCH  28  29
ENDBRANCH  27  28
ENDBRANCH  25  27
ENDBRANCH  23  24
ENDBRANCH  22  23
ENDBRANCH  20  22
ENDBRANCH  18  19
ENDBRANCH   1  18
BRANCH   4  33
HETATM   33  O   UNK N   1      33.729  15.964   2.139  0.00  0.00    -0.361 OA
HETATM   34  H   UNK N   1      33.561  16.086   1.225  0.00  0.00     0.217 HD
ENDBRANCH   4  33
BRANCH   6  35
HETATM   35  O   UNK N   1      29.267  16.987   3.249  0.00  0.00    -0.358 OA
HETATM   36  H   UNK N   1      28.620  16.330   3.412  0.00  0.00     0.217 HD
ENDBRANCH   6  35
BRANCH  14  37
HETATM   37  O   UNK N   1      27.396  17.926   6.581  0.00  0.00    -0.358 OA
HETATM   38  H   UNK N   1      27.563  17.725   5.682  0.00  0.00     0.217 HD
ENDBRANCH  14  37
TORSDOF 11
ENDMDL
MODEL 9
REMARK VINA RESULT:      -7.2     11.046     13.082
REMARK  11 active torsions:
REMARK  status: ('A' for Active; 'I' for Inactive)
REMARK    1  A    between atoms: C_3  and  C_4 
REMARK    2  A    between atoms: C_4  and  C_5 
REMARK    3  A    between atoms: C_5  and  C_6 
REMARK    4  A    between atoms: C_7  and  C_8 
REMARK    5  A    between atoms: C_8  and  C_9 
REMARK    6  A    between atoms: C_9  and  C_10 
REMARK    7  A    between atoms: C_11  and  C_12 
REMARK    8  A    between atoms: C_12  and  N_13 
REMARK    9  A    between atoms: C_16  and  O_31 
REMARK   10  A    between atoms: C_18  and  O_30 
REMARK   11  A    between atoms: C_26  and  O_27 
ROOT
HETATM    1  N   UNK N   1      29.164  16.205   5.455  0.00  0.00    -0.308 N 
HETATM    2  C   UNK N   1      29.460  16.832   6.658  0.00  0.00     0.070 A 
HETATM    3  C   UNK N   1      28.369  17.273   7.452  0.00  0.00     0.068 A 
HETATM    4  C   UNK N   1      28.523  17.933   8.660  0.00  0.00     0.070 A 
HETATM    5  C   UNK N   1      29.790  18.175   9.147  0.00  0.00     0.075 A 
HETATM    6  C   UNK N   1      30.897  17.752   8.425  0.00  0.00     0.097 A 
HETATM    7  C   UNK N   1      30.761  17.082   7.185  0.00  0.00     0.093 A 
HETATM    8  N   UNK N   1      31.915  16.722   6.604  0.00  0.00    -0.349 N 
HETATM    9  C   UNK N   1      32.308  16.100   5.485  0.00  0.00     0.082 A 
HETATM   10  C   UNK N   1      31.429  15.617   4.488  0.00  0.00     0.062 A 
HETATM   11  C   UNK N   1      32.022  14.990   3.362  0.00  0.00     0.019 A 
HETATM   12  C   UNK N   1      33.396  14.838   3.221  0.00  0.00     0.004 A 
HETATM   13  C   UNK N   1      34.237  15.309   4.210  0.00  0.00     0.039 A 
HETATM   14  C   UNK N   1      33.704  15.935   5.330  0.00  0.00     0.093 A 
HETATM   15  C   UNK N   1      30.010  15.670   4.480  0.00  0.00     0.261 A 
HETATM   16  O   UNK N   1      29.474  15.168   3.496  0.00  0.00    -0.267 OA
HETATM   17  H   UNK N   1      32.688  16.989   7.152  0.00  0.00     0.166 HD
ENDROOT
BRANCH   1  18
HETATM   18  C   UNK N   1      27.723  16.016   5.135  0.00  0.00     0.160 C 
BRANCH  18  19
HETATM   19  C   UNK N   1      27.208  14.627   5.408  0.00  0.00    -0.004 C 
HETATM   20  C   UNK N   1      26.062  14.359   6.044  0.00  0.00    -0.086 C 
HETATM   21  C   UNK N   1      25.661  12.935   6.215  0.00  0.00     0.043 C 
BRANCH  20  22
HETATM   22  C   UNK N   1      25.185  15.431   6.621  0.00  0.00     0.037 C 
BRANCH  22  23
HETATM   23  C   UNK N   1      23.917  15.620   5.805  0.00  0.00     0.031 C 
BRANCH  23  24
HETATM   24  C   UNK N   1      23.787  17.045   5.370  0.00  0.00    -0.024 C 
HETATM   25  C   UNK N   1      24.210  17.476   4.174  0.00  0.00    -0.087 C 
HETATM   26  C   UNK N   1      24.848  16.545   3.187  0.00  0.00     0.043 C 
BRANCH  25  27
HETATM   27  C   UNK N   1      24.041  18.914   3.823  0.00  0.00     0.037 C 
BRANCH  27  28
HETATM   28  C   UNK N   1      25.396  19.549   3.580  0.00  0.00     0.031 C 
BRANCH  28  29
HETATM   29  C   UNK N   1      25.808  20.328   4.787  0.00  0.00    -0.024 C 
HETATM   30  C   UNK N   1      27.074  20.358   5.216  0.00  0.00    -0.091 C 
HETATM   31  C   UNK N   1      27.413  21.154   6.427  0.00  0.00     0.042 C 
HETATM   32  C   UNK N   1      28.163  19.623   4.501  0.00  0.00     0.042 C 
ENDBRANCH  28  29
ENDBRANCH  27  28
ENDBRANCH  25  27
ENDBRANCH  23  24
ENDBRANCH  22  23
ENDBRANCH  20  22
ENDBRANCH  18  19
ENDBRANCH   1  18
BRANCH   4  33
HETATM   33  O   UNK N   1      27.444  18.339   9.349  0.00  0.00    -0.361 OA
HETATM   34  H   UNK N   1      27.190  19.241   9.345  0.00  0.00     0.217 HD
ENDBRANCH   4  33
BRANCH   6  35
HETATM   35  O   UNK N   1      32.122  17.993   8.930  0.00  0.00    -0.358 OA
HETATM   36  H   UNK N   1      32.276  18.077   9.849  0.00  0.00     0.217 HD
ENDBRANCH   6  35
BRANCH  14  37
HETATM   37  O   UNK N   1      34.546  16.384   6.280  0.00  0.00    -0.358 OA
HETATM   38  H   UNK N   1      34.905  17.248   6.246  0.00  0.00     0.217 HD
ENDBRANCH  14  37
TORSDOF 11
ENDMDL
