REMARK  6 active torsions:
REMARK  status: ('A' for Active; 'I' for Inactive)
REMARK    1  A    between atoms: C_2  and  C_3 
REMARK    2  A    between atoms: C_2  and  O_21 
REMARK    3  A    between atoms: C_3  and  C_4 
REMARK    4  A    between atoms: C_4  and  C_5 
REMARK    5  A    between atoms: C_5  and  C_6 
REMARK    6  A    between atoms: C_6  and  N_7 
ROOT
HETATM    1  N   UNK N   1       5.802  -3.581  -0.007  0.00  0.00    -0.264 N 
HETATM    2  C   UNK N   1       7.049  -2.973   0.068  0.00  0.00     0.282 A 
HETATM    3  O   UNK N   1       7.151  -1.764   0.202  0.00  0.00    -0.265 OA
HETATM    4  C   UNK N   1       8.182  -3.768  -0.018  0.00  0.00     0.149 A 
HETATM    5  C   UNK N   1       8.080  -5.101  -0.163  0.00  0.00     0.145 A 
HETATM    6  N   UNK N   1       9.304  -5.661  -0.222  0.00  0.00    -0.336 N 
ATOM      7  HN  UNK N   1       9.537  -6.648  -0.326  1.00  0.00     0.168 HD
HETATM    8  C   UNK N   1      10.158  -4.608  -0.110  0.00  0.00     0.184 A 
HETATM    9  N   UNK N   1       9.482  -3.441   0.015  0.00  0.00    -0.340 N 
HETATM   10  C   UNK N   1      10.072  -2.120   0.150  0.00  0.00     0.157 C 
HETATM   11  N   UNK N   1       6.888  -5.736  -0.238  0.00  0.00    -0.287 N 
HETATM   12  C   UNK N   1       5.730  -4.979  -0.166  0.00  0.00     0.332 A 
HETATM   13  O   UNK N   1       4.652  -5.544  -0.240  0.00  0.00    -0.246 OA
HETATM   14  C   UNK N   1       6.834  -7.185  -0.393  0.00  0.00     0.163 C 
ENDROOT
BRANCH   1  15
HETATM   15  C   UNK N   1       4.626  -2.685   0.090  0.00  0.00     0.137 C 
BRANCH  15  16
HETATM   16  C   UNK N   1       3.272  -3.274  -0.276  0.00  0.00     0.020 C 
BRANCH  16  17
HETATM   17  C   UNK N   1       2.646  -3.981   0.912  0.00  0.00     0.004 C 
BRANCH  17  18
HETATM   18  C   UNK N   1       1.535  -4.873   0.391  0.00  0.00     0.031 C 
BRANCH  18  19
HETATM   19  C   UNK N   1       0.174  -4.207   0.508  0.00  0.00     0.114 C 
HETATM   20  C   UNK N   1      -0.845  -5.056  -0.222  0.00  0.00     0.039 C 
BRANCH  19  21
HETATM   21  O   UNK N   1       0.194  -2.932  -0.058  0.00  0.00    -0.396 OA
HETATM   22  H   UNK N   1       0.969  -2.501  -0.452  0.00  0.00     0.210 HD
ENDBRANCH  19  21
ENDBRANCH  18  19
ENDBRANCH  17  18
ENDBRANCH  16  17
ENDBRANCH  15  16
ENDBRANCH   1  15
TORSDOF 6
