MODEL 1
REMARK VINA RESULT:      -4.9      0.000      0.000
REMARK  4 active torsions:
REMARK  status: ('A' for Active; 'I' for Inactive)
REMARK    1  A    between atoms: C_3  and  C_2 
REMARK    2  A    between atoms: C_8  and  C_3 
REMARK    3  A    between atoms: C_9  and  C_7 
REMARK    4  A    between atoms: S_14  and  C_9 
ROOT
HETATM    1  C   UNK N   1      22.391  12.108  10.995  0.00  0.00     0.031 A 
HETATM    2  C   UNK N   1      21.021  12.131  11.275  0.00  0.00     0.089 A 
HETATM    3  C   UNK N   1      22.076  13.966   9.493  0.00  0.00     0.039 A 
HETATM    4  C   UNK N   1      22.927  13.035  10.094  0.00  0.00    -0.000 A 
HETATM    5  C   UNK N   1      20.717  13.962   9.793  0.00  0.00     0.009 A 
HETATM    6  N   UNK N   1      20.214  13.054  10.672  0.00  0.00    -0.369 N 
ATOM      7  HN  UNK N   1      19.217  13.061  10.884  1.00  0.00     0.165 HD
ENDROOT
BRANCH   4   8
HETATM    8  C   UNK N   1      24.370  13.050   9.765  0.00  0.00     0.071 C 
HETATM    9  N   UNK N   1      25.247  12.874  10.686  0.00  0.00    -0.393 N 
HETATM   10  H   UNK N   1      26.205  12.885  10.463  0.00  0.00     0.156 HD
ATOM     11  HN  UNK N   1      24.950  12.722  11.651  1.00  0.00     0.156 HD
BRANCH   8  12
HETATM   12  S   UNK N   1      24.921  13.315   8.075  0.00  0.00    -0.125 SA
HETATM   13  H   UNK N   1      24.083  13.886   7.168  0.00  0.00     0.108 HD
ENDBRANCH   8  12
ENDBRANCH   4   8
BRANCH   5  14
HETATM   14  C   UNK N   1      19.850  14.983   9.120  0.00  0.00     0.056 C 
BRANCH  14  15
HETATM   15  C   UNK N   1      20.583  16.236   8.686  0.00  0.00     0.002 C 
HETATM   16  C   UNK N   1      19.630  17.408   8.811  0.00  0.00     0.005 C 
ENDBRANCH  14  15
ENDBRANCH   5  14
TORSDOF 4
ENDMDL
MODEL 2
REMARK VINA RESULT:      -4.6      3.328      5.605
REMARK  4 active torsions:
REMARK  status: ('A' for Active; 'I' for Inactive)
REMARK    1  A    between atoms: C_3  and  C_2 
REMARK    2  A    between atoms: C_8  and  C_3 
REMARK    3  A    between atoms: C_9  and  C_7 
REMARK    4  A    between atoms: S_14  and  C_9 
ROOT
HETATM    1  C   UNK N   1      20.731  16.853   7.457  0.00  0.00     0.031 A 
HETATM    2  C   UNK N   1      21.689  15.925   7.038  0.00  0.00     0.089 A 
HETATM    3  C   UNK N   1      20.159  15.382   9.278  0.00  0.00     0.039 A 
HETATM    4  C   UNK N   1      19.956  16.580   8.590  0.00  0.00    -0.000 A 
HETATM    5  C   UNK N   1      21.121  14.479   8.834  0.00  0.00     0.009 A 
HETATM    6  N   UNK N   1      21.865  14.761   7.731  0.00  0.00    -0.369 N 
ATOM      7  HN  UNK N   1      22.567  14.091   7.416  1.00  0.00     0.165 HD
ENDROOT
BRANCH   4   8
HETATM    8  C   UNK N   1      18.930  17.531   9.073  0.00  0.00     0.071 C 
HETATM    9  N   UNK N   1      19.277  18.657   9.582  0.00  0.00    -0.393 N 
HETATM   10  H   UNK N   1      18.591  19.286   9.902  0.00  0.00     0.156 HD
ATOM     11  HN  UNK N   1      20.265  18.900   9.656  1.00  0.00     0.156 HD
BRANCH   8  12
HETATM   12  S   UNK N   1      17.182  17.130   8.955  0.00  0.00    -0.125 SA
HETATM   13  H   UNK N   1      16.780  15.830   8.981  0.00  0.00     0.108 HD
ENDBRANCH   8  12
ENDBRANCH   4   8
BRANCH   5  14
HETATM   14  C   UNK N   1      21.297  13.209   9.611  0.00  0.00     0.056 C 
BRANCH  14  15
HETATM   15  C   UNK N   1      22.676  13.028  10.209  0.00  0.00     0.002 C 
HETATM   16  C   UNK N   1      22.552  12.128  11.421  0.00  0.00     0.005 C 
ENDBRANCH  14  15
ENDBRANCH   5  14
TORSDOF 4
ENDMDL
MODEL 3
REMARK VINA RESULT:      -4.6      8.484      9.249
REMARK  4 active torsions:
REMARK  status: ('A' for Active; 'I' for Inactive)
REMARK    1  A    between atoms: C_3  and  C_2 
REMARK    2  A    between atoms: C_8  and  C_3 
REMARK    3  A    between atoms: C_9  and  C_7 
REMARK    4  A    between atoms: S_14  and  C_9 
ROOT
HETATM    1  C   UNK N   1      29.355  17.478   6.148  0.00  0.00     0.031 A 
HETATM    2  C   UNK N   1      29.347  17.374   4.754  0.00  0.00     0.089 A 
HETATM    3  C   UNK N   1      27.844  19.348   5.978  0.00  0.00     0.039 A 
HETATM    4  C   UNK N   1      28.596  18.476   6.770  0.00  0.00    -0.000 A 
HETATM    5  C   UNK N   1      27.858  19.217   4.593  0.00  0.00     0.009 A 
HETATM    6  N   UNK N   1      28.602  18.241   4.006  0.00  0.00    -0.369 N 
ATOM      7  HN  UNK N   1      28.604  18.156   2.990  1.00  0.00     0.165 HD
ENDROOT
BRANCH   4   8
HETATM    8  C   UNK N   1      28.572  18.626   8.242  0.00  0.00     0.071 C 
HETATM    9  N   UNK N   1      27.460  18.803   8.859  0.00  0.00    -0.393 N 
HETATM   10  H   UNK N   1      27.450  18.902   9.838  0.00  0.00     0.156 HD
ATOM     11  HN  UNK N   1      26.586  18.840   8.333  1.00  0.00     0.156 HD
BRANCH   8  12
HETATM   12  S   UNK N   1      30.096  18.565   9.193  0.00  0.00    -0.125 SA
HETATM   13  H   UNK N   1      30.333  19.494  10.158  0.00  0.00     0.108 HD
ENDBRANCH   8  12
ENDBRANCH   4   8
BRANCH   5  14
HETATM   14  C   UNK N   1      27.034  20.180   3.793  0.00  0.00     0.056 C 
BRANCH  14  15
HETATM   15  C   UNK N   1      25.540  20.049   4.004  0.00  0.00     0.002 C 
HETATM   16  C   UNK N   1      24.841  20.508   2.741  0.00  0.00     0.005 C 
ENDBRANCH  14  15
ENDBRANCH   5  14
TORSDOF 4
ENDMDL
MODEL 4
REMARK VINA RESULT:      -4.6     13.060     14.865
REMARK  4 active torsions:
REMARK  status: ('A' for Active; 'I' for Inactive)
REMARK    1  A    between atoms: C_3  and  C_2 
REMARK    2  A    between atoms: C_8  and  C_3 
REMARK    3  A    between atoms: C_9  and  C_7 
REMARK    4  A    between atoms: S_14  and  C_9 
ROOT
HETATM    1  C   UNK N   1      36.573  13.324  11.222  0.00  0.00     0.031 A 
HETATM    2  C   UNK N   1      37.414  12.475  11.947  0.00  0.00     0.089 A 
HETATM    3  C   UNK N   1      35.684  14.157  13.301  0.00  0.00     0.039 A 
HETATM    4  C   UNK N   1      35.697  14.176  11.904  0.00  0.00    -0.000 A 
HETATM    5  C   UNK N   1      36.534  13.300  13.993  0.00  0.00     0.009 A 
HETATM    6  N   UNK N   1      37.378  12.479  13.313  0.00  0.00    -0.369 N 
ATOM      7  HN  UNK N   1      37.996  11.856  13.832  1.00  0.00     0.165 HD
ENDROOT
BRANCH   4   8
HETATM    8  C   UNK N   1      34.788  15.093  11.180  0.00  0.00     0.071 C 
HETATM    9  N   UNK N   1      33.556  14.778  11.001  0.00  0.00    -0.393 N 
HETATM   10  H   UNK N   1      32.956  15.390  10.519  0.00  0.00     0.156 HD
ATOM     11  HN  UNK N   1      33.200  13.891  11.358  1.00  0.00     0.156 HD
BRANCH   8  12
HETATM   12  S   UNK N   1      35.388  16.661  10.539  0.00  0.00    -0.125 SA
HETATM   13  H   UNK N   1      34.598  17.767  10.599  0.00  0.00     0.108 HD
ENDBRANCH   8  12
ENDBRANCH   4   8
BRANCH   5  14
HETATM   14  C   UNK N   1      36.478  13.322  15.491  0.00  0.00     0.056 C 
BRANCH  14  15
HETATM   15  C   UNK N   1      35.107  13.035  16.069  0.00  0.00     0.002 C 
HETATM   16  C   UNK N   1      35.128  13.402  17.539  0.00  0.00     0.005 C 
ENDBRANCH  14  15
ENDBRANCH   5  14
TORSDOF 4
ENDMDL
MODEL 5
REMARK VINA RESULT:      -4.5      9.282     11.279
REMARK  4 active torsions:
REMARK  status: ('A' for Active; 'I' for Inactive)
REMARK    1  A    between atoms: C_3  and  C_2 
REMARK    2  A    between atoms: C_8  and  C_3 
REMARK    3  A    between atoms: C_9  and  C_7 
REMARK    4  A    between atoms: S_14  and  C_9 
ROOT
HETATM    1  C   UNK N   1      33.795  17.587   6.605  0.00  0.00     0.031 A 
HETATM    2  C   UNK N   1      33.899  17.709   7.994  0.00  0.00     0.089 A 
HETATM    3  C   UNK N   1      31.436  17.167   6.857  0.00  0.00     0.039 A 
HETATM    4  C   UNK N   1      32.550  17.313   6.028  0.00  0.00    -0.000 A 
HETATM    5  C   UNK N   1      31.573  17.295   8.236  0.00  0.00     0.009 A 
HETATM    6  N   UNK N   1      32.791  17.561   8.780  0.00  0.00    -0.369 N 
ATOM      7  HN  UNK N   1      32.879  17.653   9.791  1.00  0.00     0.165 HD
ENDROOT
BRANCH   4   8
HETATM    8  C   UNK N   1      32.390  17.174   4.563  0.00  0.00     0.071 C 
HETATM    9  N   UNK N   1      31.614  17.967   3.917  0.00  0.00    -0.393 N 
HETATM   10  H   UNK N   1      31.511  17.871   2.943  0.00  0.00     0.156 HD
ATOM     11  HN  UNK N   1      31.104  18.698   4.414  1.00  0.00     0.156 HD
BRANCH   8  12
HETATM   12  S   UNK N   1      33.277  15.897   3.662  0.00  0.00    -0.125 SA
HETATM   13  H   UNK N   1      32.703  14.679   3.467  0.00  0.00     0.108 HD
ENDBRANCH   8  12
ENDBRANCH   4   8
BRANCH   5  14
HETATM   14  C   UNK N   1      30.344  17.129   9.078  0.00  0.00     0.056 C 
BRANCH  14  15
HETATM   15  C   UNK N   1      29.664  18.429   9.454  0.00  0.00     0.002 C 
HETATM   16  C   UNK N   1      28.206  18.332   9.056  0.00  0.00     0.005 C 
ENDBRANCH  14  15
ENDBRANCH   5  14
TORSDOF 4
ENDMDL
MODEL 6
REMARK VINA RESULT:      -4.5      2.061      2.248
REMARK  4 active torsions:
REMARK  status: ('A' for Active; 'I' for Inactive)
REMARK    1  A    between atoms: C_3  and  C_2 
REMARK    2  A    between atoms: C_8  and  C_3 
REMARK    3  A    between atoms: C_9  and  C_7 
REMARK    4  A    between atoms: S_14  and  C_9 
ROOT
HETATM    1  C   UNK N   1      23.053  11.746   8.827  0.00  0.00     0.031 A 
HETATM    2  C   UNK N   1      22.194  12.003   7.755  0.00  0.00     0.089 A 
HETATM    3  C   UNK N   1      21.966  13.501  10.070  0.00  0.00     0.039 A 
HETATM    4  C   UNK N   1      22.940  12.503   9.999  0.00  0.00    -0.000 A 
HETATM    5  C   UNK N   1      21.126  13.732   8.984  0.00  0.00     0.009 A 
HETATM    6  N   UNK N   1      21.251  12.986   7.853  0.00  0.00    -0.369 N 
ATOM      7  HN  UNK N   1      20.630  13.165   7.065  1.00  0.00     0.165 HD
ENDROOT
BRANCH   4   8
HETATM    8  C   UNK N   1      23.826  12.268  11.161  0.00  0.00     0.071 C 
HETATM    9  N   UNK N   1      25.099  12.380  11.039  0.00  0.00    -0.393 N 
HETATM   10  H   UNK N   1      25.685  12.222  11.814  0.00  0.00     0.156 HD
ATOM     11  HN  UNK N   1      25.505  12.631  10.137  1.00  0.00     0.156 HD
BRANCH   8  12
HETATM   12  S   UNK N   1      23.140  11.823  12.761  0.00  0.00    -0.125 SA
HETATM   13  H   UNK N   1      23.880  11.093  13.640  0.00  0.00     0.108 HD
ENDBRANCH   8  12
ENDBRANCH   4   8
BRANCH   5  14
HETATM   14  C   UNK N   1      20.099  14.816   9.114  0.00  0.00     0.056 C 
BRANCH  14  15
HETATM   15  C   UNK N   1      20.569  16.181   8.656  0.00  0.00     0.002 C 
HETATM   16  C   UNK N   1      19.415  17.151   8.799  0.00  0.00     0.005 C 
ENDBRANCH  14  15
ENDBRANCH   5  14
TORSDOF 4
ENDMDL
MODEL 7
REMARK VINA RESULT:      -4.4      8.329     10.327
REMARK  4 active torsions:
REMARK  status: ('A' for Active; 'I' for Inactive)
REMARK    1  A    between atoms: C_3  and  C_2 
REMARK    2  A    between atoms: C_8  and  C_3 
REMARK    3  A    between atoms: C_9  and  C_7 
REMARK    4  A    between atoms: S_14  and  C_9 
ROOT
HETATM    1  C   UNK N   1      28.539  18.571   8.702  0.00  0.00     0.031 A 
HETATM    2  C   UNK N   1      29.540  18.529   9.677  0.00  0.00     0.089 A 
HETATM    3  C   UNK N   1      30.028  17.441   7.180  0.00  0.00     0.039 A 
HETATM    4  C   UNK N   1      28.784  18.022   7.438  0.00  0.00    -0.000 A 
HETATM    5  C   UNK N   1      31.003  17.415   8.174  0.00  0.00     0.009 A 
HETATM    6  N   UNK N   1      30.747  17.954   9.396  0.00  0.00    -0.369 N 
ATOM      7  HN  UNK N   1      31.470  17.929  10.115  1.00  0.00     0.165 HD
ENDROOT
BRANCH   4   8
HETATM    8  C   UNK N   1      27.756  18.042   6.373  0.00  0.00     0.071 C 
HETATM    9  N   UNK N   1      26.928  19.020   6.289  0.00  0.00    -0.393 N 
HETATM   10  H   UNK N   1      26.247  19.029   5.579  0.00  0.00     0.156 HD
ATOM     11  HN  UNK N   1      26.977  19.788   6.959  1.00  0.00     0.156 HD
BRANCH   8  12
HETATM   12  S   UNK N   1      27.647  16.703   5.180  0.00  0.00    -0.125 SA
HETATM   13  H   UNK N   1      28.774  16.049   4.786  0.00  0.00     0.108 HD
ENDBRANCH   8  12
ENDBRANCH   4   8
BRANCH   5  14
HETATM   14  C   UNK N   1      32.320  16.781   7.842  0.00  0.00     0.056 C 
BRANCH  14  15
HETATM   15  C   UNK N   1      33.276  17.681   7.088  0.00  0.00     0.002 C 
HETATM   16  C   UNK N   1      34.210  18.326   8.092  0.00  0.00     0.005 C 
ENDBRANCH  14  15
ENDBRANCH   5  14
TORSDOF 4
ENDMDL
MODEL 8
REMARK VINA RESULT:      -4.4     13.754     15.091
REMARK  4 active torsions:
REMARK  status: ('A' for Active; 'I' for Inactive)
REMARK    1  A    between atoms: C_3  and  C_2 
REMARK    2  A    between atoms: C_8  and  C_3 
REMARK    3  A    between atoms: C_9  and  C_7 
REMARK    4  A    between atoms: S_14  and  C_9 
ROOT
HETATM    1  C   UNK N   1      36.295  13.978  15.896  0.00  0.00     0.031 A 
HETATM    2  C   UNK N   1      36.312  13.591  14.552  0.00  0.00     0.089 A 
HETATM    3  C   UNK N   1      34.567  12.348  16.304  0.00  0.00     0.039 A 
HETATM    4  C   UNK N   1      35.413  13.350  16.784  0.00  0.00    -0.000 A 
HETATM    5  C   UNK N   1      34.609  11.986  14.960  0.00  0.00     0.009 A 
HETATM    6  N   UNK N   1      35.473  12.607  14.112  0.00  0.00    -0.369 N 
ATOM      7  HN  UNK N   1      35.494  12.333  13.130  1.00  0.00     0.165 HD
ENDROOT
BRANCH   4   8
HETATM    8  C   UNK N   1      35.359  13.725  18.214  0.00  0.00     0.071 C 
HETATM    9  N   UNK N   1      35.373  14.961  18.562  0.00  0.00    -0.393 N 
HETATM   10  H   UNK N   1      35.336  15.205  19.515  0.00  0.00     0.156 HD
ATOM     11  HN  UNK N   1      35.422  15.691  17.850  1.00  0.00     0.156 HD
BRANCH   8  12
HETATM   12  S   UNK N   1      35.271  12.462  19.489  0.00  0.00    -0.125 SA
HETATM   13  H   UNK N   1      35.693  12.740  20.753  0.00  0.00     0.108 HD
ENDBRANCH   8  12
ENDBRANCH   4   8
BRANCH   5  14
HETATM   14  C   UNK N   1      33.680  10.904  14.500  0.00  0.00     0.056 C 
BRANCH  14  15
HETATM   15  C   UNK N   1      33.972  10.378  13.110  0.00  0.00     0.002 C 
HETATM   16  C   UNK N   1      34.976   9.251  13.231  0.00  0.00     0.005 C 
ENDBRANCH  14  15
ENDBRANCH   5  14
TORSDOF 4
ENDMDL
MODEL 9
REMARK VINA RESULT:      -4.4     10.013     11.833
REMARK  4 active torsions:
REMARK  status: ('A' for Active; 'I' for Inactive)
REMARK    1  A    between atoms: C_3  and  C_2 
REMARK    2  A    between atoms: C_8  and  C_3 
REMARK    3  A    between atoms: C_9  and  C_7 
REMARK    4  A    between atoms: S_14  and  C_9 
ROOT
HETATM    1  C   UNK N   1      31.552  17.837   8.620  0.00  0.00     0.031 A 
HETATM    2  C   UNK N   1      30.321  17.708   7.969  0.00  0.00     0.089 A 
HETATM    3  C   UNK N   1      32.658  17.224   6.568  0.00  0.00     0.039 A 
HETATM    4  C   UNK N   1      32.736  17.592   7.914  0.00  0.00    -0.000 A 
HETATM    5  C   UNK N   1      31.417  17.105   5.950  0.00  0.00     0.009 A 
HETATM    6  N   UNK N   1      30.277  17.346   6.653  0.00  0.00    -0.369 N 
ATOM      7  HN  UNK N   1      29.374  17.256   6.188  1.00  0.00     0.165 HD
ENDROOT
BRANCH   4   8
HETATM    8  C   UNK N   1      34.062  17.715   8.559  0.00  0.00     0.071 C 
HETATM    9  N   UNK N   1      34.769  18.773   8.393  0.00  0.00    -0.393 N 
HETATM   10  H   UNK N   1      35.650  18.851   8.824  0.00  0.00     0.156 HD
ATOM     11  HN  UNK N   1      34.417  19.536   7.812  1.00  0.00     0.156 HD
BRANCH   8  12
HETATM   12  S   UNK N   1      34.706  16.389   9.586  0.00  0.00    -0.125 SA
HETATM   13  H   UNK N   1      33.966  15.265   9.790  0.00  0.00     0.108 HD
ENDBRANCH   8  12
ENDBRANCH   4   8
BRANCH   5  14
HETATM   14  C   UNK N   1      31.392  16.707   4.505  0.00  0.00     0.056 C 
BRANCH  14  15
HETATM   15  C   UNK N   1      32.484  17.336   3.665  0.00  0.00     0.002 C 
HETATM   16  C   UNK N   1      33.221  16.229   2.941  0.00  0.00     0.005 C 
ENDBRANCH  14  15
ENDBRANCH   5  14
TORSDOF 4
ENDMDL
