MODEL 1
REMARK VINA RESULT:      -9.1      0.000      0.000
REMARK  2 active torsions:
REMARK  status: ('A' for Active; 'I' for Inactive)
REMARK    1  A    between atoms: C_18  and  O_30 
REMARK    2  A    between atoms: N_29  and  C_24 
ROOT
HETATM    1  C   UNK N   1      31.705  23.034  -7.008  0.00  0.00     0.020 C 
HETATM    2  C   UNK N   1      26.742  24.034  -3.533  0.00  0.00     0.022 C 
HETATM    3  C   UNK N   1      29.641  20.945  -6.383  0.00  0.00    -0.023 C 
HETATM    4  C   UNK N   1      28.781  22.069  -6.949  0.00  0.00     0.033 C 
HETATM    5  C   UNK N   1      26.150  24.066  -6.415  0.00  0.00     0.035 C 
HETATM    6  C   UNK N   1      25.673  25.450  -6.032  0.00  0.00     0.000 C 
HETATM    7  C   UNK N   1      32.588  21.972  -3.613  0.00  0.00     0.033 C 
HETATM    8  C   UNK N   1      29.775  24.236  -3.930  0.00  0.00     0.007 C 
HETATM    9  C   UNK N   1      32.352  23.040  -4.671  0.00  0.00     0.016 C 
HETATM   10  C   UNK N   1      28.767  25.404  -4.009  0.00  0.00     0.016 C 
HETATM   11  C   UNK N   1      31.511  20.164  -4.966  0.00  0.00     0.066 C 
HETATM   12  C   UNK N   1      30.757  21.255  -5.684  0.00  0.00    -0.072 C 
HETATM   13  C   UNK N   1      32.812  20.644  -4.321  0.00  0.00     0.122 C 
HETATM   14  C   UNK N   1      28.565  23.014  -5.760  0.00  0.00    -0.001 C 
HETATM   15  C   UNK N   1      27.600  24.199  -5.932  0.00  0.00     0.008 C 
HETATM   16  C   UNK N   1      29.939  23.650  -5.339  0.00  0.00     0.003 C 
HETATM   17  C   UNK N   1      26.416  25.936  -5.029  0.00  0.00     0.023 C 
HETATM   18  C   UNK N   1      31.173  22.721  -5.605  0.00  0.00    -0.017 C 
HETATM   19  C   UNK N   1      27.422  24.927  -4.581  0.00  0.00     0.003 C 
ENDROOT
BRANCH  17  20
HETATM   20  N   UNK N   1      26.403  27.322  -4.610  0.00  0.00    -0.309 N 
HETATM   21  C   UNK N   1      25.685  27.826  -3.573  0.00  0.00     0.189 A 
HETATM   22  N   UNK N   1      25.920  29.152  -3.395  0.00  0.00    -0.350 N 
HETATM   23  C   UNK N   1      26.803  29.468  -4.353  0.00  0.00     0.060 A 
ATOM     24  HN  UNK N   1      25.513  29.768  -2.691  1.00  0.00     0.166 HD
HETATM   25  C   UNK N   1      27.377  30.710  -4.604  0.00  0.00     0.032 A 
HETATM   26  C   UNK N   1      27.099  28.365  -5.096  0.00  0.00     0.067 A 
HETATM   27  C   UNK N   1      28.286  30.800  -5.673  0.00  0.00     0.002 A 
HETATM   28  C   UNK N   1      28.595  29.658  -6.449  0.00  0.00     0.002 A 
HETATM   29  C   UNK N   1      27.999  28.414  -6.159  0.00  0.00     0.032 A 
ENDBRANCH  17  20
BRANCH  13  30
HETATM   30  O   UNK N   1      33.248  19.693  -3.401  0.00  0.00    -0.395 OA
HETATM   31  H   UNK N   1      33.732  19.712  -2.562  0.00  0.00     0.210 HD
ENDBRANCH  13  30
TORSDOF 2
ENDMDL
MODEL 2
REMARK VINA RESULT:      -8.3     13.985     17.662
REMARK  2 active torsions:
REMARK  status: ('A' for Active; 'I' for Inactive)
REMARK    1  A    between atoms: C_18  and  O_30 
REMARK    2  A    between atoms: N_29  and  C_24 
ROOT
HETATM    1  C   UNK N   1      28.781  15.725   6.063  0.00  0.00     0.020 C 
HETATM    2  C   UNK N   1      34.160  18.213   7.670  0.00  0.00     0.022 C 
HETATM    3  C   UNK N   1      30.408  17.511   4.279  0.00  0.00    -0.023 C 
HETATM    4  C   UNK N   1      31.426  16.441   4.658  0.00  0.00     0.033 C 
HETATM    5  C   UNK N   1      34.459  15.851   5.940  0.00  0.00     0.035 C 
HETATM    6  C   UNK N   1      35.253  15.399   7.146  0.00  0.00     0.000 C 
HETATM    7  C   UNK N   1      28.031  19.082   7.328  0.00  0.00     0.033 C 
HETATM    8  C   UNK N   1      31.215  17.649   8.304  0.00  0.00     0.007 C 
HETATM    9  C   UNK N   1      28.383  17.615   7.529  0.00  0.00     0.016 C 
HETATM   10  C   UNK N   1      32.434  16.960   8.956  0.00  0.00     0.016 C 
HETATM   11  C   UNK N   1      28.563  19.043   4.884  0.00  0.00     0.066 C 
HETATM   12  C   UNK N   1      29.457  17.863   5.174  0.00  0.00    -0.072 C 
HETATM   13  C   UNK N   1      27.463  19.247   5.926  0.00  0.00     0.122 C 
HETATM   14  C   UNK N   1      31.953  16.889   6.027  0.00  0.00    -0.001 C 
HETATM   15  C   UNK N   1      33.125  16.114   6.650  0.00  0.00     0.008 C 
HETATM   16  C   UNK N   1      30.793  16.818   7.084  0.00  0.00     0.003 C 
HETATM   17  C   UNK N   1      34.733  15.916   8.267  0.00  0.00     0.023 C 
HETATM   18  C   UNK N   1      29.370  17.078   6.479  0.00  0.00    -0.017 C 
HETATM   19  C   UNK N   1      33.585  16.817   7.946  0.00  0.00     0.003 C 
ENDROOT
BRANCH  17  20
HETATM   20  N   UNK N   1      35.080  15.472   9.600  0.00  0.00    -0.309 N 
HETATM   21  C   UNK N   1      35.546  16.265  10.598  0.00  0.00     0.189 A 
HETATM   22  N   UNK N   1      35.733  15.568  11.749  0.00  0.00    -0.350 N 
HETATM   23  C   UNK N   1      35.373  14.313  11.444  0.00  0.00     0.060 A 
ATOM     24  HN  UNK N   1      36.072  15.921  12.645  1.00  0.00     0.166 HD
HETATM   25  C   UNK N   1      35.372  13.202  12.281  0.00  0.00     0.032 A 
HETATM   26  C   UNK N   1      34.979  14.245  10.142  0.00  0.00     0.067 A 
HETATM   27  C   UNK N   1      34.948  11.978  11.733  0.00  0.00     0.002 A 
HETATM   28  C   UNK N   1      34.540  11.902  10.381  0.00  0.00     0.002 A 
HETATM   29  C   UNK N   1      34.549  13.052   9.565  0.00  0.00     0.032 A 
ENDBRANCH  17  20
BRANCH  13  30
HETATM   30  O   UNK N   1      26.928  20.525   5.787  0.00  0.00    -0.395 OA
HETATM   31  H   UNK N   1      26.154  20.908   5.347  0.00  0.00     0.210 HD
ENDBRANCH  13  30
TORSDOF 2
ENDMDL
MODEL 3
REMARK VINA RESULT:      -8.2     13.586     17.071
REMARK  2 active torsions:
REMARK  status: ('A' for Active; 'I' for Inactive)
REMARK    1  A    between atoms: C_18  and  O_30 
REMARK    2  A    between atoms: N_29  and  C_24 
ROOT
HETATM    1  C   UNK N   1      27.329  16.537   6.114  0.00  0.00     0.020 C 
HETATM    2  C   UNK N   1      33.393  17.207   6.807  0.00  0.00     0.022 C 
HETATM    3  C   UNK N   1      29.132  17.770   4.053  0.00  0.00    -0.023 C 
HETATM    4  C   UNK N   1      29.815  16.430   4.301  0.00  0.00     0.033 C 
HETATM    5  C   UNK N   1      32.679  14.905   5.119  0.00  0.00     0.035 C 
HETATM    6  C   UNK N   1      33.471  14.204   6.202  0.00  0.00     0.000 C 
HETATM    7  C   UNK N   1      27.856  19.934   7.385  0.00  0.00     0.033 C 
HETATM    8  C   UNK N   1      30.553  17.567   7.901  0.00  0.00     0.007 C 
HETATM    9  C   UNK N   1      27.765  18.427   7.570  0.00  0.00     0.016 C 
HETATM   10  C   UNK N   1      31.586  16.522   8.378  0.00  0.00     0.016 C 
HETATM   11  C   UNK N   1      27.966  19.784   4.890  0.00  0.00     0.066 C 
HETATM   12  C   UNK N   1      28.486  18.380   5.073  0.00  0.00    -0.072 C 
HETATM   13  C   UNK N   1      27.157  20.296   6.083  0.00  0.00     0.122 C 
HETATM   14  C   UNK N   1      30.660  16.665   5.560  0.00  0.00    -0.001 C 
HETATM   15  C   UNK N   1      31.617  15.553   6.018  0.00  0.00     0.008 C 
HETATM   16  C   UNK N   1      29.712  16.933   6.784  0.00  0.00     0.003 C 
HETATM   17  C   UNK N   1      33.314  14.833   7.374  0.00  0.00     0.023 C 
HETATM   18  C   UNK N   1      28.363  17.633   6.398  0.00  0.00    -0.017 C 
HETATM   19  C   UNK N   1      32.465  16.051   7.208  0.00  0.00     0.003 C 
ENDROOT
BRANCH  17  20
HETATM   20  N   UNK N   1      33.709  14.276   8.650  0.00  0.00    -0.309 N 
HETATM   21  C   UNK N   1      33.447  13.013   9.074  0.00  0.00     0.189 A 
HETATM   22  N   UNK N   1      33.990  12.769  10.295  0.00  0.00    -0.350 N 
HETATM   23  C   UNK N   1      34.598  13.917  10.628  0.00  0.00     0.060 A 
ATOM     24  HN  UNK N   1      33.944  11.905  10.837  1.00  0.00     0.166 HD
HETATM   25  C   UNK N   1      35.315  14.193  11.787  0.00  0.00     0.032 A 
HETATM   26  C   UNK N   1      34.430  14.837   9.638  0.00  0.00     0.067 A 
HETATM   27  C   UNK N   1      35.868  15.480  11.916  0.00  0.00     0.002 A 
HETATM   28  C   UNK N   1      35.694  16.440  10.891  0.00  0.00     0.002 A 
HETATM   29  C   UNK N   1      34.967  16.119   9.727  0.00  0.00     0.032 A 
ENDBRANCH  17  20
BRANCH  13  30
HETATM   30  O   UNK N   1      27.028  21.680   5.992  0.00  0.00    -0.395 OA
HETATM   31  H   UNK N   1      26.463  22.351   6.404  0.00  0.00     0.210 HD
ENDBRANCH  13  30
TORSDOF 2
ENDMDL
MODEL 4
REMARK VINA RESULT:      -8.2     16.507     20.371
REMARK  2 active torsions:
REMARK  status: ('A' for Active; 'I' for Inactive)
REMARK    1  A    between atoms: C_18  and  O_30 
REMARK    2  A    between atoms: N_29  and  C_24 
ROOT
HETATM    1  C   UNK N   1      32.954  13.282   6.194  0.00  0.00     0.020 C 
HETATM    2  C   UNK N   1      36.100  16.225  10.569  0.00  0.00     0.022 C 
HETATM    3  C   UNK N   1      35.144  15.261   5.648  0.00  0.00    -0.023 C 
HETATM    4  C   UNK N   1      35.839  14.283   6.588  0.00  0.00     0.033 C 
HETATM    5  C   UNK N   1      37.577  13.949   9.428  0.00  0.00     0.035 C 
HETATM    6  C   UNK N   1      37.548  13.542  10.885  0.00  0.00     0.000 C 
HETATM    7  C   UNK N   1      31.297  16.517   6.662  0.00  0.00     0.033 C 
HETATM    8  C   UNK N   1      33.413  15.366   9.370  0.00  0.00     0.007 C 
HETATM    9  C   UNK N   1      31.597  15.085   7.081  0.00  0.00     0.016 C 
HETATM   10  C   UNK N   1      34.074  14.780  10.638  0.00  0.00     0.016 C 
HETATM   11  C   UNK N   1      33.165  16.594   5.000  0.00  0.00     0.066 C 
HETATM   12  C   UNK N   1      33.821  15.497   5.800  0.00  0.00    -0.072 C 
HETATM   13  C   UNK N   1      31.649  16.665   5.189  0.00  0.00     0.122 C 
HETATM   14  C   UNK N   1      35.415  14.742   7.990  0.00  0.00    -0.001 C 
HETATM   15  C   UNK N   1      36.062  14.065   9.209  0.00  0.00     0.008 C 
HETATM   16  C   UNK N   1      33.869  14.532   8.164  0.00  0.00     0.003 C 
HETATM   17  C   UNK N   1      36.422  13.977  11.467  0.00  0.00     0.023 C 
HETATM   18  C   UNK N   1      33.056  14.672   6.831  0.00  0.00    -0.017 C 
HETATM   19  C   UNK N   1      35.605  14.773  10.503  0.00  0.00     0.003 C 
ENDROOT
BRANCH  17  20
HETATM   20  N   UNK N   1      35.958  13.532  12.764  0.00  0.00    -0.309 N 
HETATM   21  C   UNK N   1      36.163  14.180  13.939  0.00  0.00     0.189 A 
HETATM   22  N   UNK N   1      35.563  13.542  14.978  0.00  0.00    -0.350 N 
HETATM   23  C   UNK N   1      34.977  12.472  14.421  0.00  0.00     0.060 A 
ATOM     24  HN  UNK N   1      35.560  13.816  15.960  1.00  0.00     0.166 HD
HETATM   25  C   UNK N   1      34.223  11.490  15.054  0.00  0.00     0.032 A 
HETATM   26  C   UNK N   1      35.215  12.456  13.079  0.00  0.00     0.067 A 
HETATM   27  C   UNK N   1      33.705  10.455  14.256  0.00  0.00     0.002 A 
HETATM   28  C   UNK N   1      33.951  10.433  12.863  0.00  0.00     0.002 A 
HETATM   29  C   UNK N   1      34.715  11.450  12.256  0.00  0.00     0.032 A 
ENDBRANCH  17  20
BRANCH  13  30
HETATM   30  O   UNK N   1      31.182  17.890   4.719  0.00  0.00    -0.395 OA
HETATM   31  H   UNK N   1      30.377  18.202   4.279  0.00  0.00     0.210 HD
ENDBRANCH  13  30
TORSDOF 2
ENDMDL
MODEL 5
REMARK VINA RESULT:      -8.1      2.309      3.950
REMARK  2 active torsions:
REMARK  status: ('A' for Active; 'I' for Inactive)
REMARK    1  A    between atoms: C_18  and  O_30 
REMARK    2  A    between atoms: N_29  and  C_24 
ROOT
HETATM    1  C   UNK N   1      32.602  19.921  -5.737  0.00  0.00     0.020 C 
HETATM    2  C   UNK N   1      30.505  25.225  -3.462  0.00  0.00     0.022 C 
HETATM    3  C   UNK N   1      33.693  21.242  -3.271  0.00  0.00    -0.023 C 
HETATM    4  C   UNK N   1      32.207  21.160  -2.946  0.00  0.00     0.033 C 
HETATM    5  C   UNK N   1      29.488  22.873  -2.015  0.00  0.00     0.035 C 
HETATM    6  C   UNK N   1      28.182  23.501  -2.449  0.00  0.00     0.000 C 
HETATM    7  C   UNK N   1      34.768  22.553  -7.084  0.00  0.00     0.033 C 
HETATM    8  C   UNK N   1      31.522  23.591  -5.847  0.00  0.00     0.007 C 
HETATM    9  C   UNK N   1      33.470  21.759  -7.060  0.00  0.00     0.016 C 
HETATM   10  C   UNK N   1      30.059  24.014  -5.592  0.00  0.00     0.016 C 
HETATM   11  C   UNK N   1      35.531  21.684  -4.866  0.00  0.00     0.066 C 
HETATM   12  C   UNK N   1      34.079  21.418  -4.556  0.00  0.00    -0.072 C 
HETATM   13  C   UNK N   1      35.835  21.742  -6.363  0.00  0.00     0.122 C 
HETATM   14  C   UNK N   1      31.598  22.380  -3.649  0.00  0.00    -0.001 C 
HETATM   15  C   UNK N   1      30.115  22.702  -3.405  0.00  0.00     0.008 C 
HETATM   16  C   UNK N   1      31.741  22.214  -5.204  0.00  0.00     0.003 C 
HETATM   17  C   UNK N   1      28.333  24.121  -3.627  0.00  0.00     0.023 C 
HETATM   18  C   UNK N   1      33.006  21.397  -5.640  0.00  0.00    -0.017 C 
HETATM   19  C   UNK N   1      29.753  24.040  -4.086  0.00  0.00     0.003 C 
ENDROOT
BRANCH  17  20
HETATM   20  N   UNK N   1      27.232  24.584  -4.445  0.00  0.00    -0.309 N 
HETATM   21  C   UNK N   1      26.543  23.830  -5.340  0.00  0.00     0.189 A 
HETATM   22  N   UNK N   1      25.533  24.531  -5.917  0.00  0.00    -0.350 N 
HETATM   23  C   UNK N   1      25.610  25.750  -5.362  0.00  0.00     0.060 A 
ATOM     24  HN  UNK N   1      24.866  24.204  -6.617  1.00  0.00     0.166 HD
HETATM   25  C   UNK N   1      24.792  26.848  -5.606  0.00  0.00     0.032 A 
HETATM   26  C   UNK N   1      26.639  25.791  -4.471  0.00  0.00     0.067 A 
HETATM   27  C   UNK N   1      25.067  28.031  -4.897  0.00  0.00     0.002 A 
HETATM   28  C   UNK N   1      26.137  28.080  -3.972  0.00  0.00     0.002 A 
HETATM   29  C   UNK N   1      26.939  26.943  -3.746  0.00  0.00     0.032 A 
ENDBRANCH  17  20
BRANCH  13  30
HETATM   30  O   UNK N   1      37.081  22.334  -6.558  0.00  0.00    -0.395 OA
HETATM   31  H   UNK N   1      37.749  22.746  -5.989  0.00  0.00     0.210 HD
ENDBRANCH  13  30
TORSDOF 2
ENDMDL
MODEL 6
REMARK VINA RESULT:      -7.9     17.107     20.833
REMARK  2 active torsions:
REMARK  status: ('A' for Active; 'I' for Inactive)
REMARK    1  A    between atoms: C_18  and  O_30 
REMARK    2  A    between atoms: N_29  and  C_24 
ROOT
HETATM    1  C   UNK N   1      33.213  13.074   6.499  0.00  0.00     0.020 C 
HETATM    2  C   UNK N   1      36.296  15.811  11.049  0.00  0.00     0.022 C 
HETATM    3  C   UNK N   1      35.633  14.804   6.088  0.00  0.00    -0.023 C 
HETATM    4  C   UNK N   1      36.147  13.789   7.103  0.00  0.00     0.033 C 
HETATM    5  C   UNK N   1      37.613  13.365  10.080  0.00  0.00     0.035 C 
HETATM    6  C   UNK N   1      37.428  13.006  11.538  0.00  0.00     0.000 C 
HETATM    7  C   UNK N   1      31.868  16.473   6.761  0.00  0.00     0.033 C 
HETATM    8  C   UNK N   1      33.636  15.195   9.656  0.00  0.00     0.007 C 
HETATM    9  C   UNK N   1      31.985  15.032   7.234  0.00  0.00     0.016 C 
HETATM   10  C   UNK N   1      34.131  14.582  10.985  0.00  0.00     0.016 C 
HETATM   11  C   UNK N   1      33.859  16.311   5.254  0.00  0.00     0.066 C 
HETATM   12  C   UNK N   1      34.334  15.178   6.128  0.00  0.00    -0.072 C 
HETATM   13  C   UNK N   1      32.348  16.541   5.318  0.00  0.00     0.122 C 
HETATM   14  C   UNK N   1      35.665  14.330   8.455  0.00  0.00    -0.001 C 
HETATM   15  C   UNK N   1      36.141  13.627   9.737  0.00  0.00     0.008 C 
HETATM   16  C   UNK N   1      34.096  14.284   8.509  0.00  0.00     0.003 C 
HETATM   17  C   UNK N   1      36.312  13.570  12.018  0.00  0.00     0.023 C 
HETATM   18  C   UNK N   1      33.409  14.466   7.111  0.00  0.00    -0.017 C 
HETATM   19  C   UNK N   1      35.659  14.416  10.974  0.00  0.00     0.003 C 
ENDROOT
BRANCH  17  20
HETATM   20  N   UNK N   1      35.704  13.214  13.283  0.00  0.00    -0.309 N 
HETATM   21  C   UNK N   1      34.753  12.261  13.459  0.00  0.00     0.189 A 
HETATM   22  N   UNK N   1      34.417  12.122  14.768  0.00  0.00    -0.350 N 
HETATM   23  C   UNK N   1      35.183  13.017  15.409  0.00  0.00     0.060 A 
ATOM     24  HN  UNK N   1      33.734  11.480  15.172  1.00  0.00     0.166 HD
HETATM   25  C   UNK N   1      35.229  13.273  16.775  0.00  0.00     0.032 A 
HETATM   26  C   UNK N   1      35.964  13.685  14.515  0.00  0.00     0.067 A 
HETATM   27  C   UNK N   1      36.120  14.266  17.219  0.00  0.00     0.002 A 
HETATM   28  C   UNK N   1      36.932  14.965  16.294  0.00  0.00     0.002 A 
HETATM   29  C   UNK N   1      36.862  14.672  14.917  0.00  0.00     0.032 A 
ENDBRANCH  17  20
BRANCH  13  30
HETATM   30  O   UNK N   1      32.049  17.793   4.786  0.00  0.00    -0.395 OA
HETATM   31  H   UNK N   1      31.428  18.505   4.998  0.00  0.00     0.210 HD
ENDBRANCH  13  30
TORSDOF 2
ENDMDL
MODEL 7
REMARK VINA RESULT:      -7.6     11.796     14.195
REMARK  2 active torsions:
REMARK  status: ('A' for Active; 'I' for Inactive)
REMARK    1  A    between atoms: C_18  and  O_30 
REMARK    2  A    between atoms: N_29  and  C_24 
ROOT
HETATM    1  C   UNK N   1      34.236  17.989   7.083  0.00  0.00     0.020 C 
HETATM    2  C   UNK N   1      29.782  14.328   4.971  0.00  0.00     0.022 C 
HETATM    3  C   UNK N   1      34.728  15.413   5.621  0.00  0.00    -0.023 C 
HETATM    4  C   UNK N   1      33.815  16.150   4.649  0.00  0.00     0.033 C 
HETATM    5  C   UNK N   1      30.985  16.001   2.870  0.00  0.00     0.035 C 
HETATM    6  C   UNK N   1      29.539  16.435   2.759  0.00  0.00     0.000 C 
HETATM    7  C   UNK N   1      33.681  15.443   9.660  0.00  0.00     0.033 C 
HETATM    8  C   UNK N   1      31.004  15.948   7.268  0.00  0.00     0.007 C 
HETATM    9  C   UNK N   1      33.301  16.721   8.926  0.00  0.00     0.016 C 
HETATM   10  C   UNK N   1      29.753  16.333   6.448  0.00  0.00     0.016 C 
HETATM   11  C   UNK N   1      35.339  14.746   7.923  0.00  0.00     0.066 C 
HETATM   12  C   UNK N   1      34.569  15.604   6.951  0.00  0.00    -0.072 C 
HETATM   13  C   UNK N   1      35.149  15.155   9.383  0.00  0.00     0.122 C 
HETATM   14  C   UNK N   1      32.401  15.882   5.183  0.00  0.00    -0.001 C 
HETATM   15  C   UNK N   1      31.201  16.356   4.347  0.00  0.00     0.008 C 
HETATM   16  C   UNK N   1      32.233  16.568   6.586  0.00  0.00     0.003 C 
HETATM   17  C   UNK N   1      28.946  16.387   3.959  0.00  0.00     0.023 C 
HETATM   18  C   UNK N   1      33.562  16.653   7.413  0.00  0.00    -0.017 C 
HETATM   19  C   UNK N   1      29.888  15.859   4.992  0.00  0.00     0.003 C 
ENDROOT
BRANCH  17  20
HETATM   20  N   UNK N   1      27.662  16.987   4.251  0.00  0.00    -0.309 N 
HETATM   21  C   UNK N   1      26.473  16.332   4.280  0.00  0.00     0.189 A 
HETATM   22  N   UNK N   1      25.452  17.155   4.634  0.00  0.00    -0.350 N 
HETATM   23  C   UNK N   1      26.033  18.348   4.824  0.00  0.00     0.060 A 
ATOM     24  HN  UNK N   1      24.465  16.918   4.733  1.00  0.00     0.166 HD
HETATM   25  C   UNK N   1      25.425  19.539   5.206  0.00  0.00     0.032 A 
HETATM   26  C   UNK N   1      27.372  18.256   4.590  0.00  0.00     0.067 A 
HETATM   27  C   UNK N   1      26.246  20.672   5.343  0.00  0.00     0.002 A 
HETATM   28  C   UNK N   1      27.637  20.582   5.100  0.00  0.00     0.002 A 
HETATM   29  C   UNK N   1      28.219  19.356   4.720  0.00  0.00     0.032 A 
ENDBRANCH  17  20
BRANCH  13  30
HETATM   30  O   UNK N   1      35.586  14.124  10.212  0.00  0.00    -0.395 OA
HETATM   31  H   UNK N   1      36.446  13.799  10.518  0.00  0.00     0.210 HD
ENDBRANCH  13  30
TORSDOF 2
ENDMDL
MODEL 8
REMARK VINA RESULT:      -7.5     17.918     21.329
REMARK  2 active torsions:
REMARK  status: ('A' for Active; 'I' for Inactive)
REMARK    1  A    between atoms: C_18  and  O_30 
REMARK    2  A    between atoms: N_29  and  C_24 
ROOT
HETATM    1  C   UNK N   1      34.124  11.906  15.123  0.00  0.00     0.020 C 
HETATM    2  C   UNK N   1      36.804  13.823   9.942  0.00  0.00     0.022 C 
HETATM    3  C   UNK N   1      36.964  12.865  14.954  0.00  0.00    -0.023 C 
HETATM    4  C   UNK N   1      36.206  14.033  14.333  0.00  0.00     0.033 C 
HETATM    5  C   UNK N   1      35.931  16.039  11.670  0.00  0.00     0.035 C 
HETATM    6  C   UNK N   1      35.159  16.366  10.410  0.00  0.00     0.000 C 
HETATM    7  C   UNK N   1      35.905   9.014  13.748  0.00  0.00     0.033 C 
HETATM    8  C   UNK N   1      35.166  11.714  11.446  0.00  0.00     0.007 C 
HETATM    9  C   UNK N   1      34.733   9.983  13.777  0.00  0.00     0.016 C 
HETATM   10  C   UNK N   1      34.624  12.709  10.396  0.00  0.00     0.016 C 
HETATM   11  C   UNK N   1      37.328  10.436  15.235  0.00  0.00     0.066 C 
HETATM   12  C   UNK N   1      36.493  11.609  14.786  0.00  0.00    -0.072 C 
HETATM   13  C   UNK N   1      36.618   9.090  15.091  0.00  0.00     0.122 C 
HETATM   14  C   UNK N   1      35.986  13.608  12.876  0.00  0.00    -0.001 C 
HETATM   15  C   UNK N   1      35.376  14.627  11.900  0.00  0.00     0.008 C 
HETATM   16  C   UNK N   1      35.032  12.361  12.832  0.00  0.00     0.003 C 
HETATM   17  C   UNK N   1      34.824  15.241   9.765  0.00  0.00     0.023 C 
HETATM   18  C   UNK N   1      35.149  11.430  14.087  0.00  0.00    -0.017 C 
HETATM   19  C   UNK N   1      35.379  14.046  10.469  0.00  0.00     0.003 C 
ENDROOT
BRANCH  17  20
HETATM   20  N   UNK N   1      33.861  15.183   8.685  0.00  0.00    -0.309 N 
HETATM   21  C   UNK N   1      32.514  15.277   8.824  0.00  0.00     0.189 A 
HETATM   22  N   UNK N   1      31.880  15.239   7.623  0.00  0.00    -0.350 N 
HETATM   23  C   UNK N   1      32.868  15.116   6.726  0.00  0.00     0.060 A 
ATOM     24  HN  UNK N   1      30.877  15.292   7.446  1.00  0.00     0.166 HD
HETATM   25  C   UNK N   1      32.755  15.039   5.342  0.00  0.00     0.032 A 
HETATM   26  C   UNK N   1      34.073  15.078   7.361  0.00  0.00     0.067 A 
HETATM   27  C   UNK N   1      33.942  14.912   4.600  0.00  0.00     0.002 A 
HETATM   28  C   UNK N   1      35.196  14.869   5.255  0.00  0.00     0.002 A 
HETATM   29  C   UNK N   1      35.271  14.958   6.660  0.00  0.00     0.032 A 
ENDBRANCH  17  20
BRANCH  13  30
HETATM   30  O   UNK N   1      37.555   8.062  15.180  0.00  0.00    -0.395 OA
HETATM   31  H   UNK N   1      38.415   7.945  15.610  0.00  0.00     0.210 HD
ENDBRANCH  13  30
TORSDOF 2
ENDMDL
MODEL 9
REMARK VINA RESULT:      -7.4      4.580      8.943
REMARK  2 active torsions:
REMARK  status: ('A' for Active; 'I' for Inactive)
REMARK    1  A    between atoms: C_18  and  O_30 
REMARK    2  A    between atoms: N_29  and  C_24 
ROOT
HETATM    1  C   UNK N   1      28.168  23.804  -8.518  0.00  0.00     0.020 C 
HETATM    2  C   UNK N   1      30.816  20.443  -4.114  0.00  0.00     0.022 C 
HETATM    3  C   UNK N   1      27.462  23.991  -5.606  0.00  0.00    -0.023 C 
HETATM    4  C   UNK N   1      28.971  24.206  -5.573  0.00  0.00     0.033 C 
HETATM    5  C   UNK N   1      31.873  23.186  -4.257  0.00  0.00     0.035 C 
HETATM    6  C   UNK N   1      33.148  22.400  -4.469  0.00  0.00     0.000 C 
HETATM    7  C   UNK N   1      26.000  20.896  -7.991  0.00  0.00     0.033 C 
HETATM    8  C   UNK N   1      29.425  20.602  -6.841  0.00  0.00     0.007 C 
HETATM    9  C   UNK N   1      27.246  21.561  -8.558  0.00  0.00     0.016 C 
HETATM   10  C   UNK N   1      30.930  20.350  -6.600  0.00  0.00     0.016 C 
HETATM   11  C   UNK N   1      25.470  22.812  -6.474  0.00  0.00     0.066 C 
HETATM   12  C   UNK N   1      26.932  23.176  -6.545  0.00  0.00    -0.072 C 
HETATM   13  C   UNK N   1      24.988  21.983  -7.665  0.00  0.00     0.122 C 
HETATM   14  C   UNK N   1      29.554  22.787  -5.610  0.00  0.00    -0.001 C 
HETATM   15  C   UNK N   1      31.071  22.614  -5.433  0.00  0.00     0.008 C 
HETATM   16  C   UNK N   1      29.212  22.116  -6.988  0.00  0.00     0.003 C 
HETATM   17  C   UNK N   1      32.888  21.258  -5.119  0.00  0.00     0.023 C 
HETATM   18  C   UNK N   1      27.861  22.606  -7.613  0.00  0.00    -0.017 C 
HETATM   19  C   UNK N   1      31.420  21.111  -5.358  0.00  0.00     0.003 C 
ENDROOT
BRANCH  17  20
HETATM   20  N   UNK N   1      33.903  20.414  -5.713  0.00  0.00    -0.309 N 
HETATM   21  C   UNK N   1      34.627  20.714  -6.822  0.00  0.00     0.189 A 
HETATM   22  N   UNK N   1      35.538  19.748  -7.106  0.00  0.00    -0.350 N 
HETATM   23  C   UNK N   1      35.364  18.830  -6.143  0.00  0.00     0.060 A 
ATOM     24  HN  UNK N   1      36.205  19.726  -7.878  1.00  0.00     0.166 HD
HETATM   25  C   UNK N   1      36.059  17.637  -5.971  0.00  0.00     0.032 A 
HETATM   26  C   UNK N   1      34.373  19.225  -5.297  0.00  0.00     0.067 A 
HETATM   27  C   UNK N   1      35.698  16.829  -4.879  0.00  0.00     0.002 A 
HETATM   28  C   UNK N   1      34.667  17.233  -3.998  0.00  0.00     0.002 A 
HETATM   29  C   UNK N   1      33.991  18.453  -4.201  0.00  0.00     0.032 A 
ENDBRANCH  17  20
BRANCH  13  30
HETATM   30  O   UNK N   1      23.761  21.400  -7.354  0.00  0.00    -0.395 OA
HETATM   31  H   UNK N   1      22.964  21.676  -6.877  0.00  0.00     0.210 HD
ENDBRANCH  13  30
TORSDOF 2
ENDMDL
