MODEL 1
REMARK VINA RESULT:      -6.2      0.000      0.000
REMARK  5 active torsions:
REMARK  status: ('A' for Active; 'I' for Inactive)
REMARK    1  A    between atoms: C_4  and  C_11 
REMARK    2  A    between atoms: C_11  and  C_12 
REMARK    3  A    between atoms: C_12  and  C_13 
REMARK    4  A    between atoms: C_12  and  N_16 
REMARK    5  A    between atoms: C_13  and  O_15 
ROOT
HETATM    1  C   UNK N   1      29.783  17.160   4.425  0.00  0.00     0.155 C 
HETATM    2  N   UNK N   1      30.322  17.162   5.774  0.00  0.00    -0.360 N 
HETATM    3  C   UNK N   1      31.540  16.695   6.134  0.00  0.00     0.099 A 
HETATM    4  C   UNK N   1      31.704  16.865   7.507  0.00  0.00    -0.028 A 
HETATM    5  C   UNK N   1      30.534  17.457   7.971  0.00  0.00    -0.002 A 
HETATM    6  C   UNK N   1      29.717  17.616   6.883  0.00  0.00     0.044 A 
HETATM    7  C   UNK N   1      28.443  18.174   6.989  0.00  0.00     0.030 A 
HETATM    8  C   UNK N   1      28.009  18.578   8.265  0.00  0.00     0.002 A 
HETATM    9  C   UNK N   1      28.849  18.420   9.388  0.00  0.00     0.001 A 
HETATM   10  C   UNK N   1      30.129  17.856   9.244  0.00  0.00     0.014 A 
ENDROOT
BRANCH   4  11
HETATM   11  C   UNK N   1      32.947  16.443   8.246  0.00  0.00     0.076 C 
BRANCH  11  12
HETATM   12  C   UNK N   1      33.707  17.528   9.011  0.00  0.00     0.177 C 
BRANCH  12  13
HETATM   13  C   UNK N   1      34.602  18.311   8.092  0.00  0.00     0.163 C 
HETATM   14  O   UNK N   1      35.291  19.213   8.544  0.00  0.00    -0.648 OA
BRANCH  13  15
HETATM   15  O   UNK N   1      34.670  18.021   6.777  0.00  0.00    -0.775 OA
HETATM   16  H   UNK N   1      33.944  17.616   6.343  0.00  0.00     0.167 HD
ENDBRANCH  13  15
ENDBRANCH  12  13
BRANCH  12  17
HETATM   17  N   UNK N   1      34.527  16.932  10.053  0.00  0.00    -0.417 N 
HETATM   18  H   UNK N   1      35.356  16.365  10.231  0.00  0.00     0.150 HD
HETATM   19  H   UNK N   1      34.116  17.177  10.954  0.00  0.00     0.150 HD
ENDBRANCH  12  17
ENDBRANCH  11  12
ENDBRANCH   4  11
TORSDOF 5
ENDMDL
MODEL 2
REMARK VINA RESULT:      -6.0     12.477     14.587
REMARK  5 active torsions:
REMARK  status: ('A' for Active; 'I' for Inactive)
REMARK    1  A    between atoms: C_4  and  C_11 
REMARK    2  A    between atoms: C_11  and  C_12 
REMARK    3  A    between atoms: C_12  and  C_13 
REMARK    4  A    between atoms: C_12  and  N_16 
REMARK    5  A    between atoms: C_13  and  O_15 
ROOT
HETATM    1  C   UNK N   1      25.878  24.212  -7.550  0.00  0.00     0.155 C 
HETATM    2  N   UNK N   1      26.341  24.519  -6.208  0.00  0.00    -0.360 N 
HETATM    3  C   UNK N   1      27.152  23.736  -5.459  0.00  0.00     0.099 A 
HETATM    4  C   UNK N   1      27.379  24.359  -4.233  0.00  0.00    -0.028 A 
HETATM    5  C   UNK N   1      26.672  25.556  -4.266  0.00  0.00    -0.002 A 
HETATM    6  C   UNK N   1      26.050  25.611  -5.485  0.00  0.00     0.044 A 
HETATM    7  C   UNK N   1      25.238  26.684  -5.853  0.00  0.00     0.030 A 
HETATM    8  C   UNK N   1      25.068  27.727  -4.925  0.00  0.00     0.002 A 
HETATM    9  C   UNK N   1      25.710  27.676  -3.669  0.00  0.00     0.001 A 
HETATM   10  C   UNK N   1      26.526  26.581  -3.332  0.00  0.00     0.014 A 
ENDROOT
BRANCH   4  11
HETATM   11  C   UNK N   1      28.234  23.755  -3.149  0.00  0.00     0.076 C 
BRANCH  11  12
HETATM   12  C   UNK N   1      29.738  23.668  -3.414  0.00  0.00     0.177 C 
BRANCH  12  13
HETATM   13  C   UNK N   1      30.446  22.979  -2.281  0.00  0.00     0.163 C 
HETATM   14  O   UNK N   1      29.972  23.022  -1.157  0.00  0.00    -0.648 OA
BRANCH  13  15
HETATM   15  O   UNK N   1      31.589  22.295  -2.492  0.00  0.00    -0.775 OA
HETATM   16  H   UNK N   1      31.645  21.386  -2.271  0.00  0.00     0.167 HD
ENDBRANCH  13  15
ENDBRANCH  12  13
BRANCH  12  17
HETATM   17  N   UNK N   1      30.303  24.998  -3.567  0.00  0.00    -0.417 N 
HETATM   18  H   UNK N   1      30.406  25.910  -3.121  0.00  0.00     0.150 HD
HETATM   19  H   UNK N   1      30.781  25.034  -4.467  0.00  0.00     0.150 HD
ENDBRANCH  12  17
ENDBRANCH  11  12
ENDBRANCH   4  11
TORSDOF 5
ENDMDL
MODEL 3
REMARK VINA RESULT:      -5.8      2.964      4.872
REMARK  5 active torsions:
REMARK  status: ('A' for Active; 'I' for Inactive)
REMARK    1  A    between atoms: C_4  and  C_11 
REMARK    2  A    between atoms: C_11  and  C_12 
REMARK    3  A    between atoms: C_12  and  C_13 
REMARK    4  A    between atoms: C_12  and  N_16 
REMARK    5  A    between atoms: C_13  and  O_15 
ROOT
HETATM    1  C   UNK N   1      32.352  16.892   3.263  0.00  0.00     0.155 C 
HETATM    2  N   UNK N   1      31.758  17.069   4.577  0.00  0.00    -0.360 N 
HETATM    3  C   UNK N   1      30.432  17.087   4.844  0.00  0.00     0.099 A 
HETATM    4  C   UNK N   1      30.246  17.276   6.211  0.00  0.00    -0.028 A 
HETATM    5  C   UNK N   1      31.517  17.371   6.769  0.00  0.00    -0.002 A 
HETATM    6  C   UNK N   1      32.408  17.244   5.737  0.00  0.00     0.044 A 
HETATM    7  C   UNK N   1      33.788  17.306   5.940  0.00  0.00     0.030 A 
HETATM    8  C   UNK N   1      34.249  17.505   7.253  0.00  0.00     0.002 A 
HETATM    9  C   UNK N   1      33.333  17.632   8.320  0.00  0.00     0.001 A 
HETATM   10  C   UNK N   1      31.949  17.562   8.081  0.00  0.00     0.014 A 
ENDROOT
BRANCH   4  11
HETATM   11  C   UNK N   1      28.886  17.356   6.853  0.00  0.00     0.076 C 
BRANCH  11  12
HETATM   12  C   UNK N   1      28.591  18.586   7.714  0.00  0.00     0.177 C 
BRANCH  12  13
HETATM   13  C   UNK N   1      28.423  18.206   9.159  0.00  0.00     0.163 C 
HETATM   14  O   UNK N   1      29.191  18.656   9.995  0.00  0.00    -0.648 OA
BRANCH  13  15
HETATM   15  O   UNK N   1      27.424  17.389   9.549  0.00  0.00    -0.775 OA
HETATM   16  H   UNK N   1      26.899  17.606  10.295  0.00  0.00     0.167 HD
ENDBRANCH  13  15
ENDBRANCH  12  13
BRANCH  12  17
HETATM   17  N   UNK N   1      27.373  19.238   7.266  0.00  0.00    -0.417 N 
HETATM   18  H   UNK N   1      26.919  19.688   6.471  0.00  0.00     0.150 HD
HETATM   19  H   UNK N   1      26.717  19.249   8.047  0.00  0.00     0.150 HD
ENDBRANCH  12  17
ENDBRANCH  11  12
ENDBRANCH   4  11
TORSDOF 5
ENDMDL
MODEL 4
REMARK VINA RESULT:      -5.7      8.018     10.292
REMARK  5 active torsions:
REMARK  status: ('A' for Active; 'I' for Inactive)
REMARK    1  A    between atoms: C_4  and  C_11 
REMARK    2  A    between atoms: C_11  and  C_12 
REMARK    3  A    between atoms: C_12  and  C_13 
REMARK    4  A    between atoms: C_12  and  N_16 
REMARK    5  A    between atoms: C_13  and  O_15 
ROOT
HETATM    1  C   UNK N   1      37.584   9.548  14.902  0.00  0.00     0.155 C 
HETATM    2  N   UNK N   1      37.040  10.893  14.980  0.00  0.00    -0.360 N 
HETATM    3  C   UNK N   1      37.111  11.827  14.004  0.00  0.00     0.099 A 
HETATM    4  C   UNK N   1      36.480  12.990  14.441  0.00  0.00    -0.028 A 
HETATM    5  C   UNK N   1      36.019  12.726  15.727  0.00  0.00    -0.002 A 
HETATM    6  C   UNK N   1      36.386  11.439  16.017  0.00  0.00     0.044 A 
HETATM    7  C   UNK N   1      36.091  10.845  17.245  0.00  0.00     0.030 A 
HETATM    8  C   UNK N   1      35.396  11.614  18.195  0.00  0.00     0.002 A 
HETATM    9  C   UNK N   1      35.012  12.940  17.897  0.00  0.00     0.001 A 
HETATM   10  C   UNK N   1      35.323  13.506  16.648  0.00  0.00     0.014 A 
ENDROOT
BRANCH   4  11
HETATM   11  C   UNK N   1      36.384  14.238  13.603  0.00  0.00     0.076 C 
BRANCH  11  12
HETATM   12  C   UNK N   1      35.993  14.065  12.134  0.00  0.00     0.177 C 
BRANCH  12  13
HETATM   13  C   UNK N   1      35.957  15.390  11.425  0.00  0.00     0.163 C 
HETATM   14  O   UNK N   1      34.896  15.981  11.304  0.00  0.00    -0.648 OA
BRANCH  13  15
HETATM   15  O   UNK N   1      37.084  15.945  10.936  0.00  0.00    -0.775 OA
HETATM   16  H   UNK N   1      37.053  16.774  10.499  0.00  0.00     0.167 HD
ENDBRANCH  13  15
ENDBRANCH  12  13
BRANCH  12  17
HETATM   17  N   UNK N   1      34.680  13.452  12.029  0.00  0.00    -0.417 N 
HETATM   18  H   UNK N   1      33.731  13.582  11.675  0.00  0.00     0.150 HD
HETATM   19  H   UNK N   1      34.722  12.540  12.483  0.00  0.00     0.150 HD
ENDBRANCH  12  17
ENDBRANCH  11  12
ENDBRANCH   4  11
TORSDOF 5
ENDMDL
MODEL 5
REMARK VINA RESULT:      -5.7      9.262     11.279
REMARK  5 active torsions:
REMARK  status: ('A' for Active; 'I' for Inactive)
REMARK    1  A    between atoms: C_4  and  C_11 
REMARK    2  A    between atoms: C_11  and  C_12 
REMARK    3  A    between atoms: C_12  and  C_13 
REMARK    4  A    between atoms: C_12  and  N_16 
REMARK    5  A    between atoms: C_13  and  O_15 
ROOT
HETATM    1  C   UNK N   1      35.386   8.552  17.379  0.00  0.00     0.155 C 
HETATM    2  N   UNK N   1      35.260   9.927  16.928  0.00  0.00    -0.360 N 
HETATM    3  C   UNK N   1      35.136  10.323  15.641  0.00  0.00     0.099 A 
HETATM    4  C   UNK N   1      35.039  11.712  15.600  0.00  0.00    -0.028 A 
HETATM    5  C   UNK N   1      35.108  12.148  16.919  0.00  0.00    -0.002 A 
HETATM    6  C   UNK N   1      35.248  11.028  17.695  0.00  0.00     0.044 A 
HETATM    7  C   UNK N   1      35.361  11.100  19.084  0.00  0.00     0.030 A 
HETATM    8  C   UNK N   1      35.329  12.373  19.679  0.00  0.00     0.002 A 
HETATM    9  C   UNK N   1      35.181  13.530  18.883  0.00  0.00     0.001 A 
HETATM   10  C   UNK N   1      35.066  13.421  17.486  0.00  0.00     0.014 A 
ENDROOT
BRANCH   4  11
HETATM   11  C   UNK N   1      34.899  12.490  14.317  0.00  0.00     0.076 C 
BRANCH  11  12
HETATM   12  C   UNK N   1      35.920  13.599  14.059  0.00  0.00     0.177 C 
BRANCH  12  13
HETATM   13  C   UNK N   1      35.679  14.255  12.728  0.00  0.00     0.163 C 
HETATM   14  O   UNK N   1      34.593  14.132  12.183  0.00  0.00    -0.648 OA
BRANCH  13  15
HETATM   15  O   UNK N   1      36.638  14.995  12.135  0.00  0.00    -0.775 OA
HETATM   16  H   UNK N   1      37.231  15.504  12.653  0.00  0.00     0.167 HD
ENDBRANCH  13  15
ENDBRANCH  12  13
BRANCH  12  17
HETATM   17  N   UNK N   1      37.268  13.057  14.065  0.00  0.00    -0.417 N 
HETATM   18  H   UNK N   1      37.816  12.199  13.995  0.00  0.00     0.150 HD
HETATM   19  H   UNK N   1      37.918  13.833  14.186  0.00  0.00     0.150 HD
ENDBRANCH  12  17
ENDBRANCH  11  12
ENDBRANCH   4  11
TORSDOF 5
ENDMDL
MODEL 6
REMARK VINA RESULT:      -5.7      9.495     10.747
REMARK  5 active torsions:
REMARK  status: ('A' for Active; 'I' for Inactive)
REMARK    1  A    between atoms: C_4  and  C_11 
REMARK    2  A    between atoms: C_11  and  C_12 
REMARK    3  A    between atoms: C_12  and  C_13 
REMARK    4  A    between atoms: C_12  and  N_16 
REMARK    5  A    between atoms: C_13  and  O_15 
ROOT
HETATM    1  C   UNK N   1      18.815  16.375   9.139  0.00  0.00     0.155 C 
HETATM    2  N   UNK N   1      19.927  15.456   8.969  0.00  0.00    -0.360 N 
HETATM    3  C   UNK N   1      20.127  14.324   9.682  0.00  0.00     0.099 A 
HETATM    4  C   UNK N   1      21.293  13.706   9.236  0.00  0.00    -0.028 A 
HETATM    5  C   UNK N   1      21.796  14.509   8.218  0.00  0.00    -0.002 A 
HETATM    6  C   UNK N   1      20.936  15.567   8.092  0.00  0.00     0.044 A 
HETATM    7  C   UNK N   1      21.147  16.584   7.160  0.00  0.00     0.030 A 
HETATM    8  C   UNK N   1      22.286  16.497   6.340  0.00  0.00     0.002 A 
HETATM    9  C   UNK N   1      23.173  15.406   6.465  0.00  0.00     0.001 A 
HETATM   10  C   UNK N   1      22.928  14.395   7.412  0.00  0.00     0.014 A 
ENDROOT
BRANCH   4  11
HETATM   11  C   UNK N   1      21.820  12.422   9.823  0.00  0.00     0.076 C 
BRANCH  11  12
HETATM   12  C   UNK N   1      22.796  12.539  10.995  0.00  0.00     0.177 C 
BRANCH  12  13
HETATM   13  C   UNK N   1      24.207  12.275  10.551  0.00  0.00     0.163 C 
HETATM   14  O   UNK N   1      24.411  11.757   9.464  0.00  0.00    -0.648 OA
BRANCH  13  15
HETATM   15  O   UNK N   1      25.255  12.620  11.327  0.00  0.00    -0.775 OA
HETATM   16  H   UNK N   1      25.393  13.516  11.565  0.00  0.00     0.167 HD
ENDBRANCH  13  15
ENDBRANCH  12  13
BRANCH  12  17
HETATM   17  N   UNK N   1      22.455  11.582  12.035  0.00  0.00    -0.417 N 
HETATM   18  H   UNK N   1      21.702  11.244  12.634  0.00  0.00     0.150 HD
HETATM   19  H   UNK N   1      23.291  11.037  12.245  0.00  0.00     0.150 HD
ENDBRANCH  12  17
ENDBRANCH  11  12
ENDBRANCH   4  11
TORSDOF 5
ENDMDL
MODEL 7
REMARK VINA RESULT:      -5.7     11.489     13.807
REMARK  5 active torsions:
REMARK  status: ('A' for Active; 'I' for Inactive)
REMARK    1  A    between atoms: C_4  and  C_11 
REMARK    2  A    between atoms: C_11  and  C_12 
REMARK    3  A    between atoms: C_12  and  C_13 
REMARK    4  A    between atoms: C_12  and  N_16 
REMARK    5  A    between atoms: C_13  and  O_15 
ROOT
HETATM    1  C   UNK N   1      26.897  22.025  -8.166  0.00  0.00     0.155 C 
HETATM    2  N   UNK N   1      27.671  22.403  -6.997  0.00  0.00    -0.360 N 
HETATM    3  C   UNK N   1      28.927  21.985  -6.718  0.00  0.00     0.099 A 
HETATM    4  C   UNK N   1      29.340  22.557  -5.516  0.00  0.00    -0.028 A 
HETATM    5  C   UNK N   1      28.283  23.344  -5.073  0.00  0.00    -0.002 A 
HETATM    6  C   UNK N   1      27.284  23.217  -6.002  0.00  0.00     0.044 A 
HETATM    7  C   UNK N   1      26.059  23.870  -5.865  0.00  0.00     0.030 A 
HETATM    8  C   UNK N   1      25.869  24.676  -4.728  0.00  0.00     0.002 A 
HETATM    9  C   UNK N   1      26.897  24.812  -3.770  0.00  0.00     0.001 A 
HETATM   10  C   UNK N   1      28.122  24.142  -3.942  0.00  0.00     0.014 A 
ENDROOT
BRANCH   4  11
HETATM   11  C   UNK N   1      30.691  22.295  -4.902  0.00  0.00     0.076 C 
BRANCH  11  12
HETATM   12  C   UNK N   1      30.751  21.293  -3.748  0.00  0.00     0.177 C 
BRANCH  12  13
HETATM   13  C   UNK N   1      31.464  21.878  -2.561  0.00  0.00     0.163 C 
HETATM   14  O   UNK N   1      30.998  22.858  -2.000  0.00  0.00    -0.648 OA
BRANCH  13  15
HETATM   15  O   UNK N   1      32.601  21.325  -2.093  0.00  0.00    -0.775 OA
HETATM   16  H   UNK N   1      32.587  20.798  -1.318  0.00  0.00     0.167 HD
ENDBRANCH  13  15
ENDBRANCH  12  13
BRANCH  12  17
HETATM   17  N   UNK N   1      31.454  20.089  -4.159  0.00  0.00    -0.417 N 
HETATM   18  H   UNK N   1      32.356  19.612  -4.145  0.00  0.00     0.150 HD
HETATM   19  H   UNK N   1      30.791  19.490  -4.650  0.00  0.00     0.150 HD
ENDBRANCH  12  17
ENDBRANCH  11  12
ENDBRANCH   4  11
TORSDOF 5
ENDMDL
MODEL 8
REMARK VINA RESULT:      -5.6      6.001      8.365
REMARK  5 active torsions:
REMARK  status: ('A' for Active; 'I' for Inactive)
REMARK    1  A    between atoms: C_4  and  C_11 
REMARK    2  A    between atoms: C_11  and  C_12 
REMARK    3  A    between atoms: C_12  and  C_13 
REMARK    4  A    between atoms: C_12  and  N_16 
REMARK    5  A    between atoms: C_13  and  O_15 
ROOT
HETATM    1  C   UNK N   1      33.867  10.351  13.788  0.00  0.00     0.155 C 
HETATM    2  N   UNK N   1      34.572  11.525  13.304  0.00  0.00    -0.360 N 
HETATM    3  C   UNK N   1      34.691  11.892  12.008  0.00  0.00     0.099 A 
HETATM    4  C   UNK N   1      35.433  13.068  11.934  0.00  0.00    -0.028 A 
HETATM    5  C   UNK N   1      35.762  13.406  13.243  0.00  0.00    -0.002 A 
HETATM    6  C   UNK N   1      35.222  12.436  14.045  0.00  0.00     0.044 A 
HETATM    7  C   UNK N   1      35.372  12.455  15.432  0.00  0.00     0.030 A 
HETATM    8  C   UNK N   1      36.106  13.514  15.997  0.00  0.00     0.002 A 
HETATM    9  C   UNK N   1      36.661  14.517  15.174  0.00  0.00     0.001 A 
HETATM   10  C   UNK N   1      36.487  14.469  13.779  0.00  0.00     0.014 A 
ENDROOT
BRANCH   4  11
HETATM   11  C   UNK N   1      35.765  13.752  10.633  0.00  0.00     0.076 C 
BRANCH  11  12
HETATM   12  C   UNK N   1      34.966  15.008  10.280  0.00  0.00     0.177 C 
BRANCH  12  13
HETATM   13  C   UNK N   1      35.735  16.252  10.628  0.00  0.00     0.163 C 
HETATM   14  O   UNK N   1      35.151  17.322  10.700  0.00  0.00    -0.648 OA
BRANCH  13  15
HETATM   15  O   UNK N   1      37.059  16.201  10.880  0.00  0.00    -0.775 OA
HETATM   16  H   UNK N   1      37.417  15.501  11.390  0.00  0.00     0.167 HD
ENDBRANCH  13  15
ENDBRANCH  12  13
BRANCH  12  17
HETATM   17  N   UNK N   1      33.708  15.028  11.007  0.00  0.00    -0.417 N 
HETATM   18  H   UNK N   1      32.768  15.425  11.025  0.00  0.00     0.150 HD
HETATM   19  H   UNK N   1      33.798  14.403  11.808  0.00  0.00     0.150 HD
ENDBRANCH  12  17
ENDBRANCH  11  12
ENDBRANCH   4  11
TORSDOF 5
ENDMDL
MODEL 9
REMARK VINA RESULT:      -5.6      2.313      3.768
REMARK  5 active torsions:
REMARK  status: ('A' for Active; 'I' for Inactive)
REMARK    1  A    between atoms: C_4  and  C_11 
REMARK    2  A    between atoms: C_11  and  C_12 
REMARK    3  A    between atoms: C_12  and  C_13 
REMARK    4  A    between atoms: C_12  and  N_16 
REMARK    5  A    between atoms: C_13  and  O_15 
ROOT
HETATM    1  C   UNK N   1      28.380  16.415   5.985  0.00  0.00     0.155 C 
HETATM    2  N   UNK N   1      29.765  16.743   6.274  0.00  0.00    -0.360 N 
HETATM    3  C   UNK N   1      30.282  16.953   7.507  0.00  0.00     0.099 A 
HETATM    4  C   UNK N   1      31.639  17.242   7.388  0.00  0.00    -0.028 A 
HETATM    5  C   UNK N   1      31.931  17.199   6.028  0.00  0.00    -0.002 A 
HETATM    6  C   UNK N   1      30.759  16.897   5.386  0.00  0.00     0.044 A 
HETATM    7  C   UNK N   1      30.684  16.785   3.997  0.00  0.00     0.030 A 
HETATM    8  C   UNK N   1      31.862  16.996   3.258  0.00  0.00     0.002 A 
HETATM    9  C   UNK N   1      33.073  17.304   3.917  0.00  0.00     0.001 A 
HETATM   10  C   UNK N   1      33.113  17.405   5.319  0.00  0.00     0.014 A 
ENDROOT
BRANCH   4  11
HETATM   11  C   UNK N   1      32.524  17.539   8.570  0.00  0.00     0.076 C 
BRANCH  11  12
HETATM   12  C   UNK N   1      33.573  16.488   8.938  0.00  0.00     0.177 C 
BRANCH  12  13
HETATM   13  C   UNK N   1      32.926  15.252   9.499  0.00  0.00     0.163 C 
HETATM   14  O   UNK N   1      32.610  14.343   8.748  0.00  0.00    -0.648 OA
BRANCH  13  15
HETATM   15  O   UNK N   1      32.706  15.125  10.823  0.00  0.00    -0.775 OA
HETATM   16  H   UNK N   1      32.310  14.346  11.165  0.00  0.00     0.167 HD
ENDBRANCH  13  15
ENDBRANCH  12  13
BRANCH  12  17
HETATM   17  N   UNK N   1      34.492  17.017   9.932  0.00  0.00    -0.417 N 
HETATM   18  H   UNK N   1      35.450  16.974  10.280  0.00  0.00     0.150 HD
HETATM   19  H   UNK N   1      33.983  17.692  10.502  0.00  0.00     0.150 HD
ENDBRANCH  12  17
ENDBRANCH  11  12
ENDBRANCH   4  11
TORSDOF 5
ENDMDL
