REMARK  8 active torsions:
REMARK  status: ('A' for Active; 'I' for Inactive)
REMARK    1  A    between atoms: C_19  and  C_14 
REMARK    2  A    between atoms: C_26  and  C_14 
REMARK    3  A    between atoms: N_31  and  C_19 
REMARK    4  A    between atoms: C_26  and  C_23 
REMARK    5  A    between atoms: C_26  and  C_24 
REMARK    6  A    between atoms: C_27  and  C_25 
REMARK    7  A    between atoms: O_33  and  C_25 
REMARK    8  A    between atoms: N_32  and  C_27 
ROOT
HETATM    1  C   UNK N   1       2.975  -0.947   1.184  0.00  0.00     0.079 C 
HETATM    2  C   UNK N   1       3.825  -1.413   0.061  0.00  0.00     0.104 C 
HETATM    3  N   UNK N   1       2.319  -0.597   2.073  0.00  0.00    -0.196 NA
ENDROOT
BRANCH   2   4
HETATM    4  C   UNK N   1       3.383  -0.569  -1.164  0.00  0.00     0.065 C 
BRANCH   4   5
HETATM    5  C   UNK N   1       4.409   0.410  -1.740  0.00  0.00     0.275 C 
BRANCH   5   6
HETATM    6  N   UNK N   1       4.194   1.804  -1.343  0.00  0.00     0.088 N 
HETATM    7  C   UNK N   1       4.058   1.909   0.127  0.00  0.00     0.275 C 
HETATM    8  C   UNK N   1       5.041   2.888   0.790  0.00  0.00     0.081 C 
HETATM    9  C   UNK N   1       5.003   4.230   0.050  0.00  0.00     0.226 C 
HETATM   10  C   UNK N   1       5.361   4.003  -1.445  0.00  0.00     0.081 C 
HETATM   11  C   UNK N   1       5.360   2.527  -1.862  0.00  0.00     0.275 C 
BRANCH   9  12
HETATM   12  C   UNK N   1       3.588   4.763   0.213  0.00  0.00     0.149 C 
HETATM   13  N   UNK N   1       2.844   4.996  -0.806  0.00  0.00    -0.381 N 
HETATM   14  H   UNK N   1       2.713   5.579  -1.588  0.00  0.00     0.158 HD
ATOM     15  HN  UNK N   1       2.094   4.305  -0.806  1.00  0.00     0.158 HD
BRANCH  12  16
HETATM   16  O   UNK N   1       3.100   4.978   1.451  0.00  0.00    -0.348 OA
HETATM   17  H   UNK N   1       3.060   5.346   2.312  0.00  0.00     0.219 HD
ENDBRANCH  12  16
ENDBRANCH   9  12
BRANCH   9  18
HETATM   18  N   UNK N   1       5.951   5.183   0.673  0.00  0.00     0.106 N 
HETATM   19  C   UNK N   1       5.862   6.515   0.036  0.00  0.00     0.274 C 
HETATM   20  C   UNK N   1       7.018   7.411   0.460  0.00  0.00     0.030 C 
HETATM   21  C   UNK N   1       8.349   6.828  -0.021  0.00  0.00     0.003 C 
HETATM   22  C   UNK N   1       8.305   5.307  -0.222  0.00  0.00     0.030 C 
HETATM   23  C   UNK N   1       7.332   4.646   0.759  0.00  0.00     0.274 C 
ENDBRANCH   9  18
ENDBRANCH   5   6
ENDBRANCH   4   5
ENDBRANCH   2   4
BRANCH   2  24
HETATM   24  C   UNK N   1       5.337  -1.323   0.424  0.00  0.00    -0.031 A 
HETATM   25  C   UNK N   1       5.970  -0.091   0.647  0.00  0.00     0.009 A 
HETATM   26  C   UNK N   1       7.344  -0.003   0.886  0.00  0.00     0.001 A 
HETATM   27  C   UNK N   1       8.114  -1.163   0.942  0.00  0.00     0.000 A 
HETATM   28  C   UNK N   1       7.504  -2.407   0.777  0.00  0.00     0.001 A 
HETATM   29  C   UNK N   1       6.134  -2.485   0.515  0.00  0.00     0.009 A 
ENDBRANCH   2  24
BRANCH   2  30
HETATM   30  C   UNK N   1       3.513  -2.862  -0.308  0.00  0.00    -0.031 A 
HETATM   31  C   UNK N   1       4.161  -3.418  -1.430  0.00  0.00     0.009 A 
HETATM   32  C   UNK N   1       3.998  -4.761  -1.759  0.00  0.00     0.001 A 
HETATM   33  C   UNK N   1       3.180  -5.572  -0.974  0.00  0.00     0.000 A 
HETATM   34  C   UNK N   1       2.511  -5.033   0.131  0.00  0.00     0.001 A 
HETATM   35  C   UNK N   1       2.677  -3.684   0.467  0.00  0.00     0.009 A 
ENDBRANCH   2  30
TORSDOF 8
