REMARK  4 active torsions:
REMARK  status: ('A' for Active; 'I' for Inactive)
REMARK    1  A    between atoms: C_18  and  C_4 
REMARK    2  A    between atoms: C_6  and  N_7 
REMARK       I    between atoms: N_7  and  C_8 
REMARK    3  A    between atoms: C_8  and  C_10 
REMARK    4  A    between atoms: C_25  and  N_28 
ROOT
HETATM    1  C   UNK N   1      -0.864  -3.950   0.590  0.00  0.00     0.032 A 
HETATM    2  C   UNK N   1      -1.732  -2.950   0.121  0.00  0.00     0.045 A 
HETATM    3  C   UNK N   1      -1.273  -1.629  -0.057  0.00  0.00     0.125 A 
HETATM    4  C   UNK N   1       0.068  -1.304   0.271  0.00  0.00     0.013 A 
HETATM    5  C   UNK N   1       0.871  -2.314   0.777  0.00  0.00     0.042 A 
HETATM    6  C   UNK N   1       0.447  -3.606   0.942  0.00  0.00     0.035 A 
HETATM    7  F   UNK N   1      -2.111  -0.718  -0.604  0.00  0.00    -0.205 F 
ENDROOT
BRANCH   4   8
HETATM    8  C   UNK N   1       0.759   0.041   0.031  0.00  0.00     0.090 C 
HETATM    9  C   UNK N   1       0.299   1.062   1.044  0.00  0.00     0.204 C 
HETATM   10  O   UNK N   1      -0.896   1.603   0.555  0.00  0.00    -0.388 OA
HETATM   11  C   UNK N   1      -0.709   1.706  -0.838  0.00  0.00     0.176 C 
HETATM   12  C   UNK N   1       0.343   0.698  -1.285  0.00  0.00     0.054 C 
HETATM   13  C   UNK N   1       1.470   1.453  -2.013  0.00  0.00     0.092 C 
HETATM   14  S   UNK N   1       2.611   2.292  -0.864  0.00  0.00    -0.094 SA
HETATM   15  C   UNK N   1       3.099   0.698  -0.213  0.00  0.00     0.134 C 
HETATM   16  N   UNK N   1       2.208  -0.173   0.108  0.00  0.00    -0.355 N 
ATOM     17  HN  UNK N   1       2.534  -1.080   0.440  1.00  0.00     0.162 HD
BRANCH  15  18
HETATM   18  N   UNK N   1       4.465   0.346  -0.154  0.00  0.00    -0.380 N 
HETATM   19  H   UNK N   1       4.730  -0.601  -0.113  0.00  0.00     0.158 HD
HETATM   20  H   UNK N   1       5.154   1.049  -0.154  0.00  0.00     0.158 HD
ENDBRANCH  15  18
ENDBRANCH   4   8
BRANCH   6  21
HETATM   21  N   UNK N   1       1.487  -4.526   1.169  0.00  0.00    -0.322 N 
HETATM   22  C   UNK N   1       1.569  -5.785   0.684  0.00  0.00     0.272 C 
HETATM   23  O   UNK N   1       0.596  -6.350   0.215  0.00  0.00    -0.266 OA
HETATM   24  H   UNK N   1       2.230  -4.222   1.738  0.00  0.00     0.169 HD
BRANCH  22  25
HETATM   25  C   UNK N   1       2.924  -6.327   0.487  0.00  0.00     0.101 A 
HETATM   26  C   UNK N   1       4.036  -5.548   0.846  0.00  0.00     0.038 A 
HETATM   27  C   UNK N   1       5.316  -5.967   0.502  0.00  0.00     0.046 A 
HETATM   28  C   UNK N   1       5.479  -7.154  -0.208  0.00  0.00     0.131 A 
HETATM   29  C   UNK N   1       4.355  -7.914  -0.547  0.00  0.00     0.130 A 
HETATM   30  F   UNK N   1       6.717  -7.561  -0.572  0.00  0.00    -0.205 F 
HETATM   31  N   UNK N   1       3.109  -7.487  -0.204  0.00  0.00    -0.359 N 
ATOM     32  HN  UNK N   1       2.298  -8.046  -0.470  1.00  0.00     0.165 HD
ENDBRANCH  22  25
ENDBRANCH   6  21
TORSDOF 4
