MODEL 1
REMARK VINA RESULT:      -4.6      0.000      0.000
REMARK  0 active torsions:
REMARK  status: ('A' for Active; 'I' for Inactive)
REMARK       I    between atoms: C_4  and  N_13 
REMARK       I    between atoms: C_7  and  N_10 
ROOT
HETATM    1  C   UNK N   1      34.160  10.670  13.297  0.00  0.00     0.056 C 
HETATM    2  C   UNK N   1      34.814  12.032  13.235  0.00  0.00     0.212 A 
HETATM    3  N   UNK N   1      35.747  12.449  14.245  0.00  0.00    -0.205 N 
HETATM    4  C   UNK N   1      36.336  13.731  14.148  0.00  0.00     0.687 A 
HETATM    5  N   UNK N   1      36.039  14.514  13.166  0.00  0.00    -0.023 N 
ATOM      6  HN  UNK N   1      36.477  15.434  13.119  1.00  0.00     0.203 HD
HETATM    7  C   UNK N   1      35.113  14.133  12.141  0.00  0.00     0.691 A 
HETATM    8  N   UNK N   1      34.540  12.972  12.173  0.00  0.00    -0.204 N 
ATOM      9  HN  UNK N   1      33.884  12.717  11.434  1.00  0.00     0.179 HD
HETATM   10  N   UNK N   1      34.824  15.042  11.079  0.00  0.00    -0.226 N 
HETATM   11  C   UNK N   1      35.454  16.335  11.032  0.00  0.00     0.168 C 
HETATM   12  C   UNK N   1      33.897  14.683  10.036  0.00  0.00     0.168 C 
HETATM   13  N   UNK N   1      37.254  14.153  15.133  0.00  0.00    -0.234 N 
HETATM   14  H   UNK N   1      35.973  11.851  14.993  0.00  0.00     0.179 HD
HETATM   15  H   UNK N   1      37.667  15.045  15.071  0.00  0.00     0.174 HD
HETATM   16  H   UNK N   1      37.481  13.555  15.882  0.00  0.00     0.174 HD
ENDROOT
TORSDOF 0
ENDMDL
MODEL 2
REMARK VINA RESULT:      -4.5     15.575     17.984
REMARK  0 active torsions:
REMARK  status: ('A' for Active; 'I' for Inactive)
REMARK       I    between atoms: C_4  and  N_13 
REMARK       I    between atoms: C_7  and  N_10 
ROOT
HETATM    1  C   UNK N   1      19.499  17.191   3.643  0.00  0.00     0.056 C 
HETATM    2  C   UNK N   1      20.382  18.300   3.116  0.00  0.00     0.212 A 
HETATM    3  N   UNK N   1      19.905  19.211   2.113  0.00  0.00    -0.205 N 
HETATM    4  C   UNK N   1      20.764  20.233   1.649  0.00  0.00     0.687 A 
HETATM    5  N   UNK N   1      21.960  20.345   2.120  0.00  0.00    -0.023 N 
ATOM      6  HN  UNK N   1      22.561  21.092   1.769  1.00  0.00     0.203 HD
HETATM    7  C   UNK N   1      22.472  19.456   3.121  0.00  0.00     0.691 A 
HETATM    8  N   UNK N   1      21.734  18.499   3.587  0.00  0.00    -0.204 N 
ATOM      9  HN  UNK N   1      22.114  17.875   4.299  1.00  0.00     0.179 HD
HETATM   10  N   UNK N   1      23.803  19.630   3.604  0.00  0.00    -0.226 N 
HETATM   11  C   UNK N   1      24.633  20.689   3.094  0.00  0.00     0.168 C 
HETATM   12  C   UNK N   1      24.341  18.750   4.610  0.00  0.00     0.168 C 
HETATM   13  N   UNK N   1      20.307  21.134   0.664  0.00  0.00    -0.234 N 
HETATM   14  H   UNK N   1      18.993  19.124   1.755  0.00  0.00     0.179 HD
HETATM   15  H   UNK N   1      20.901  21.848   0.337  0.00  0.00     0.174 HD
HETATM   16  H   UNK N   1      19.394  21.048   0.304  0.00  0.00     0.174 HD
ENDROOT
TORSDOF 0
ENDMDL
MODEL 3
REMARK VINA RESULT:      -4.4      9.661     12.341
REMARK  0 active torsions:
REMARK  status: ('A' for Active; 'I' for Inactive)
REMARK       I    between atoms: C_4  and  N_13 
REMARK       I    between atoms: C_7  and  N_10 
ROOT
HETATM    1  C   UNK N   1      26.327  20.560   3.153  0.00  0.00     0.056 C 
HETATM    2  C   UNK N   1      26.721  20.231   4.575  0.00  0.00     0.212 A 
HETATM    3  N   UNK N   1      26.117  20.912   5.686  0.00  0.00    -0.205 N 
HETATM    4  C   UNK N   1      26.514  20.572   7.000  0.00  0.00     0.687 A 
HETATM    5  N   UNK N   1      27.408  19.663   7.197  0.00  0.00    -0.023 N 
ATOM      6  HN  UNK N   1      27.678  19.435   8.154  1.00  0.00     0.203 HD
HETATM    7  C   UNK N   1      28.033  18.961   6.115  0.00  0.00     0.691 A 
HETATM    8  N   UNK N   1      27.712  19.227   4.888  0.00  0.00    -0.204 N 
ATOM      9  HN  UNK N   1      28.168  18.718   4.130  1.00  0.00     0.179 HD
HETATM   10  N   UNK N   1      29.016  17.965   6.395  0.00  0.00    -0.226 N 
HETATM   11  C   UNK N   1      29.381  17.661   7.753  0.00  0.00     0.168 C 
HETATM   12  C   UNK N   1      29.659  17.245   5.325  0.00  0.00     0.168 C 
HETATM   13  N   UNK N   1      25.928  21.234   8.099  0.00  0.00    -0.234 N 
HETATM   14  H   UNK N   1      25.435  21.605   5.534  0.00  0.00     0.179 HD
HETATM   15  H   UNK N   1      26.201  21.002   9.016  0.00  0.00     0.174 HD
HETATM   16  H   UNK N   1      25.246  21.929   7.948  0.00  0.00     0.174 HD
ENDROOT
TORSDOF 0
ENDMDL
MODEL 4
REMARK VINA RESULT:      -4.3      0.938      2.815
REMARK  0 active torsions:
REMARK  status: ('A' for Active; 'I' for Inactive)
REMARK       I    between atoms: C_4  and  N_13 
REMARK       I    between atoms: C_7  and  N_10 
ROOT
HETATM    1  C   UNK N   1      37.143  14.525  15.404  0.00  0.00     0.056 C 
HETATM    2  C   UNK N   1      36.274  14.038  14.266  0.00  0.00     0.212 A 
HETATM    3  N   UNK N   1      35.600  12.772  14.340  0.00  0.00    -0.205 N 
HETATM    4  C   UNK N   1      34.798  12.356  13.253  0.00  0.00     0.687 A 
HETATM    5  N   UNK N   1      34.673  13.104  12.209  0.00  0.00    -0.023 N 
ATOM      6  HN  UNK N   1      34.088  12.782  11.438  1.00  0.00     0.203 HD
HETATM    7  C   UNK N   1      35.329  14.373  12.098  0.00  0.00     0.691 A 
HETATM    8  N   UNK N   1      36.079  14.811  13.060  0.00  0.00    -0.204 N 
ATOM      9  HN  UNK N   1      36.538  15.717  12.964  1.00  0.00     0.179 HD
HETATM   10  N   UNK N   1      35.154  15.157  10.919  0.00  0.00    -0.226 N 
HETATM   11  C   UNK N   1      34.324  14.682   9.843  0.00  0.00     0.168 C 
HETATM   12  C   UNK N   1      35.803  16.436  10.782  0.00  0.00     0.168 C 
HETATM   13  N   UNK N   1      34.131  11.115  13.314  0.00  0.00    -0.234 N 
HETATM   14  H   UNK N   1      35.697  12.203  15.137  0.00  0.00     0.179 HD
HETATM   15  H   UNK N   1      33.570  10.819  12.560  0.00  0.00     0.174 HD
HETATM   16  H   UNK N   1      34.226  10.543  14.111  0.00  0.00     0.174 HD
ENDROOT
TORSDOF 0
ENDMDL
MODEL 5
REMARK VINA RESULT:      -4.3     12.190     13.375
REMARK  0 active torsions:
REMARK  status: ('A' for Active; 'I' for Inactive)
REMARK       I    between atoms: C_4  and  N_13 
REMARK       I    between atoms: C_7  and  N_10 
ROOT
HETATM    1  C   UNK N   1      20.203  12.007  11.715  0.00  0.00     0.056 C 
HETATM    2  C   UNK N   1      21.379  12.444  10.870  0.00  0.00     0.212 A 
HETATM    3  N   UNK N   1      22.727  12.263  11.331  0.00  0.00    -0.205 N 
HETATM    4  C   UNK N   1      23.797  12.686  10.509  0.00  0.00     0.687 A 
HETATM    5  N   UNK N   1      23.564  13.227   9.361  0.00  0.00    -0.023 N 
ATOM      6  HN  UNK N   1      24.352  13.524   8.786  1.00  0.00     0.203 HD
HETATM    7  C   UNK N   1      22.233  13.424   8.867  0.00  0.00     0.691 A 
HETATM    8  N   UNK N   1      21.210  13.058   9.573  0.00  0.00    -0.204 N 
ATOM      9  HN  UNK N   1      20.270  13.205   9.206  1.00  0.00     0.179 HD
HETATM   10  N   UNK N   1      22.037  14.028   7.589  0.00  0.00    -0.226 N 
HETATM   11  C   UNK N   1      23.164  14.439   6.795  0.00  0.00     0.168 C 
HETATM   12  C   UNK N   1      20.709  14.237   7.070  0.00  0.00     0.168 C 
HETATM   13  N   UNK N   1      25.126  12.514  10.950  0.00  0.00    -0.234 N 
HETATM   14  H   UNK N   1      22.903  11.850  12.207  0.00  0.00     0.179 HD
HETATM   15  H   UNK N   1      25.874  12.807  10.382  0.00  0.00     0.174 HD
HETATM   16  H   UNK N   1      25.304  12.101  11.826  0.00  0.00     0.174 HD
ENDROOT
TORSDOF 0
ENDMDL
MODEL 6
REMARK VINA RESULT:      -4.3      2.307      3.871
REMARK  0 active torsions:
REMARK  status: ('A' for Active; 'I' for Inactive)
REMARK       I    between atoms: C_4  and  N_13 
REMARK       I    between atoms: C_7  and  N_10 
ROOT
HETATM    1  C   UNK N   1      33.844  10.711  14.092  0.00  0.00     0.056 C 
HETATM    2  C   UNK N   1      34.888  11.805  14.101  0.00  0.00     0.212 A 
HETATM    3  N   UNK N   1      35.672  12.089  12.932  0.00  0.00    -0.205 N 
HETATM    4  C   UNK N   1      36.637  13.121  12.985  0.00  0.00     0.687 A 
HETATM    5  N   UNK N   1      36.810  13.798  14.069  0.00  0.00    -0.023 N 
ATOM      6  HN  UNK N   1      37.512  14.538  14.083  1.00  0.00     0.203 HD
HETATM    7  C   UNK N   1      36.047  13.545  15.256  0.00  0.00     0.691 A 
HETATM    8  N   UNK N   1      35.148  12.613  15.271  0.00  0.00    -0.204 N 
ATOM      9  HN  UNK N   1      34.614  12.446  16.125  1.00  0.00     0.179 HD
HETATM   10  N   UNK N   1      36.283  14.327  16.426  0.00  0.00    -0.226 N 
HETATM   11  C   UNK N   1      37.279  15.366  16.422  0.00  0.00     0.168 C 
HETATM   12  C   UNK N   1      35.530  14.092  17.632  0.00  0.00     0.168 C 
HETATM   13  N   UNK N   1      37.413  13.409  11.843  0.00  0.00    -0.234 N 
HETATM   14  H   UNK N   1      35.539  11.571  12.105  0.00  0.00     0.179 HD
HETATM   15  H   UNK N   1      38.087  14.127  11.874  0.00  0.00     0.174 HD
HETATM   16  H   UNK N   1      37.281  12.892  11.015  0.00  0.00     0.174 HD
ENDROOT
TORSDOF 0
ENDMDL
MODEL 7
REMARK VINA RESULT:      -4.3      2.055      4.922
REMARK  0 active torsions:
REMARK  status: ('A' for Active; 'I' for Inactive)
REMARK       I    between atoms: C_4  and  N_13 
REMARK       I    between atoms: C_7  and  N_10 
ROOT
HETATM    1  C   UNK N   1      37.551  15.759  16.114  0.00  0.00     0.056 C 
HETATM    2  C   UNK N   1      36.840  14.699  15.303  0.00  0.00     0.212 A 
HETATM    3  N   UNK N   1      36.711  14.822  13.878  0.00  0.00    -0.205 N 
HETATM    4  C   UNK N   1      36.039  13.806  13.159  0.00  0.00     0.687 A 
HETATM    5  N   UNK N   1      35.548  12.785  13.775  0.00  0.00    -0.023 N 
ATOM      6  HN  UNK N   1      35.067  12.066  13.234  1.00  0.00     0.203 HD
HETATM    7  C   UNK N   1      35.657  12.627  15.196  0.00  0.00     0.691 A 
HETATM    8  N   UNK N   1      36.261  13.522  15.911  0.00  0.00    -0.204 N 
ATOM      9  HN  UNK N   1      36.329  13.394  16.921  1.00  0.00     0.179 HD
HETATM   10  N   UNK N   1      35.094  11.475  15.822  0.00  0.00    -0.226 N 
HETATM   11  C   UNK N   1      34.420  10.474  15.039  0.00  0.00     0.168 C 
HETATM   12  C   UNK N   1      35.190  11.293  17.249  0.00  0.00     0.168 C 
HETATM   13  N   UNK N   1      35.905  13.915  11.759  0.00  0.00    -0.234 N 
HETATM   14  H   UNK N   1      37.086  15.601  13.409  0.00  0.00     0.179 HD
HETATM   15  H   UNK N   1      35.438  13.212  11.253  0.00  0.00     0.174 HD
HETATM   16  H   UNK N   1      36.280  14.695  11.288  0.00  0.00     0.174 HD
ENDROOT
TORSDOF 0
ENDMDL
MODEL 8
REMARK VINA RESULT:      -4.3      6.954      8.039
REMARK  0 active torsions:
REMARK  status: ('A' for Active; 'I' for Inactive)
REMARK       I    between atoms: C_4  and  N_13 
REMARK       I    between atoms: C_7  and  N_10 
ROOT
HETATM    1  C   UNK N   1      32.977  16.757   4.198  0.00  0.00     0.056 C 
HETATM    2  C   UNK N   1      32.772  17.205   5.628  0.00  0.00     0.212 A 
HETATM    3  N   UNK N   1      33.876  17.661   6.424  0.00  0.00    -0.205 N 
HETATM    4  C   UNK N   1      33.640  18.071   7.757  0.00  0.00     0.687 A 
HETATM    5  N   UNK N   1      32.448  18.034   8.250  0.00  0.00    -0.023 N 
ATOM      6  HN  UNK N   1      32.302  18.334   9.214  1.00  0.00     0.203 HD
HETATM    7  C   UNK N   1      31.321  17.584   7.486  0.00  0.00     0.691 A 
HETATM    8  N   UNK N   1      31.473  17.196   6.260  0.00  0.00    -0.204 N 
ATOM      9  HN  UNK N   1      30.659  16.879   5.731  1.00  0.00     0.179 HD
HETATM   10  N   UNK N   1      30.026  17.565   8.085  0.00  0.00    -0.226 N 
HETATM   11  C   UNK N   1      29.844  17.994   9.447  0.00  0.00     0.168 C 
HETATM   12  C   UNK N   1      28.877  17.118   7.339  0.00  0.00     0.168 C 
HETATM   13  N   UNK N   1      34.716  18.521   8.550  0.00  0.00    -0.234 N 
HETATM   14  H   UNK N   1      34.785  17.689   6.047  0.00  0.00     0.179 HD
HETATM   15  H   UNK N   1      34.557  18.807   9.478  0.00  0.00     0.174 HD
HETATM   16  H   UNK N   1      35.626  18.550   8.174  0.00  0.00     0.174 HD
ENDROOT
TORSDOF 0
ENDMDL
MODEL 9
REMARK VINA RESULT:      -4.2      8.355     10.506
REMARK  0 active torsions:
REMARK  status: ('A' for Active; 'I' for Inactive)
REMARK       I    between atoms: C_4  and  N_13 
REMARK       I    between atoms: C_7  and  N_10 
ROOT
HETATM    1  C   UNK N   1      27.388  19.835   4.204  0.00  0.00     0.056 C 
HETATM    2  C   UNK N   1      28.012  19.042   5.330  0.00  0.00     0.212 A 
HETATM    3  N   UNK N   1      27.533  19.169   6.678  0.00  0.00    -0.205 N 
HETATM    4  C   UNK N   1      28.146  18.408   7.700  0.00  0.00     0.687 A 
HETATM    5  N   UNK N   1      29.122  17.611   7.425  0.00  0.00    -0.023 N 
ATOM      6  HN  UNK N   1      29.548  17.073   8.180  1.00  0.00     0.203 HD
HETATM    7  C   UNK N   1      29.628  17.457   6.093  0.00  0.00     0.691 A 
HETATM    8  N   UNK N   1      29.109  18.126   5.113  0.00  0.00    -0.204 N 
ATOM      9  HN  UNK N   1      29.482  18.004   4.170  1.00  0.00     0.179 HD
HETATM   10  N   UNK N   1      30.710  16.560   5.849  0.00  0.00    -0.226 N 
HETATM   11  C   UNK N   1      31.296  15.811   6.930  0.00  0.00     0.168 C 
HETATM   12  C   UNK N   1      31.237  16.387   4.519  0.00  0.00     0.168 C 
HETATM   13  N   UNK N   1      27.684  18.525   9.028  0.00  0.00    -0.234 N 
HETATM   14  H   UNK N   1      26.788  19.778   6.886  0.00  0.00     0.179 HD
HETATM   15  H   UNK N   1      28.107  17.998   9.744  0.00  0.00     0.174 HD
HETATM   16  H   UNK N   1      26.938  19.133   9.238  0.00  0.00     0.174 HD
ENDROOT
TORSDOF 0
ENDMDL
