REMARK  8 active torsions:
REMARK  status: ('A' for Active; 'I' for Inactive)
REMARK    1  A    between atoms: C_3  and  C_15 
REMARK    2  A    between atoms: C_5  and  O_7 
REMARK    3  A    between atoms: O_7  and  C_8 
REMARK    4  A    between atoms: C_8  and  C_9 
REMARK    5  A    between atoms: C_15  and  C_16 
REMARK    6  A    between atoms: C_15  and  O_19 
REMARK    7  A    between atoms: C_16  and  C_17 
REMARK    8  A    between atoms: C_17  and  N_18 
ROOT
HETATM    1  C   UNK N   1       1.400  -4.848  -0.384  0.00  0.00     0.003 A 
HETATM    2  C   UNK N   1       0.136  -5.427  -0.216  0.00  0.00     0.010 A 
HETATM    3  C   UNK N   1      -0.962  -4.632   0.153  0.00  0.00    -0.027 A 
HETATM    4  C   UNK N   1      -0.774  -3.263   0.353  0.00  0.00     0.046 A 
HETATM    5  C   UNK N   1       0.476  -2.673   0.171  0.00  0.00     0.069 A 
HETATM    6  C   UNK N   1       1.571  -3.471  -0.202  0.00  0.00     0.037 A 
ENDROOT
BRANCH   3   7
HETATM    7  C   UNK N   1      -2.352  -5.189   0.311  0.00  0.00     0.152 C 
BRANCH   7   8
HETATM    8  C   UNK N   1      -2.453  -6.685   0.038  0.00  0.00     0.055 C 
BRANCH   8   9
HETATM    9  C   UNK N   1      -3.871  -7.166   0.293  0.00  0.00     0.114 C 
BRANCH   9  10
HETATM   10  N   UNK N   1      -4.003  -8.544  -0.142  0.00  0.00    -0.430 N 
HETATM   11  H   UNK N   1      -4.888  -8.948  -0.448  0.00  0.00     0.149 HD
HETATM   12  H   UNK N   1      -3.172  -9.136  -0.142  0.00  0.00     0.149 HD
ENDBRANCH   9  10
ENDBRANCH   8   9
ENDBRANCH   7   8
BRANCH   7  13
HETATM   13  O   UNK N   1      -3.221  -4.502  -0.542  0.00  0.00    -0.391 OA
HETATM   14  H   UNK N   1      -3.110  -3.742  -1.135  0.00  0.00     0.210 HD
ENDBRANCH   7  13
ENDBRANCH   3   7
BRANCH   5  15
HETATM   15  O   UNK N   1       0.578  -1.338   0.341  0.00  0.00    -0.351 OA
BRANCH  15  16
HETATM   16  C   UNK N   1       1.675  -0.581  -0.001  0.00  0.00     0.180 C 
BRANCH  16  17
HETATM   17  C   UNK N   1       1.375   0.874   0.326  0.00  0.00     0.010 C 
HETATM   18  C   UNK N   1       0.084   1.331  -0.357  0.00  0.00     0.007 C 
HETATM   19  C   UNK N   1      -0.234   2.766   0.045  0.00  0.00     0.000 C 
HETATM   20  C   UNK N   1       0.914   3.684  -0.362  0.00  0.00     0.000 C 
HETATM   21  C   UNK N   1       2.222   3.222   0.280  0.00  0.00     0.000 C 
HETATM   22  C   UNK N   1       2.529   1.774  -0.102  0.00  0.00     0.007 C 
ENDBRANCH  16  17
ENDBRANCH  15  16
ENDBRANCH   5  15
TORSDOF 8
