REMARK  6 active torsions:
REMARK  status: ('A' for Active; 'I' for Inactive)
REMARK    1  A    between atoms: C_2  and  C_3 
REMARK    2  A    between atoms: C_2  and  C_15 
REMARK    3  A    between atoms: C_8  and  O_13 
REMARK    4  A    between atoms: C_15  and  O_17 
REMARK    5  A    between atoms: O_17  and  C_18 
REMARK    6  A    between atoms: C_18  and  C_19 
ROOT
HETATM    1  C   UNK N   1       0.302  -0.994  -0.252  0.00  0.00    -0.044 A 
HETATM    2  C   UNK N   1       0.270   0.373   0.080  0.00  0.00     0.009 A 
HETATM    3  C   UNK N   1       1.462   1.093   0.230  0.00  0.00     0.013 A 
HETATM    4  C   UNK N   1       2.692   0.453   0.049  0.00  0.00    -0.023 A 
HETATM    5  C   UNK N   1       3.889   1.158   0.211  0.00  0.00     0.049 A 
HETATM    6  C   UNK N   1       5.120   0.511   0.032  0.00  0.00     0.069 A 
HETATM    7  C   UNK N   1       5.141  -0.852  -0.317  0.00  0.00     0.037 A 
HETATM    8  C   UNK N   1       3.949  -1.560  -0.480  0.00  0.00     0.015 A 
HETATM    9  C   UNK N   1       2.726  -0.915  -0.296  0.00  0.00    -0.025 A 
HETATM   10  C   UNK N   1       1.538  -1.625  -0.443  0.00  0.00     0.020 A 
ENDROOT
BRANCH   1  11
HETATM   11  C   UNK N   1      -0.955  -1.830  -0.375  0.00  0.00     0.114 C 
HETATM   12  C   UNK N   1      -2.235  -1.004  -0.310  0.00  0.00     0.025 C 
BRANCH  11  13
HETATM   13  C   UNK N   1      -1.009  -2.914   0.686  0.00  0.00     0.267 C 
HETATM   14  O   UNK N   1      -0.238  -2.874   1.635  0.00  0.00    -0.265 OA
BRANCH  13  15
HETATM   15  O   UNK N   1      -1.896  -3.933   0.624  0.00  0.00    -0.320 OA
BRANCH  15  16
HETATM   16  C   UNK N   1      -2.644  -4.254  -0.485  0.00  0.00     0.193 C 
BRANCH  16  17
HETATM   17  C   UNK N   1      -2.363  -5.711  -0.880  0.00  0.00     0.166 A 
HETATM   18  S   UNK N   1      -2.353  -6.811   0.587  0.00  0.00     0.142 S 
HETATM   19  O   UNK N   1      -2.057  -8.278   0.243  0.00  0.00    -0.228 OA
HETATM   20  O   UNK N   1      -3.737  -7.085  -0.017  0.00  0.00    -0.228 OA
HETATM   21  C   UNK N   1      -1.149  -6.842  -0.776  0.00  0.00     0.161 A 
ENDBRANCH  16  17
ENDBRANCH  15  16
ENDBRANCH  13  15
ENDBRANCH  11  13
ENDBRANCH   1  11
BRANCH   6  22
HETATM   22  O   UNK N   1       6.264   1.214   0.201  0.00  0.00    -0.356 OA
HETATM   23  C   UNK N   1       7.516   0.661   0.052  0.00  0.00     0.210 C 
ENDBRANCH   6  22
TORSDOF 6
