MODEL 1
REMARK VINA RESULT:      -9.3      0.000      0.000
REMARK  4 active torsions:
REMARK  status: ('A' for Active; 'I' for Inactive)
REMARK    1  A    between atoms: C_16  and  N_20 
REMARK       I    between atoms: N_20  and  C_21 
REMARK    2  A    between atoms: C_21  and  C_23 
REMARK    3  A    between atoms: C_23  and  N_24 
REMARK    4  A    between atoms: C_25  and  C_35 
ROOT
HETATM    1  N   UNK N   1      36.608  14.696  13.652  0.00  0.00    -0.326 N 
HETATM    2  C   UNK N   1      35.869  14.762  12.515  0.00  0.00     0.240 C 
HETATM    3  O   UNK N   1      34.841  14.105  12.402  0.00  0.00    -0.271 OA
HETATM    4  H   UNK N   1      37.228  15.419  13.903  0.00  0.00     0.169 HD
ENDROOT
BRANCH   2   5
HETATM    5  C   UNK N   1      36.480  15.393  11.306  0.00  0.00     0.229 C 
BRANCH   5   6
HETATM    6  N   UNK N   1      35.737  15.137  10.094  0.00  0.00    -0.331 N 
HETATM    7  C   UNK N   1      35.581  13.734   9.705  0.00  0.00     0.138 C 
HETATM    8  C   UNK N   1      34.561  13.525   8.578  0.00  0.00     0.145 C 
HETATM    9  N   UNK N   1      34.630  14.602   7.595  0.00  0.00    -0.403 N 
HETATM   10  C   UNK N   1      34.224  15.865   8.220  0.00  0.00     0.107 C 
HETATM   11  H   UNK N   1      34.918  14.493   6.623  0.00  0.00     0.154 HD
HETATM   12  C   UNK N   1      35.091  16.152   9.431  0.00  0.00     0.248 C 
HETATM   13  C   UNK N   1      32.754  15.854   8.612  0.00  0.00     0.040 C 
HETATM   14  C   UNK N   1      34.284  16.984   7.192  0.00  0.00     0.040 C 
HETATM   15  O   UNK N   1      35.161  17.305   9.860  0.00  0.00    -0.270 OA
HETATM   16  C   UNK N   1      32.330  17.309   8.627  0.00  0.00     0.003 C 
HETATM   17  C   UNK N   1      33.245  18.012   7.634  0.00  0.00     0.003 C 
BRANCH   7  18
HETATM   18  C   UNK N   1      36.910  13.016   9.520  0.00  0.00    -0.028 A 
HETATM   19  C   UNK N   1      37.135  11.795  10.176  0.00  0.00     0.051 A 
HETATM   20  C   UNK N   1      38.324  11.093  10.016  0.00  0.00     0.119 A 
HETATM   21  C   UNK N   1      39.301  11.584   9.153  0.00  0.00     0.084 A 
HETATM   22  F   UNK N   1      38.525   9.941  10.699  0.00  0.00    -0.206 F 
HETATM   23  C   UNK N   1      39.085  12.783   8.464  0.00  0.00     0.119 A 
HETATM   24  C   UNK N   1      37.897  13.503   8.652  0.00  0.00     0.051 A 
HETATM   25  F   UNK N   1      40.022  13.241   7.604  0.00  0.00    -0.206 F 
ENDBRANCH   7  18
ENDBRANCH   5   6
ENDBRANCH   2   5
BRANCH   1  26
HETATM   26  C   UNK N   1      36.453  13.557  14.455  0.00  0.00     0.035 A 
HETATM   27  C   UNK N   1      35.340  13.433  15.321  0.00  0.00     0.030 A 
HETATM   28  C   UNK N   1      34.830  12.157  15.621  0.00  0.00     0.010 A 
HETATM   29  C   UNK N   1      35.420  11.049  15.006  0.00  0.00    -0.050 A 
HETATM   30  C   UNK N   1      34.892   9.669  14.952  0.00  0.00     0.064 C 
HETATM   31  C   UNK N   1      36.525  11.186  14.216  0.00  0.00    -0.048 A 
HETATM   32  C   UNK N   1      35.609   9.166  13.669  0.00  0.00     0.080 A 
HETATM   33  C   UNK N   1      35.801   7.667  13.594  0.00  0.00     0.237 A 
HETATM   34  C   UNK N   1      34.777   9.337  12.408  0.00  0.00     0.005 A 
HETATM   35  C   UNK N   1      36.922   9.941  13.553  0.00  0.00     0.064 C 
HETATM   36  N   UNK N   1      35.214   7.099  12.521  0.00  0.00    -0.312 N 
HETATM   37  O   UNK N   1      36.445   7.022  14.406  0.00  0.00    -0.272 OA
HETATM   38  C   UNK N   1      34.598   8.122  11.806  0.00  0.00     0.115 A 
HETATM   39  H   UNK N   1      35.219   6.143  12.288  0.00  0.00     0.170 HD
HETATM   40  N   UNK N   1      33.916   7.975  10.642  0.00  0.00    -0.352 N 
HETATM   41  C   UNK N   1      33.379   9.077  10.039  0.00  0.00     0.089 A 
ATOM     42  HN  UNK N   1      33.805   7.052  10.222  1.00  0.00     0.166 HD
HETATM   43  C   UNK N   1      33.535  10.354  10.618  0.00  0.00     0.018 A 
HETATM   44  C   UNK N   1      34.247  10.489  11.822  0.00  0.00     0.013 A 
HETATM   45  C   UNK N   1      37.044  12.419  13.921  0.00  0.00     0.037 A 
ENDBRANCH   1  26
TORSDOF 4
ENDMDL
MODEL 2
REMARK VINA RESULT:      -9.0      9.377     13.984
REMARK  4 active torsions:
REMARK  status: ('A' for Active; 'I' for Inactive)
REMARK    1  A    between atoms: C_16  and  N_20 
REMARK       I    between atoms: N_20  and  C_21 
REMARK    2  A    between atoms: C_21  and  C_23 
REMARK    3  A    between atoms: C_23  and  N_24 
REMARK    4  A    between atoms: C_25  and  C_35 
ROOT
HETATM    1  N   UNK N   1      27.280  16.050   3.989  0.00  0.00    -0.326 N 
HETATM    2  C   UNK N   1      28.463  15.817   4.614  0.00  0.00     0.240 C 
HETATM    3  O   UNK N   1      28.604  14.833   5.332  0.00  0.00    -0.271 OA
HETATM    4  H   UNK N   1      27.229  16.618   3.185  0.00  0.00     0.169 HD
ENDROOT
BRANCH   2   5
HETATM    5  C   UNK N   1      29.469  16.921   4.667  0.00  0.00     0.229 C 
BRANCH   5   6
HETATM    6  N   UNK N   1      29.842  17.288   6.013  0.00  0.00    -0.331 N 
HETATM    7  C   UNK N   1      28.758  17.716   6.900  0.00  0.00     0.138 C 
HETATM    8  C   UNK N   1      29.181  17.822   8.371  0.00  0.00     0.145 C 
HETATM    9  N   UNK N   1      30.539  18.341   8.495  0.00  0.00    -0.403 N 
HETATM   10  C   UNK N   1      31.487  17.384   7.915  0.00  0.00     0.107 C 
HETATM   11  H   UNK N   1      30.791  19.233   8.919  0.00  0.00     0.154 HD
HETATM   12  C   UNK N   1      31.124  17.099   6.470  0.00  0.00     0.248 C 
HETATM   13  C   UNK N   1      31.542  16.089   8.712  0.00  0.00     0.040 C 
HETATM   14  C   UNK N   1      32.903  17.919   8.056  0.00  0.00     0.040 C 
HETATM   15  O   UNK N   1      31.979  16.630   5.717  0.00  0.00    -0.270 OA
HETATM   16  C   UNK N   1      32.912  15.503   8.436  0.00  0.00     0.003 C 
HETATM   17  C   UNK N   1      33.809  16.692   8.120  0.00  0.00     0.003 C 
BRANCH   7  18
HETATM   18  C   UNK N   1      27.984  18.910   6.359  0.00  0.00    -0.028 A 
HETATM   19  C   UNK N   1      27.413  19.829   7.254  0.00  0.00     0.051 A 
HETATM   20  C   UNK N   1      26.719  20.946   6.804  0.00  0.00     0.119 A 
HETATM   21  C   UNK N   1      26.622  21.190   5.436  0.00  0.00     0.084 A 
HETATM   22  F   UNK N   1      26.142  21.787   7.696  0.00  0.00    -0.206 F 
HETATM   23  C   UNK N   1      27.211  20.305   4.526  0.00  0.00     0.119 A 
HETATM   24  C   UNK N   1      27.883  19.163   4.984  0.00  0.00     0.051 A 
HETATM   25  F   UNK N   1      27.142  20.560   3.201  0.00  0.00    -0.206 F 
ENDBRANCH   7  18
ENDBRANCH   5   6
ENDBRANCH   2   5
BRANCH   1  26
HETATM   26  C   UNK N   1      26.136  15.453   4.534  0.00  0.00     0.035 A 
HETATM   27  C   UNK N   1      25.813  15.627   5.901  0.00  0.00     0.030 A 
HETATM   28  C   UNK N   1      24.467  15.610   6.307  0.00  0.00     0.010 A 
HETATM   29  C   UNK N   1      23.483  15.467   5.324  0.00  0.00    -0.050 A 
HETATM   30  C   UNK N   1      22.029  15.693   5.473  0.00  0.00     0.064 C 
HETATM   31  C   UNK N   1      23.817  15.246   4.018  0.00  0.00    -0.048 A 
HETATM   32  C   UNK N   1      21.661  16.003   3.997  0.00  0.00     0.080 A 
HETATM   33  C   UNK N   1      20.223  15.715   3.627  0.00  0.00     0.237 A 
HETATM   34  C   UNK N   1      21.672  17.488   3.672  0.00  0.00     0.005 A 
HETATM   35  C   UNK N   1      22.663  15.254   3.116  0.00  0.00     0.064 C 
HETATM   36  N   UNK N   1      19.552  16.797   3.180  0.00  0.00    -0.312 N 
HETATM   37  O   UNK N   1      19.710  14.610   3.696  0.00  0.00    -0.272 OA
HETATM   38  C   UNK N   1      20.443  17.867   3.209  0.00  0.00     0.115 A 
HETATM   39  H   UNK N   1      18.612  16.825   2.890  0.00  0.00     0.170 HD
HETATM   40  N   UNK N   1      20.168  19.135   2.813  0.00  0.00    -0.352 N 
HETATM   41  C   UNK N   1      21.152  20.082   2.878  0.00  0.00     0.089 A 
ATOM     42  HN  UNK N   1      19.239  19.380   2.470  1.00  0.00     0.166 HD
HETATM   43  C   UNK N   1      22.437  19.743   3.349  0.00  0.00     0.018 A 
HETATM   44  C   UNK N   1      22.706  18.424   3.752  0.00  0.00     0.013 A 
HETATM   45  C   UNK N   1      25.122  15.247   3.605  0.00  0.00     0.037 A 
ENDBRANCH   1  26
TORSDOF 4
ENDMDL
MODEL 3
REMARK VINA RESULT:      -9.0      3.417      7.993
REMARK  4 active torsions:
REMARK  status: ('A' for Active; 'I' for Inactive)
REMARK    1  A    between atoms: C_16  and  N_20 
REMARK       I    between atoms: N_20  and  C_21 
REMARK    2  A    between atoms: C_21  and  C_23 
REMARK    3  A    between atoms: C_23  and  N_24 
REMARK    4  A    between atoms: C_25  and  C_35 
ROOT
HETATM    1  N   UNK N   1      34.050  15.818   9.862  0.00  0.00    -0.326 N 
HETATM    2  C   UNK N   1      35.058  16.226  10.675  0.00  0.00     0.240 C 
HETATM    3  O   UNK N   1      35.291  17.420  10.825  0.00  0.00    -0.271 OA
HETATM    4  H   UNK N   1      33.637  14.929   9.964  0.00  0.00     0.169 HD
ENDROOT
BRANCH   2   5
HETATM    5  C   UNK N   1      36.060  15.215  11.128  0.00  0.00     0.229 C 
BRANCH   5   6
HETATM    6  N   UNK N   1      35.823  13.897  10.585  0.00  0.00    -0.331 N 
HETATM    7  C   UNK N   1      35.036  12.979  11.412  0.00  0.00     0.138 C 
HETATM    8  C   UNK N   1      34.595  11.714  10.665  0.00  0.00     0.145 C 
HETATM    9  N   UNK N   1      35.637  11.245   9.757  0.00  0.00    -0.403 N 
HETATM   10  C   UNK N   1      35.848  12.235   8.696  0.00  0.00     0.107 C 
HETATM   11  H   UNK N   1      36.141  10.363   9.848  0.00  0.00     0.154 HD
HETATM   12  C   UNK N   1      36.194  13.583   9.300  0.00  0.00     0.248 C 
HETATM   13  C   UNK N   1      34.633  12.357   7.788  0.00  0.00     0.040 C 
HETATM   14  C   UNK N   1      36.924  11.739   7.744  0.00  0.00     0.040 C 
HETATM   15  O   UNK N   1      36.756  14.426   8.602  0.00  0.00    -0.270 OA
HETATM   16  C   UNK N   1      35.170  12.864   6.464  0.00  0.00     0.003 C 
HETATM   17  C   UNK N   1      36.609  12.373   6.391  0.00  0.00     0.003 C 
BRANCH   7  18
HETATM   18  C   UNK N   1      35.647  12.744  12.785  0.00  0.00    -0.028 A 
HETATM   19  C   UNK N   1      34.909  13.064  13.936  0.00  0.00     0.051 A 
HETATM   20  C   UNK N   1      35.419  12.843  15.211  0.00  0.00     0.119 A 
HETATM   21  C   UNK N   1      36.670  12.248  15.357  0.00  0.00     0.084 A 
HETATM   22  F   UNK N   1      34.697  13.206  16.298  0.00  0.00    -0.206 F 
HETATM   23  C   UNK N   1      37.409  11.890  14.224  0.00  0.00     0.119 A 
HETATM   24  C   UNK N   1      36.905  12.145  12.941  0.00  0.00     0.051 A 
HETATM   25  F   UNK N   1      38.609  11.285  14.369  0.00  0.00    -0.206 F 
ENDBRANCH   7  18
ENDBRANCH   5   6
ENDBRANCH   2   5
BRANCH   1  26
HETATM   26  C   UNK N   1      33.621  16.711   8.871  0.00  0.00     0.035 A 
HETATM   27  C   UNK N   1      34.507  17.139   7.853  0.00  0.00     0.030 A 
HETATM   28  C   UNK N   1      34.002  17.472   6.583  0.00  0.00     0.010 A 
HETATM   29  C   UNK N   1      32.631  17.320   6.358  0.00  0.00    -0.050 A 
HETATM   30  C   UNK N   1      31.930  17.341   5.056  0.00  0.00     0.064 C 
HETATM   31  C   UNK N   1      31.786  16.957   7.368  0.00  0.00    -0.048 A 
HETATM   32  C   UNK N   1      30.672  16.508   5.425  0.00  0.00     0.080 A 
HETATM   33  C   UNK N   1      29.454  16.786   4.570  0.00  0.00     0.237 A 
HETATM   34  C   UNK N   1      30.817  15.027   5.113  0.00  0.00     0.005 A 
HETATM   35  C   UNK N   1      30.412  16.720   6.917  0.00  0.00     0.064 C 
HETATM   36  N   UNK N   1      28.994  15.700   3.915  0.00  0.00    -0.312 N 
HETATM   37  O   UNK N   1      28.912  17.877   4.491  0.00  0.00    -0.272 OA
HETATM   38  C   UNK N   1      29.827  14.638   4.255  0.00  0.00     0.115 A 
HETATM   39  H   UNK N   1      28.218  15.666   3.311  0.00  0.00     0.170 HD
HETATM   40  N   UNK N   1      29.692  13.358   3.825  0.00  0.00    -0.352 N 
HETATM   41  C   UNK N   1      30.576  12.411   4.260  0.00  0.00     0.089 A 
ATOM     42  HN  UNK N   1      28.938  13.104   3.187  1.00  0.00     0.166 HD
HETATM   43  C   UNK N   1      31.616  12.761   5.146  0.00  0.00     0.018 A 
HETATM   44  C   UNK N   1      31.741  14.090   5.584  0.00  0.00     0.013 A 
HETATM   45  C   UNK N   1      32.257  16.641   8.614  0.00  0.00     0.037 A 
ENDBRANCH   1  26
TORSDOF 4
ENDMDL
MODEL 4
REMARK VINA RESULT:      -8.9     17.912     21.849
REMARK  4 active torsions:
REMARK  status: ('A' for Active; 'I' for Inactive)
REMARK    1  A    between atoms: C_16  and  N_20 
REMARK       I    between atoms: N_20  and  C_21 
REMARK    2  A    between atoms: C_21  and  C_23 
REMARK    3  A    between atoms: C_23  and  N_24 
REMARK    4  A    between atoms: C_25  and  C_35 
ROOT
HETATM    1  N   UNK N   1      28.673  24.317  -3.599  0.00  0.00    -0.326 N 
HETATM    2  C   UNK N   1      27.362  24.469  -3.278  0.00  0.00     0.240 C 
HETATM    3  O   UNK N   1      26.699  23.508  -2.904  0.00  0.00    -0.271 OA
HETATM    4  H   UNK N   1      29.295  25.081  -3.588  0.00  0.00     0.169 HD
ENDROOT
BRANCH   2   5
HETATM    5  C   UNK N   1      26.673  25.732  -3.681  0.00  0.00     0.229 C 
BRANCH   5   6
HETATM    6  N   UNK N   1      27.051  26.191  -4.998  0.00  0.00    -0.331 N 
HETATM    7  C   UNK N   1      28.229  27.058  -5.077  0.00  0.00     0.138 C 
HETATM    8  C   UNK N   1      28.728  27.277  -6.511  0.00  0.00     0.145 C 
HETATM    9  N   UNK N   1      27.614  27.389  -7.447  0.00  0.00    -0.403 N 
HETATM   10  C   UNK N   1      26.891  26.115  -7.508  0.00  0.00     0.107 C 
HETATM   11  H   UNK N   1      27.375  28.226  -7.978  0.00  0.00     0.154 HD
HETATM   12  C   UNK N   1      26.421  25.714  -6.122  0.00  0.00     0.248 C 
HETATM   13  C   UNK N   1      27.741  25.011  -8.119  0.00  0.00     0.040 C 
HETATM   14  C   UNK N   1      25.739  26.229  -8.494  0.00  0.00     0.040 C 
HETATM   15  O   UNK N   1      25.506  24.898  -6.011  0.00  0.00    -0.270 OA
HETATM   16  C   UNK N   1      26.755  24.013  -8.692  0.00  0.00     0.003 C 
HETATM   17  C   UNK N   1      25.508  24.819  -9.031  0.00  0.00     0.003 C 
BRANCH   7  18
HETATM   18  C   UNK N   1      28.097  28.318  -4.235  0.00  0.00    -0.028 A 
HETATM   19  C   UNK N   1      26.960  29.130  -4.377  0.00  0.00     0.051 A 
HETATM   20  C   UNK N   1      26.786  30.278  -3.611  0.00  0.00     0.119 A 
HETATM   21  C   UNK N   1      27.736  30.611  -2.648  0.00  0.00     0.084 A 
HETATM   22  F   UNK N   1      25.699  31.062  -3.807  0.00  0.00    -0.206 F 
HETATM   23  C   UNK N   1      28.860  29.799  -2.467  0.00  0.00     0.119 A 
HETATM   24  C   UNK N   1      29.047  28.660  -3.263  0.00  0.00     0.051 A 
HETATM   25  F   UNK N   1      29.765  30.108  -1.511  0.00  0.00    -0.206 F 
ENDBRANCH   7  18
ENDBRANCH   5   6
ENDBRANCH   2   5
BRANCH   1  26
HETATM   26  C   UNK N   1      29.105  23.030  -3.948  0.00  0.00     0.035 A 
HETATM   27  C   UNK N   1      28.932  22.545  -5.267  0.00  0.00     0.030 A 
HETATM   28  C   UNK N   1      29.850  21.619  -5.794  0.00  0.00     0.010 A 
HETATM   29  C   UNK N   1      30.940  21.244  -5.002  0.00  0.00    -0.050 A 
HETATM   30  C   UNK N   1      32.153  20.518  -5.434  0.00  0.00     0.064 C 
HETATM   31  C   UNK N   1      31.059  21.682  -3.714  0.00  0.00    -0.048 A 
HETATM   32  C   UNK N   1      33.146  20.997  -4.340  0.00  0.00     0.080 A 
HETATM   33  C   UNK N   1      34.302  20.057  -4.076  0.00  0.00     0.237 A 
HETATM   34  C   UNK N   1      33.954  22.217  -4.752  0.00  0.00     0.005 A 
HETATM   35  C   UNK N   1      32.324  21.297  -3.085  0.00  0.00     0.064 C 
HETATM   36  N   UNK N   1      35.512  20.617  -4.284  0.00  0.00    -0.312 N 
HETATM   37  O   UNK N   1      34.170  18.908  -3.686  0.00  0.00    -0.272 OA
HETATM   38  C   UNK N   1      35.288  21.928  -4.691  0.00  0.00     0.115 A 
HETATM   39  H   UNK N   1      36.386  20.179  -4.170  0.00  0.00     0.170 HD
HETATM   40  N   UNK N   1      36.250  22.842  -4.978  0.00  0.00    -0.352 N 
HETATM   41  C   UNK N   1      35.881  24.106  -5.347  0.00  0.00     0.089 A 
ATOM     42  HN  UNK N   1      37.236  22.590  -4.918  1.00  0.00     0.166 HD
HETATM   43  C   UNK N   1      34.516  24.455  -5.426  0.00  0.00     0.018 A 
HETATM   44  C   UNK N   1      33.534  23.498  -5.122  0.00  0.00     0.013 A 
HETATM   45  C   UNK N   1      30.169  22.575  -3.178  0.00  0.00     0.037 A 
ENDBRANCH   1  26
TORSDOF 4
ENDMDL
MODEL 5
REMARK VINA RESULT:      -8.8      9.159     13.567
REMARK  4 active torsions:
REMARK  status: ('A' for Active; 'I' for Inactive)
REMARK    1  A    between atoms: C_16  and  N_20 
REMARK       I    between atoms: N_20  and  C_21 
REMARK    2  A    between atoms: C_21  and  C_23 
REMARK    3  A    between atoms: C_23  and  N_24 
REMARK    4  A    between atoms: C_25  and  C_35 
ROOT
HETATM    1  N   UNK N   1      25.779  14.863   4.120  0.00  0.00    -0.326 N 
HETATM    2  C   UNK N   1      24.977  14.467   3.098  0.00  0.00     0.240 C 
HETATM    3  O   UNK N   1      25.462  14.041   2.057  0.00  0.00    -0.271 OA
HETATM    4  H   UNK N   1      25.448  14.899   5.047  0.00  0.00     0.169 HD
ENDROOT
BRANCH   2   5
HETATM    5  C   UNK N   1      23.532  14.844   3.142  0.00  0.00     0.229 C 
BRANCH   5   6
HETATM    6  N   UNK N   1      23.033  15.032   4.485  0.00  0.00    -0.331 N 
HETATM    7  C   UNK N   1      22.377  16.311   4.767  0.00  0.00     0.138 C 
HETATM    8  C   UNK N   1      21.637  16.331   6.112  0.00  0.00     0.145 C 
HETATM    9  N   UNK N   1      22.373  15.591   7.132  0.00  0.00    -0.403 N 
HETATM   10  C   UNK N   1      22.424  14.171   6.770  0.00  0.00     0.107 C 
HETATM   11  H   UNK N   1      22.788  15.999   7.969  0.00  0.00     0.154 HD
HETATM   12  C   UNK N   1      23.046  14.004   5.396  0.00  0.00     0.248 C 
HETATM   13  C   UNK N   1      21.046  13.528   6.809  0.00  0.00     0.040 C 
HETATM   14  C   UNK N   1      23.180  13.399   7.840  0.00  0.00     0.040 C 
HETATM   15  O   UNK N   1      23.509  12.909   5.076  0.00  0.00    -0.270 OA
HETATM   16  C   UNK N   1      21.296  12.053   7.051  0.00  0.00     0.003 C 
HETATM   17  C   UNK N   1      22.615  11.980   7.808  0.00  0.00     0.003 C 
BRANCH   7  18
HETATM   18  C   UNK N   1      23.274  17.511   4.502  0.00  0.00    -0.028 A 
HETATM   19  C   UNK N   1      22.805  18.561   3.695  0.00  0.00     0.051 A 
HETATM   20  C   UNK N   1      23.582  19.687   3.446  0.00  0.00     0.119 A 
HETATM   21  C   UNK N   1      24.835  19.804   4.043  0.00  0.00     0.084 A 
HETATM   22  F   UNK N   1      23.115  20.660   2.627  0.00  0.00    -0.206 F 
HETATM   23  C   UNK N   1      25.309  18.784   4.876  0.00  0.00     0.119 A 
HETATM   24  C   UNK N   1      24.536  17.636   5.099  0.00  0.00     0.051 A 
HETATM   25  F   UNK N   1      26.512  18.914   5.477  0.00  0.00    -0.206 F 
ENDBRANCH   7  18
ENDBRANCH   5   6
ENDBRANCH   2   5
BRANCH   1  26
HETATM   26  C   UNK N   1      27.096  15.220   3.802  0.00  0.00     0.035 A 
HETATM   27  C   UNK N   1      27.367  16.411   3.084  0.00  0.00     0.030 A 
HETATM   28  C   UNK N   1      28.579  17.092   3.297  0.00  0.00     0.010 A 
HETATM   29  C   UNK N   1      29.462  16.586   4.257  0.00  0.00    -0.050 A 
HETATM   30  C   UNK N   1      30.639  17.266   4.837  0.00  0.00     0.064 C 
HETATM   31  C   UNK N   1      29.206  15.408   4.898  0.00  0.00    -0.048 A 
HETATM   32  C   UNK N   1      30.739  16.505   6.187  0.00  0.00     0.080 A 
HETATM   33  C   UNK N   1      32.121  16.486   6.803  0.00  0.00     0.237 A 
HETATM   34  C   UNK N   1      30.009  17.199   7.325  0.00  0.00     0.005 A 
HETATM   35  C   UNK N   1      30.170  15.105   5.959  0.00  0.00     0.064 C 
HETATM   36  N   UNK N   1      32.174  17.041   8.032  0.00  0.00    -0.312 N 
HETATM   37  O   UNK N   1      33.100  15.994   6.265  0.00  0.00    -0.272 OA
HETATM   38  C   UNK N   1      30.885  17.468   8.339  0.00  0.00     0.115 A 
HETATM   39  H   UNK N   1      32.972  17.128   8.601  0.00  0.00     0.170 HD
HETATM   40  N   UNK N   1      30.504  18.060   9.500  0.00  0.00    -0.352 N 
HETATM   41  C   UNK N   1      29.194  18.409   9.672  0.00  0.00     0.089 A 
ATOM     42  HN  UNK N   1      31.187  18.241  10.236  1.00  0.00     0.166 HD
HETATM   43  C   UNK N   1      28.249  18.154   8.656  0.00  0.00     0.018 A 
HETATM   44  C   UNK N   1      28.660  17.537   7.462  0.00  0.00     0.013 A 
HETATM   45  C   UNK N   1      28.037  14.724   4.696  0.00  0.00     0.037 A 
ENDBRANCH   1  26
TORSDOF 4
ENDMDL
MODEL 6
REMARK VINA RESULT:      -8.6     17.983     21.563
REMARK  4 active torsions:
REMARK  status: ('A' for Active; 'I' for Inactive)
REMARK    1  A    between atoms: C_16  and  N_20 
REMARK       I    between atoms: N_20  and  C_21 
REMARK    2  A    between atoms: C_21  and  C_23 
REMARK    3  A    between atoms: C_23  and  N_24 
REMARK    4  A    between atoms: C_25  and  C_35 
ROOT
HETATM    1  N   UNK N   1      30.004  21.795  -3.255  0.00  0.00    -0.326 N 
HETATM    2  C   UNK N   1      31.245  21.311  -2.986  0.00  0.00     0.240 C 
HETATM    3  O   UNK N   1      31.980  21.891  -2.196  0.00  0.00    -0.271 OA
HETATM    4  H   UNK N   1      29.294  21.213  -3.611  0.00  0.00     0.169 HD
ENDROOT
BRANCH   2   5
HETATM    5  C   UNK N   1      31.808  20.260  -3.886  0.00  0.00     0.229 C 
BRANCH   5   6
HETATM    6  N   UNK N   1      32.741  20.782  -4.857  0.00  0.00    -0.331 N 
HETATM    7  C   UNK N   1      32.188  21.662  -5.890  0.00  0.00     0.138 C 
HETATM    8  C   UNK N   1      33.262  22.391  -6.708  0.00  0.00     0.145 C 
HETATM    9  N   UNK N   1      34.414  21.529  -6.954  0.00  0.00    -0.403 N 
HETATM   10  C   UNK N   1      35.078  21.218  -5.683  0.00  0.00     0.107 C 
HETATM   11  H   UNK N   1      34.713  21.195  -7.870  0.00  0.00     0.154 HD
HETATM   12  C   UNK N   1      34.093  20.578  -4.723  0.00  0.00     0.248 C 
HETATM   13  C   UNK N   1      35.703  22.454  -5.055  0.00  0.00     0.040 C 
HETATM   14  C   UNK N   1      36.285  20.332  -5.942  0.00  0.00     0.040 C 
HETATM   15  O   UNK N   1      34.521  19.922  -3.773  0.00  0.00    -0.270 OA
HETATM   16  C   UNK N   1      36.825  21.936  -4.178  0.00  0.00     0.003 C 
HETATM   17  C   UNK N   1      37.269  20.625  -4.812  0.00  0.00     0.003 C 
BRANCH   7  18
HETATM   18  C   UNK N   1      31.087  21.002  -6.706  0.00  0.00    -0.028 A 
HETATM   19  C   UNK N   1      31.358  19.812  -7.402  0.00  0.00     0.051 A 
HETATM   20  C   UNK N   1      30.375  19.163  -8.140  0.00  0.00     0.119 A 
HETATM   21  C   UNK N   1      29.079  19.672  -8.158  0.00  0.00     0.084 A 
HETATM   22  F   UNK N   1      30.684  18.042  -8.836  0.00  0.00    -0.206 F 
HETATM   23  C   UNK N   1      28.778  20.838  -7.445  0.00  0.00     0.119 A 
HETATM   24  C   UNK N   1      29.779  21.508  -6.728  0.00  0.00     0.051 A 
HETATM   25  F   UNK N   1      27.512  21.313  -7.439  0.00  0.00    -0.206 F 
ENDBRANCH   7  18
ENDBRANCH   5   6
ENDBRANCH   2   5
BRANCH   1  26
HETATM   26  C   UNK N   1      29.776  23.155  -3.006  0.00  0.00     0.035 A 
HETATM   27  C   UNK N   1      30.757  24.122  -3.333  0.00  0.00     0.030 A 
HETATM   28  C   UNK N   1      30.361  25.424  -3.689  0.00  0.00     0.010 A 
HETATM   29  C   UNK N   1      28.992  25.703  -3.752  0.00  0.00    -0.050 A 
HETATM   30  C   UNK N   1      28.349  26.889  -4.356  0.00  0.00     0.064 C 
HETATM   31  C   UNK N   1      28.065  24.772  -3.381  0.00  0.00    -0.048 A 
HETATM   32  C   UNK N   1      26.949  26.293  -4.669  0.00  0.00     0.080 A 
HETATM   33  C   UNK N   1      25.829  27.308  -4.746  0.00  0.00     0.237 A 
HETATM   34  C   UNK N   1      26.831  25.740  -6.080  0.00  0.00     0.005 A 
HETATM   35  C   UNK N   1      26.685  25.194  -3.639  0.00  0.00     0.064 C 
HETATM   36  N   UNK N   1      25.199  27.330  -5.938  0.00  0.00    -0.312 N 
HETATM   37  O   UNK N   1      25.498  28.028  -3.817  0.00  0.00    -0.272 OA
HETATM   38  C   UNK N   1      25.814  26.372  -6.739  0.00  0.00     0.115 A 
HETATM   39  H   UNK N   1      24.449  27.914  -6.194  0.00  0.00     0.170 HD
HETATM   40  N   UNK N   1      25.460  26.061  -8.012  0.00  0.00    -0.352 N 
HETATM   41  C   UNK N   1      26.144  25.079  -8.674  0.00  0.00     0.089 A 
ATOM     42  HN  UNK N   1      24.693  26.553  -8.470  1.00  0.00     0.166 HD
HETATM   43  C   UNK N   1      27.202  24.396  -8.038  0.00  0.00     0.018 A 
HETATM   44  C   UNK N   1      27.553  24.729  -6.719  0.00  0.00     0.013 A 
HETATM   45  C   UNK N   1      28.431  23.503  -3.020  0.00  0.00     0.037 A 
ENDBRANCH   1  26
TORSDOF 4
ENDMDL
MODEL 7
REMARK VINA RESULT:      -8.6      8.494     12.410
REMARK  4 active torsions:
REMARK  status: ('A' for Active; 'I' for Inactive)
REMARK    1  A    between atoms: C_16  and  N_20 
REMARK       I    between atoms: N_20  and  C_21 
REMARK    2  A    between atoms: C_21  and  C_23 
REMARK    3  A    between atoms: C_23  and  N_24 
REMARK    4  A    between atoms: C_25  and  C_35 
ROOT
HETATM    1  N   UNK N   1      28.437  13.798   3.380  0.00  0.00    -0.326 N 
HETATM    2  C   UNK N   1      27.504  14.078   4.327  0.00  0.00     0.240 C 
HETATM    3  O   UNK N   1      27.559  15.125   4.963  0.00  0.00    -0.271 OA
HETATM    4  H   UNK N   1      28.253  13.157   2.654  0.00  0.00     0.169 HD
ENDROOT
BRANCH   2   5
HETATM    5  C   UNK N   1      26.611  12.975   4.793  0.00  0.00     0.229 C 
BRANCH   5   6
HETATM    6  N   UNK N   1      25.233  13.153   4.397  0.00  0.00    -0.331 N 
HETATM    7  C   UNK N   1      24.362  13.847   5.348  0.00  0.00     0.138 C 
HETATM    8  C   UNK N   1      23.003  14.241   4.754  0.00  0.00     0.145 C 
HETATM    9  N   UNK N   1      22.503  13.211   3.849  0.00  0.00    -0.403 N 
HETATM   10  C   UNK N   1      23.389  13.106   2.685  0.00  0.00     0.107 C 
HETATM   11  H   UNK N   1      21.666  12.650   4.003  0.00  0.00     0.154 HD
HETATM   12  C   UNK N   1      24.810  12.818   3.133  0.00  0.00     0.248 C 
HETATM   13  C   UNK N   1      23.348  14.363   1.829  0.00  0.00     0.040 C 
HETATM   14  C   UNK N   1      22.860  12.042   1.736  0.00  0.00     0.040 C 
HETATM   15  O   UNK N   1      25.608  12.338   2.328  0.00  0.00    -0.270 OA
HETATM   16  C   UNK N   1      23.746  13.914   0.436  0.00  0.00     0.003 C 
HETATM   17  C   UNK N   1      23.333  12.452   0.344  0.00  0.00     0.003 C 
BRANCH   7  18
HETATM   18  C   UNK N   1      24.304  13.166   6.707  0.00  0.00    -0.028 A 
HETATM   19  C   UNK N   1      23.800  11.858   6.806  0.00  0.00     0.051 A 
HETATM   20  C   UNK N   1      23.751  11.189   8.023  0.00  0.00     0.119 A 
HETATM   21  C   UNK N   1      24.253  11.805   9.168  0.00  0.00     0.084 A 
HETATM   22  F   UNK N   1      23.217   9.945   8.089  0.00  0.00    -0.206 F 
HETATM   23  C   UNK N   1      24.789  13.095   9.087  0.00  0.00     0.119 A 
HETATM   24  C   UNK N   1      24.807  13.779   7.863  0.00  0.00     0.051 A 
HETATM   25  F   UNK N   1      25.303  13.679  10.193  0.00  0.00    -0.206 F 
ENDBRANCH   7  18
ENDBRANCH   5   6
ENDBRANCH   2   5
BRANCH   1  26
HETATM   26  C   UNK N   1      29.670  14.456   3.477  0.00  0.00     0.035 A 
HETATM   27  C   UNK N   1      29.906  15.655   2.762  0.00  0.00     0.030 A 
HETATM   28  C   UNK N   1      30.788  16.617   3.286  0.00  0.00     0.010 A 
HETATM   29  C   UNK N   1      31.370  16.369   4.533  0.00  0.00    -0.050 A 
HETATM   30  C   UNK N   1      32.093  17.332   5.390  0.00  0.00     0.064 C 
HETATM   31  C   UNK N   1      31.172  15.183   5.181  0.00  0.00    -0.048 A 
HETATM   32  C   UNK N   1      31.883  16.659   6.773  0.00  0.00     0.080 A 
HETATM   33  C   UNK N   1      32.933  16.994   7.810  0.00  0.00     0.237 A 
HETATM   34  C   UNK N   1      30.669  17.187   7.522  0.00  0.00     0.005 A 
HETATM   35  C   UNK N   1      31.749  15.155   6.527  0.00  0.00     0.064 C 
HETATM   36  N   UNK N   1      32.432  17.581   8.917  0.00  0.00    -0.312 N 
HETATM   37  O   UNK N   1      34.120  16.741   7.683  0.00  0.00    -0.272 OA
HETATM   38  C   UNK N   1      31.057  17.690   8.732  0.00  0.00     0.115 A 
HETATM   39  H   UNK N   1      32.943  17.877   9.704  0.00  0.00     0.170 HD
HETATM   40  N   UNK N   1      30.177  18.205   9.628  0.00  0.00    -0.352 N 
HETATM   41  C   UNK N   1      28.846  18.229   9.318  0.00  0.00     0.089 A 
ATOM     42  HN  UNK N   1      30.505  18.568  10.523  1.00  0.00     0.166 HD
HETATM   43  C   UNK N   1      28.393  17.722   8.082  0.00  0.00     0.018 A 
HETATM   44  C   UNK N   1      29.318  17.190   7.167  0.00  0.00     0.013 A 
HETATM   45  C   UNK N   1      30.326  14.230   4.682  0.00  0.00     0.037 A 
ENDBRANCH   1  26
TORSDOF 4
ENDMDL
MODEL 8
REMARK VINA RESULT:      -8.5     11.172     15.565
REMARK  4 active torsions:
REMARK  status: ('A' for Active; 'I' for Inactive)
REMARK    1  A    between atoms: C_16  and  N_20 
REMARK       I    between atoms: N_20  and  C_21 
REMARK    2  A    between atoms: C_21  and  C_23 
REMARK    3  A    between atoms: C_23  and  N_24 
REMARK    4  A    between atoms: C_25  and  C_35 
ROOT
HETATM    1  N   UNK N   1      23.148  13.372   5.502  0.00  0.00    -0.326 N 
HETATM    2  C   UNK N   1      24.460  13.723   5.468  0.00  0.00     0.240 C 
HETATM    3  O   UNK N   1      24.832  14.785   5.954  0.00  0.00    -0.271 OA
HETATM    4  H   UNK N   1      22.868  12.431   5.424  0.00  0.00     0.169 HD
ENDROOT
BRANCH   2   5
HETATM    5  C   UNK N   1      25.377  12.958   4.570  0.00  0.00     0.229 C 
BRANCH   5   6
HETATM    6  N   UNK N   1      26.160  13.806   3.701  0.00  0.00    -0.331 N 
HETATM    7  C   UNK N   1      25.425  14.551   2.676  0.00  0.00     0.138 C 
HETATM    8  C   UNK N   1      26.271  15.626   1.982  0.00  0.00     0.145 C 
HETATM    9  N   UNK N   1      27.643  15.172   1.780  0.00  0.00    -0.403 N 
HETATM   10  C   UNK N   1      28.296  14.983   3.080  0.00  0.00     0.107 C 
HETATM   11  H   UNK N   1      28.081  15.010   0.874  0.00  0.00     0.154 HD
HETATM   12  C   UNK N   1      27.500  14.009   3.928  0.00  0.00     0.248 C 
HETATM   13  C   UNK N   1      28.477  16.302   3.817  0.00  0.00     0.040 C 
HETATM   14  C   UNK N   1      29.729  14.522   2.868  0.00  0.00     0.040 C 
HETATM   15  O   UNK N   1      28.053  13.445   4.873  0.00  0.00    -0.270 OA
HETATM   16  C   UNK N   1      29.652  16.083   4.750  0.00  0.00     0.003 C 
HETATM   17  C   UNK N   1      30.510  15.016   4.084  0.00  0.00     0.003 C 
BRANCH   7  18
HETATM   18  C   UNK N   1      24.626  13.651   1.745  0.00  0.00    -0.028 A 
HETATM   19  C   UNK N   1      25.165  12.419   1.341  0.00  0.00     0.051 A 
HETATM   20  C   UNK N   1      24.460  11.555   0.512  0.00  0.00     0.119 A 
HETATM   21  C   UNK N   1      23.171  11.891   0.104  0.00  0.00     0.084 A 
HETATM   22  F   UNK N   1      25.030  10.394   0.105  0.00  0.00    -0.206 F 
HETATM   23  C   UNK N   1      22.602  13.100   0.520  0.00  0.00     0.119 A 
HETATM   24  C   UNK N   1      23.328  13.983   1.331  0.00  0.00     0.051 A 
HETATM   25  F   UNK N   1      21.340  13.410   0.148  0.00  0.00    -0.206 F 
ENDBRANCH   7  18
ENDBRANCH   5   6
ENDBRANCH   2   5
BRANCH   1  26
HETATM   26  C   UNK N   1      22.210  14.402   5.652  0.00  0.00     0.035 A 
HETATM   27  C   UNK N   1      22.062  15.067   6.893  0.00  0.00     0.030 A 
HETATM   28  C   UNK N   1      21.655  16.413   6.919  0.00  0.00     0.010 A 
HETATM   29  C   UNK N   1      21.457  17.066   5.698  0.00  0.00    -0.050 A 
HETATM   30  C   UNK N   1      21.302  18.519   5.476  0.00  0.00     0.064 C 
HETATM   31  C   UNK N   1      21.553  16.393   4.514  0.00  0.00    -0.048 A 
HETATM   32  C   UNK N   1      21.768  18.607   3.997  0.00  0.00     0.080 A 
HETATM   33  C   UNK N   1      21.217  19.786   3.226  0.00  0.00     0.237 A 
HETATM   34  C   UNK N   1      23.247  18.929   3.849  0.00  0.00     0.005 A 
HETATM   35  C   UNK N   1      21.444  17.264   3.341  0.00  0.00     0.064 C 
HETATM   36  N   UNK N   1      22.170  20.605   2.736  0.00  0.00    -0.312 N 
HETATM   37  O   UNK N   1      20.027  19.979   3.035  0.00  0.00    -0.272 OA
HETATM   38  C   UNK N   1      23.398  20.074   3.118  0.00  0.00     0.115 A 
HETATM   39  H   UNK N   1      22.024  21.424   2.209  0.00  0.00     0.170 HD
HETATM   40  N   UNK N   1      24.614  20.586   2.802  0.00  0.00    -0.352 N 
HETATM   41  C   UNK N   1      25.742  19.943   3.231  0.00  0.00     0.089 A 
ATOM     42  HN  UNK N   1      24.687  21.441   2.251  1.00  0.00     0.166 HD
HETATM   43  C   UNK N   1      25.641  18.758   3.990  0.00  0.00     0.018 A 
HETATM   44  C   UNK N   1      24.373  18.239   4.305  0.00  0.00     0.013 A 
HETATM   45  C   UNK N   1      21.936  15.078   4.469  0.00  0.00     0.037 A 
ENDBRANCH   1  26
TORSDOF 4
ENDMDL
MODEL 9
REMARK VINA RESULT:      -8.5      3.575      8.372
REMARK  4 active torsions:
REMARK  status: ('A' for Active; 'I' for Inactive)
REMARK    1  A    between atoms: C_16  and  N_20 
REMARK       I    between atoms: N_20  and  C_21 
REMARK    2  A    between atoms: C_21  and  C_23 
REMARK    3  A    between atoms: C_23  and  N_24 
REMARK    4  A    between atoms: C_25  and  C_35 
ROOT
HETATM    1  N   UNK N   1      34.601  15.539   9.627  0.00  0.00    -0.326 N 
HETATM    2  C   UNK N   1      34.350  15.152  10.904  0.00  0.00     0.240 C 
HETATM    3  O   UNK N   1      33.197  15.013  11.295  0.00  0.00    -0.271 OA
HETATM    4  H   UNK N   1      35.468  15.353   9.196  0.00  0.00     0.169 HD
ENDROOT
BRANCH   2   5
HETATM    5  C   UNK N   1      35.467  15.201  11.894  0.00  0.00     0.229 C 
BRANCH   5   6
HETATM    6  N   UNK N   1      36.282  14.009  11.893  0.00  0.00    -0.331 N 
HETATM    7  C   UNK N   1      35.967  12.999  12.906  0.00  0.00     0.138 C 
HETATM    8  C   UNK N   1      36.679  11.660  12.672  0.00  0.00     0.145 C 
HETATM    9  N   UNK N   1      38.034  11.862  12.168  0.00  0.00    -0.403 N 
HETATM   10  C   UNK N   1      37.978  12.478  10.838  0.00  0.00     0.107 C 
HETATM   11  H   UNK N   1      38.889  11.613  12.665  0.00  0.00     0.154 HD
HETATM   12  C   UNK N   1      37.201  13.780  10.898  0.00  0.00     0.248 C 
HETATM   13  C   UNK N   1      37.366  11.542   9.807  0.00  0.00     0.040 C 
HETATM   14  C   UNK N   1      39.390  12.676  10.309  0.00  0.00     0.040 C 
HETATM   15  O   UNK N   1      37.353  14.610  10.002  0.00  0.00    -0.270 OA
HETATM   16  C   UNK N   1      37.927  11.991   8.473  0.00  0.00     0.003 C 
HETATM   17  C   UNK N   1      39.276  12.623   8.788  0.00  0.00     0.003 C 
BRANCH   7  18
HETATM   18  C   UNK N   1      36.047  13.537  14.327  0.00  0.00    -0.028 A 
HETATM   19  C   UNK N   1      35.286  12.932  15.341  0.00  0.00     0.051 A 
HETATM   20  C   UNK N   1      35.347  13.376  16.657  0.00  0.00     0.119 A 
HETATM   21  C   UNK N   1      36.213  14.413  16.994  0.00  0.00     0.084 A 
HETATM   22  F   UNK N   1      34.565  12.798  17.600  0.00  0.00    -0.206 F 
HETATM   23  C   UNK N   1      37.005  15.009  16.005  0.00  0.00     0.119 A 
HETATM   24  C   UNK N   1      36.917  14.580  14.674  0.00  0.00     0.051 A 
HETATM   25  F   UNK N   1      37.867  15.995  16.340  0.00  0.00    -0.206 F 
ENDBRANCH   7  18
ENDBRANCH   5   6
ENDBRANCH   2   5
BRANCH   1  26
HETATM   26  C   UNK N   1      33.579  16.215   8.946  0.00  0.00     0.035 A 
HETATM   27  C   UNK N   1      33.791  17.521   8.440  0.00  0.00     0.030 A 
HETATM   28  C   UNK N   1      33.102  17.942   7.289  0.00  0.00     0.010 A 
HETATM   29  C   UNK N   1      32.259  17.026   6.652  0.00  0.00    -0.050 A 
HETATM   30  C   UNK N   1      31.661  17.147   5.305  0.00  0.00     0.064 C 
HETATM   31  C   UNK N   1      32.027  15.791   7.186  0.00  0.00    -0.048 A 
HETATM   32  C   UNK N   1      31.437  15.644   4.984  0.00  0.00     0.080 A 
HETATM   33  C   UNK N   1      30.336  15.365   3.985  0.00  0.00     0.237 A 
HETATM   34  C   UNK N   1      32.587  15.015   4.214  0.00  0.00     0.005 A 
HETATM   35  C   UNK N   1      31.227  14.924   6.317  0.00  0.00     0.064 C 
HETATM   36  N   UNK N   1      30.759  14.712   2.883  0.00  0.00    -0.312 N 
HETATM   37  O   UNK N   1      29.167  15.672   4.156  0.00  0.00    -0.272 OA
HETATM   38  C   UNK N   1      32.126  14.502   3.035  0.00  0.00     0.115 A 
HETATM   39  H   UNK N   1      30.205  14.437   2.116  0.00  0.00     0.170 HD
HETATM   40  N   UNK N   1      32.929  13.853   2.154  0.00  0.00    -0.352 N 
HETATM   41  C   UNK N   1      34.256  13.703   2.446  0.00  0.00     0.089 A 
ATOM     42  HN  UNK N   1      32.548  13.481   1.284  1.00  0.00     0.166 HD
HETATM   43  C   UNK N   1      34.783  14.214   3.651  0.00  0.00     0.018 A 
HETATM   44  C   UNK N   1      33.936  14.881   4.553  0.00  0.00     0.013 A 
HETATM   45  C   UNK N   1      32.680  15.366   8.313  0.00  0.00     0.037 A 
ENDBRANCH   1  26
TORSDOF 4
ENDMDL
