MODEL 1
REMARK VINA RESULT:      -8.6      0.000      0.000
REMARK  5 active torsions:
REMARK  status: ('A' for Active; 'I' for Inactive)
REMARK    1  A    between atoms: C_2  and  S_3 
REMARK    2  A    between atoms: S_3  and  C_6 
REMARK    3  A    between atoms: C_10  and  C_12 
REMARK    4  A    between atoms: C_14  and  C_28 
REMARK       I    between atoms: C_28  and  N_30 
REMARK    5  A    between atoms: N_30  and  C_31 
ROOT
HETATM    1  C   UNK N   1      24.736  16.769   5.221  0.00  0.00    -0.011 A 
HETATM    2  C   UNK N   1      25.998  16.543   5.804  0.00  0.00     0.030 A 
HETATM    3  C   UNK N   1      27.066  17.451   5.702  0.00  0.00     0.041 A 
HETATM    4  C   UNK N   1      26.884  18.646   4.956  0.00  0.00    -0.019 A 
HETATM    5  C   UNK N   1      25.632  18.878   4.387  0.00  0.00     0.052 A 
HETATM    6  C   UNK N   1      24.571  17.986   4.515  0.00  0.00     0.016 A 
HETATM    7  C   UNK N   1      23.502  18.610   3.891  0.00  0.00     0.022 A 
HETATM    8  C   UNK N   1      22.162  18.278   3.726  0.00  0.00     0.024 A 
HETATM    9  C   UNK N   1      21.327  19.195   3.074  0.00  0.00    -0.046 A 
HETATM   10  C   UNK N   1      21.857  20.415   2.604  0.00  0.00     0.096 A 
HETATM   11  N   UNK N   1      23.180  20.708   2.782  0.00  0.00    -0.351 N 
ATOM     12  HN  UNK N   1      23.566  21.588   2.442  1.00  0.00     0.166 HD
HETATM   13  C   UNK N   1      23.971  19.812   3.418  0.00  0.00     0.117 A 
HETATM   14  N   UNK N   1      25.274  19.989   3.705  0.00  0.00    -0.341 N 
HETATM   15  C   UNK N   1      19.884  18.890   2.898  0.00  0.00     0.049 C 
HETATM   16  C   UNK N   1      27.957  19.675   4.790  0.00  0.00     0.052 C 
HETATM   17  H   UNK N   1      25.842  20.758   3.471  0.00  0.00     0.167 HD
ENDROOT
BRANCH   1  18
HETATM   18  C   UNK N   1      23.688  15.731   5.457  0.00  0.00    -0.024 A 
HETATM   19  C   UNK N   1      23.544  14.586   4.665  0.00  0.00     0.012 A 
HETATM   20  C   UNK N   1      22.521  13.664   4.915  0.00  0.00     0.002 A 
HETATM   21  C   UNK N   1      21.619  13.888   5.959  0.00  0.00     0.023 A 
HETATM   22  C   UNK N   1      21.758  15.022   6.762  0.00  0.00     0.060 A 
HETATM   23  C   UNK N   1      22.785  15.926   6.512  0.00  0.00     0.035 A 
BRANCH  22  24
HETATM   24  S   UNK N   1      20.608  15.372   8.083  0.00  0.00     0.175 S 
HETATM   25  O   UNK N   1      19.236  15.513   7.403  0.00  0.00    -0.223 OA
HETATM   26  O   UNK N   1      20.810  16.826   8.534  0.00  0.00    -0.223 OA
BRANCH  24  27
HETATM   27  C   UNK N   1      20.397  14.316   9.550  0.00  0.00     0.141 C 
HETATM   28  C   UNK N   1      21.670  13.549   9.849  0.00  0.00     0.021 C 
ENDBRANCH  24  27
ENDBRANCH  22  24
ENDBRANCH   1  18
BRANCH   3  29
HETATM   29  C   UNK N   1      28.319  17.114   6.430  0.00  0.00     0.252 C 
HETATM   30  O   UNK N   1      28.455  17.497   7.581  0.00  0.00    -0.268 OA
HETATM   31  N   UNK N   1      29.305  16.417   5.805  0.00  0.00    -0.352 N 
HETATM   32  H   UNK N   1      29.124  16.177   4.867  0.00  0.00     0.163 HD
BRANCH  31  33
HETATM   33  C   UNK N   1      30.592  15.976   6.325  0.00  0.00     0.088 C 
HETATM   34  C   UNK N   1      31.613  17.066   6.066  0.00  0.00     0.055 C 
HETATM   35  C   UNK N   1      31.885  17.137   4.562  0.00  0.00     0.274 C 
HETATM   36  N   UNK N   1      32.450  15.882   4.052  0.00  0.00     0.084 N 
HETATM   37  C   UNK N   1      31.607  14.715   4.347  0.00  0.00     0.274 C 
HETATM   38  C   UNK N   1      33.792  15.684   4.579  0.00  0.00     0.309 C 
HETATM   39  C   UNK N   1      31.139  14.637   5.811  0.00  0.00     0.055 C 
ENDBRANCH  31  33
ENDBRANCH   3  29
TORSDOF 5
ENDMDL
MODEL 2
REMARK VINA RESULT:      -8.2      1.176      1.454
REMARK  5 active torsions:
REMARK  status: ('A' for Active; 'I' for Inactive)
REMARK    1  A    between atoms: C_2  and  S_3 
REMARK    2  A    between atoms: S_3  and  C_6 
REMARK    3  A    between atoms: C_10  and  C_12 
REMARK    4  A    between atoms: C_14  and  C_28 
REMARK       I    between atoms: C_28  and  N_30 
REMARK    5  A    between atoms: N_30  and  C_31 
ROOT
HETATM    1  C   UNK N   1      24.991  16.739   4.881  0.00  0.00    -0.011 A 
HETATM    2  C   UNK N   1      26.320  16.694   5.344  0.00  0.00     0.030 A 
HETATM    3  C   UNK N   1      27.210  17.778   5.238  0.00  0.00     0.041 A 
HETATM    4  C   UNK N   1      26.765  18.972   4.611  0.00  0.00    -0.019 A 
HETATM    5  C   UNK N   1      25.447  19.024   4.160  0.00  0.00     0.052 A 
HETATM    6  C   UNK N   1      24.564  17.956   4.293  0.00  0.00     0.016 A 
HETATM    7  C   UNK N   1      23.355  18.428   3.806  0.00  0.00     0.022 A 
HETATM    8  C   UNK N   1      22.080  17.882   3.717  0.00  0.00     0.024 A 
HETATM    9  C   UNK N   1      21.049  18.684   3.209  0.00  0.00    -0.046 A 
HETATM   10  C   UNK N   1      21.325  20.007   2.804  0.00  0.00     0.096 A 
HETATM   11  N   UNK N   1      22.592  20.510   2.905  0.00  0.00    -0.351 N 
ATOM     12  HN  UNK N   1      22.794  21.466   2.611  1.00  0.00     0.166 HD
HETATM   13  C   UNK N   1      23.574  19.722   3.401  0.00  0.00     0.117 A 
HETATM   14  N   UNK N   1      24.850  20.101   3.603  0.00  0.00    -0.341 N 
HETATM   15  C   UNK N   1      19.667  18.147   3.119  0.00  0.00     0.049 C 
HETATM   16  C   UNK N   1      27.634  20.180   4.450  0.00  0.00     0.052 C 
HETATM   17  H   UNK N   1      25.259  20.971   3.391  0.00  0.00     0.167 HD
ENDROOT
BRANCH   1  18
HETATM   18  C   UNK N   1      24.156  15.522   5.107  0.00  0.00    -0.024 A 
HETATM   19  C   UNK N   1      24.041  14.481   4.180  0.00  0.00     0.012 A 
HETATM   20  C   UNK N   1      23.215  13.380   4.435  0.00  0.00     0.002 A 
HETATM   21  C   UNK N   1      22.483  13.316   5.624  0.00  0.00     0.023 A 
HETATM   22  C   UNK N   1      22.597  14.345   6.562  0.00  0.00     0.060 A 
HETATM   23  C   UNK N   1      23.429  15.428   6.304  0.00  0.00     0.035 A 
BRANCH  22  24
HETATM   24  S   UNK N   1      21.653  14.328   8.078  0.00  0.00     0.175 S 
HETATM   25  O   UNK N   1      22.633  13.853   9.164  0.00  0.00    -0.223 OA
HETATM   26  O   UNK N   1      20.708  13.119   8.051  0.00  0.00    -0.223 OA
BRANCH  24  27
HETATM   27  C   UNK N   1      20.756  15.771   8.730  0.00  0.00     0.141 C 
HETATM   28  C   UNK N   1      20.355  16.708   7.608  0.00  0.00     0.021 C 
ENDBRANCH  24  27
ENDBRANCH  22  24
ENDBRANCH   1  18
BRANCH   3  29
HETATM   29  C   UNK N   1      28.560  17.612   5.838  0.00  0.00     0.252 C 
HETATM   30  O   UNK N   1      28.697  17.770   7.040  0.00  0.00    -0.268 OA
HETATM   31  N   UNK N   1      29.628  17.320   5.047  0.00  0.00    -0.352 N 
HETATM   32  H   UNK N   1      29.431  17.243   4.085  0.00  0.00     0.163 HD
BRANCH  31  33
HETATM   33  C   UNK N   1      31.019  17.107   5.420  0.00  0.00     0.088 C 
HETATM   34  C   UNK N   1      31.900  17.638   4.307  0.00  0.00     0.055 C 
HETATM   35  C   UNK N   1      31.755  16.728   3.087  0.00  0.00     0.274 C 
HETATM   36  N   UNK N   1      32.198  15.358   3.376  0.00  0.00     0.084 N 
HETATM   37  C   UNK N   1      31.500  14.763   4.524  0.00  0.00     0.274 C 
HETATM   38  C   UNK N   1      33.637  15.329   3.588  0.00  0.00     0.309 C 
HETATM   39  C   UNK N   1      31.446  15.673   5.763  0.00  0.00     0.055 C 
ENDBRANCH  31  33
ENDBRANCH   3  29
TORSDOF 5
ENDMDL
MODEL 3
REMARK VINA RESULT:      -7.9      2.521      3.272
REMARK  5 active torsions:
REMARK  status: ('A' for Active; 'I' for Inactive)
REMARK    1  A    between atoms: C_2  and  S_3 
REMARK    2  A    between atoms: S_3  and  C_6 
REMARK    3  A    between atoms: C_10  and  C_12 
REMARK    4  A    between atoms: C_14  and  C_28 
REMARK       I    between atoms: C_28  and  N_30 
REMARK    5  A    between atoms: N_30  and  C_31 
ROOT
HETATM    1  C   UNK N   1      24.343  16.265   4.780  0.00  0.00    -0.011 A 
HETATM    2  C   UNK N   1      25.554  16.799   5.262  0.00  0.00     0.030 A 
HETATM    3  C   UNK N   1      26.779  16.662   4.587  0.00  0.00     0.041 A 
HETATM    4  C   UNK N   1      26.815  15.928   3.371  0.00  0.00    -0.019 A 
HETATM    5  C   UNK N   1      25.617  15.407   2.885  0.00  0.00     0.052 A 
HETATM    6  C   UNK N   1      24.403  15.570   3.546  0.00  0.00     0.016 A 
HETATM    7  C   UNK N   1      23.460  14.988   2.713  0.00  0.00     0.022 A 
HETATM    8  C   UNK N   1      22.076  14.872   2.766  0.00  0.00     0.024 A 
HETATM    9  C   UNK N   1      21.420  14.255   1.692  0.00  0.00    -0.046 A 
HETATM   10  C   UNK N   1      22.168  13.771   0.598  0.00  0.00     0.096 A 
HETATM   11  N   UNK N   1      23.529  13.902   0.581  0.00  0.00    -0.351 N 
ATOM     12  HN  UNK N   1      24.072  13.551  -0.209  1.00  0.00     0.166 HD
HETATM   13  C   UNK N   1      24.145  14.504   1.624  0.00  0.00     0.117 A 
HETATM   14  N   UNK N   1      25.466  14.743   1.717  0.00  0.00    -0.341 N 
HETATM   15  C   UNK N   1      19.940  14.131   1.699  0.00  0.00     0.049 C 
HETATM   16  C   UNK N   1      28.068  15.727   2.577  0.00  0.00     0.052 C 
HETATM   17  H   UNK N   1      26.169  14.492   1.075  0.00  0.00     0.167 HD
ENDROOT
BRANCH   1  18
HETATM   18  C   UNK N   1      23.117  16.534   5.589  0.00  0.00    -0.024 A 
HETATM   19  C   UNK N   1      22.465  17.772   5.613  0.00  0.00     0.012 A 
HETATM   20  C   UNK N   1      21.337  17.973   6.417  0.00  0.00     0.002 A 
HETATM   21  C   UNK N   1      20.856  16.934   7.219  0.00  0.00     0.023 A 
HETATM   22  C   UNK N   1      21.493  15.691   7.196  0.00  0.00     0.060 A 
HETATM   23  C   UNK N   1      22.605  15.498   6.385  0.00  0.00     0.035 A 
BRANCH  22  24
HETATM   24  S   UNK N   1      20.939  14.345   8.231  0.00  0.00     0.175 S 
HETATM   25  O   UNK N   1      20.452  13.257   7.259  0.00  0.00    -0.223 OA
HETATM   26  O   UNK N   1      19.595  14.734   8.861  0.00  0.00    -0.223 OA
BRANCH  24  27
HETATM   27  C   UNK N   1      21.978  13.541   9.491  0.00  0.00     0.141 C 
HETATM   28  C   UNK N   1      21.121  12.848  10.532  0.00  0.00     0.021 C 
ENDBRANCH  24  27
ENDBRANCH  22  24
ENDBRANCH   1  18
BRANCH   3  29
HETATM   29  C   UNK N   1      27.963  17.341   5.178  0.00  0.00     0.252 C 
HETATM   30  O   UNK N   1      27.946  18.556   5.304  0.00  0.00    -0.268 OA
HETATM   31  N   UNK N   1      29.056  16.618   5.539  0.00  0.00    -0.352 N 
HETATM   32  H   UNK N   1      28.995  15.649   5.372  0.00  0.00     0.163 HD
BRANCH  31  33
HETATM   33  C   UNK N   1      30.303  17.071   6.138  0.00  0.00     0.088 C 
HETATM   34  C   UNK N   1      31.294  17.355   5.027  0.00  0.00     0.055 C 
HETATM   35  C   UNK N   1      31.711  16.029   4.389  0.00  0.00     0.274 C 
HETATM   36  N   UNK N   1      32.381  15.149   5.354  0.00  0.00     0.084 N 
HETATM   37  C   UNK N   1      31.568  14.889   6.550  0.00  0.00     0.274 C 
HETATM   38  C   UNK N   1      33.671  15.706   5.731  0.00  0.00     0.309 C 
HETATM   39  C   UNK N   1      30.960  16.155   7.180  0.00  0.00     0.055 C 
ENDBRANCH  31  33
ENDBRANCH   3  29
TORSDOF 5
ENDMDL
MODEL 4
REMARK VINA RESULT:      -7.9      5.133      7.748
REMARK  5 active torsions:
REMARK  status: ('A' for Active; 'I' for Inactive)
REMARK    1  A    between atoms: C_2  and  S_3 
REMARK    2  A    between atoms: S_3  and  C_6 
REMARK    3  A    between atoms: C_10  and  C_12 
REMARK    4  A    between atoms: C_14  and  C_28 
REMARK       I    between atoms: C_28  and  N_30 
REMARK    5  A    between atoms: N_30  and  C_31 
ROOT
HETATM    1  C   UNK N   1      29.068  16.211   5.716  0.00  0.00    -0.011 A 
HETATM    2  C   UNK N   1      29.395  14.893   5.341  0.00  0.00     0.030 A 
HETATM    3  C   UNK N   1      28.717  14.190   4.330  0.00  0.00     0.041 A 
HETATM    4  C   UNK N   1      27.631  14.820   3.665  0.00  0.00    -0.019 A 
HETATM    5  C   UNK N   1      27.311  16.128   4.026  0.00  0.00     0.052 A 
HETATM    6  C   UNK N   1      28.005  16.827   5.010  0.00  0.00     0.016 A 
HETATM    7  C   UNK N   1      27.444  18.095   5.011  0.00  0.00     0.022 A 
HETATM    8  C   UNK N   1      27.723  19.265   5.707  0.00  0.00     0.024 A 
HETATM    9  C   UNK N   1      26.973  20.410   5.407  0.00  0.00    -0.046 A 
HETATM   10  C   UNK N   1      25.966  20.350   4.421  0.00  0.00     0.096 A 
HETATM   11  N   UNK N   1      25.718  19.181   3.757  0.00  0.00    -0.351 N 
ATOM     12  HN  UNK N   1      24.989  19.135   3.045  1.00  0.00     0.166 HD
HETATM   13  C   UNK N   1      26.455  18.087   4.057  0.00  0.00     0.117 A 
HETATM   14  N   UNK N   1      26.354  16.889   3.451  0.00  0.00    -0.341 N 
HETATM   15  C   UNK N   1      27.255  21.687   6.111  0.00  0.00     0.049 C 
HETATM   16  C   UNK N   1      26.848  14.157   2.576  0.00  0.00     0.052 C 
HETATM   17  H   UNK N   1      25.722  16.625   2.744  0.00  0.00     0.167 HD
ENDROOT
BRANCH   1  18
HETATM   18  C   UNK N   1      29.911  16.839   6.776  0.00  0.00    -0.024 A 
HETATM   19  C   UNK N   1      29.383  17.471   7.908  0.00  0.00     0.012 A 
HETATM   20  C   UNK N   1      30.224  18.073   8.852  0.00  0.00     0.002 A 
HETATM   21  C   UNK N   1      31.610  18.057   8.665  0.00  0.00     0.023 A 
HETATM   22  C   UNK N   1      32.148  17.421   7.544  0.00  0.00     0.060 A 
HETATM   23  C   UNK N   1      31.305  16.817   6.618  0.00  0.00     0.035 A 
BRANCH  22  24
HETATM   24  S   UNK N   1      33.908  17.408   7.240  0.00  0.00     0.175 S 
HETATM   25  O   UNK N   1      34.459  18.641   7.974  0.00  0.00    -0.223 OA
HETATM   26  O   UNK N   1      34.156  17.851   5.791  0.00  0.00    -0.223 OA
BRANCH  24  27
HETATM   27  C   UNK N   1      34.994  15.999   7.627  0.00  0.00     0.141 C 
HETATM   28  C   UNK N   1      34.349  15.089   8.654  0.00  0.00     0.021 C 
ENDBRANCH  24  27
ENDBRANCH  22  24
ENDBRANCH   1  18
BRANCH   3  29
HETATM   29  C   UNK N   1      29.219  12.832   3.990  0.00  0.00     0.252 C 
HETATM   30  O   UNK N   1      28.671  11.859   4.482  0.00  0.00    -0.268 OA
HETATM   31  N   UNK N   1      30.294  12.687   3.170  0.00  0.00    -0.352 N 
HETATM   32  H   UNK N   1      30.694  13.526   2.846  0.00  0.00     0.163 HD
BRANCH  31  33
HETATM   33  C   UNK N   1      30.938  11.467   2.703  0.00  0.00     0.088 C 
HETATM   34  C   UNK N   1      32.438  11.685   2.705  0.00  0.00     0.055 C 
HETATM   35  C   UNK N   1      32.793  12.677   1.596  0.00  0.00     0.274 C 
HETATM   36  N   UNK N   1      32.430  12.160   0.270  0.00  0.00     0.084 N 
HETATM   37  C   UNK N   1      31.012  11.792   0.169  0.00  0.00     0.274 C 
HETATM   38  C   UNK N   1      33.274  11.027  -0.076  0.00  0.00     0.309 C 
HETATM   39  C   UNK N   1      30.508  10.922   1.334  0.00  0.00     0.055 C 
ENDBRANCH  31  33
ENDBRANCH   3  29
TORSDOF 5
ENDMDL
MODEL 5
REMARK VINA RESULT:      -7.7      2.272      3.116
REMARK  5 active torsions:
REMARK  status: ('A' for Active; 'I' for Inactive)
REMARK    1  A    between atoms: C_2  and  S_3 
REMARK    2  A    between atoms: S_3  and  C_6 
REMARK    3  A    between atoms: C_10  and  C_12 
REMARK    4  A    between atoms: C_14  and  C_28 
REMARK       I    between atoms: C_28  and  N_30 
REMARK    5  A    between atoms: N_30  and  C_31 
ROOT
HETATM    1  C   UNK N   1      24.413  17.130   4.798  0.00  0.00    -0.011 A 
HETATM    2  C   UNK N   1      25.717  17.079   5.327  0.00  0.00     0.030 A 
HETATM    3  C   UNK N   1      26.632  18.142   5.223  0.00  0.00     0.041 A 
HETATM    4  C   UNK N   1      26.241  19.319   4.531  0.00  0.00    -0.019 A 
HETATM    5  C   UNK N   1      24.947  19.378   4.016  0.00  0.00     0.052 A 
HETATM    6  C   UNK N   1      24.039  18.331   4.145  0.00  0.00     0.016 A 
HETATM    7  C   UNK N   1      22.864  18.806   3.583  0.00  0.00     0.022 A 
HETATM    8  C   UNK N   1      21.583  18.280   3.452  0.00  0.00     0.024 A 
HETATM    9  C   UNK N   1      20.594  19.081   2.866  0.00  0.00    -0.046 A 
HETATM   10  C   UNK N   1      20.915  20.382   2.425  0.00  0.00     0.096 A 
HETATM   11  N   UNK N   1      22.186  20.866   2.569  0.00  0.00    -0.351 N 
ATOM     12  HN  UNK N   1      22.420  21.806   2.250  1.00  0.00     0.166 HD
HETATM   13  C   UNK N   1      23.127  20.080   3.141  0.00  0.00     0.117 A 
HETATM   14  N   UNK N   1      24.399  20.444   3.390  0.00  0.00    -0.341 N 
HETATM   15  C   UNK N   1      19.208  18.566   2.728  0.00  0.00     0.049 C 
HETATM   16  C   UNK N   1      27.141  20.505   4.368  0.00  0.00     0.052 C 
HETATM   17  H   UNK N   1      24.835  21.297   3.166  0.00  0.00     0.167 HD
ENDROOT
BRANCH   1  18
HETATM   18  C   UNK N   1      23.544  15.938   5.028  0.00  0.00    -0.024 A 
HETATM   19  C   UNK N   1      23.041  15.580   6.285  0.00  0.00     0.012 A 
HETATM   20  C   UNK N   1      22.258  14.431   6.444  0.00  0.00     0.002 A 
HETATM   21  C   UNK N   1      21.978  13.618   5.342  0.00  0.00     0.023 A 
HETATM   22  C   UNK N   1      22.466  13.970   4.082  0.00  0.00     0.060 A 
HETATM   23  C   UNK N   1      23.233  15.119   3.932  0.00  0.00     0.035 A 
BRANCH  22  24
HETATM   24  S   UNK N   1      22.168  12.943   2.651  0.00  0.00     0.175 S 
HETATM   25  O   UNK N   1      20.944  12.086   3.011  0.00  0.00    -0.223 OA
HETATM   26  O   UNK N   1      23.238  11.842   2.609  0.00  0.00    -0.223 OA
BRANCH  24  27
HETATM   27  C   UNK N   1      21.917  13.594   0.970  0.00  0.00     0.141 C 
HETATM   28  C   UNK N   1      21.030  14.824   0.996  0.00  0.00     0.021 C 
ENDBRANCH  24  27
ENDBRANCH  22  24
ENDBRANCH   1  18
BRANCH   3  29
HETATM   29  C   UNK N   1      27.948  17.975   5.894  0.00  0.00     0.252 C 
HETATM   30  O   UNK N   1      28.063  18.306   7.063  0.00  0.00    -0.268 OA
HETATM   31  N   UNK N   1      29.012  17.490   5.199  0.00  0.00    -0.352 N 
HETATM   32  H   UNK N   1      28.837  17.279   4.253  0.00  0.00     0.163 HD
BRANCH  31  33
HETATM   33  C   UNK N   1      30.372  17.238   5.654  0.00  0.00     0.088 C 
HETATM   34  C   UNK N   1      31.310  17.395   4.473  0.00  0.00     0.055 C 
HETATM   35  C   UNK N   1      31.079  16.234   3.504  0.00  0.00     0.274 C 
HETATM   36  N   UNK N   1      31.377  14.939   4.128  0.00  0.00     0.084 N 
HETATM   37  C   UNK N   1      30.615  14.711   5.363  0.00  0.00     0.274 C 
HETATM   38  C   UNK N   1      32.804  14.820   4.384  0.00  0.00     0.309 C 
HETATM   39  C   UNK N   1      30.648  15.895   6.345  0.00  0.00     0.055 C 
ENDBRANCH  31  33
ENDBRANCH   3  29
TORSDOF 5
ENDMDL
MODEL 6
REMARK VINA RESULT:      -7.5     17.342     20.997
REMARK  5 active torsions:
REMARK  status: ('A' for Active; 'I' for Inactive)
REMARK    1  A    between atoms: C_2  and  S_3 
REMARK    2  A    between atoms: S_3  and  C_6 
REMARK    3  A    between atoms: C_10  and  C_12 
REMARK    4  A    between atoms: C_14  and  C_28 
REMARK       I    between atoms: C_28  and  N_30 
REMARK    5  A    between atoms: N_30  and  C_31 
ROOT
HETATM    1  C   UNK N   1      36.443   9.699  20.249  0.00  0.00    -0.011 A 
HETATM    2  C   UNK N   1      37.810   9.894  20.527  0.00  0.00     0.030 A 
HETATM    3  C   UNK N   1      38.357   9.776  21.816  0.00  0.00     0.041 A 
HETATM    4  C   UNK N   1      37.495   9.472  22.904  0.00  0.00    -0.019 A 
HETATM    5  C   UNK N   1      36.143   9.268  22.631  0.00  0.00     0.052 A 
HETATM    6  C   UNK N   1      35.614   9.361  21.347  0.00  0.00     0.016 A 
HETATM    7  C   UNK N   1      34.278   9.014  21.485  0.00  0.00     0.022 A 
HETATM    8  C   UNK N   1      33.232   8.855  20.584  0.00  0.00     0.024 A 
HETATM    9  C   UNK N   1      31.992   8.427  21.076  0.00  0.00    -0.046 A 
HETATM   10  C   UNK N   1      31.835   8.173  22.455  0.00  0.00     0.096 A 
HETATM   11  N   UNK N   1      32.886   8.342  23.313  0.00  0.00    -0.351 N 
ATOM     12  HN  UNK N   1      32.774   8.160  24.310  1.00  0.00     0.166 HD
HETATM   13  C   UNK N   1      34.077   8.752  22.819  0.00  0.00     0.117 A 
HETATM   14  N   UNK N   1      35.205   8.910  23.536  0.00  0.00    -0.341 N 
HETATM   15  C   UNK N   1      30.854   8.222  20.144  0.00  0.00     0.049 C 
HETATM   16  C   UNK N   1      37.980   9.325  24.312  0.00  0.00     0.052 C 
HETATM   17  H   UNK N   1      35.322   8.792  24.506  0.00  0.00     0.167 HD
ENDROOT
BRANCH   1  18
HETATM   18  C   UNK N   1      36.022   9.814  18.821  0.00  0.00    -0.024 A 
HETATM   19  C   UNK N   1      35.812   8.710  17.987  0.00  0.00     0.012 A 
HETATM   20  C   UNK N   1      35.449   8.882  16.646  0.00  0.00     0.002 A 
HETATM   21  C   UNK N   1      35.305  10.170  16.121  0.00  0.00     0.023 A 
HETATM   22  C   UNK N   1      35.503  11.279  16.946  0.00  0.00     0.060 A 
HETATM   23  C   UNK N   1      35.851  11.097  18.279  0.00  0.00     0.035 A 
BRANCH  22  24
HETATM   24  S   UNK N   1      35.368  12.944  16.313  0.00  0.00     0.175 S 
HETATM   25  O   UNK N   1      35.013  13.816  17.528  0.00  0.00    -0.223 OA
HETATM   26  O   UNK N   1      34.052  13.063  15.530  0.00  0.00    -0.223 OA
BRANCH  24  27
HETATM   27  C   UNK N   1      36.690  13.788  15.389  0.00  0.00     0.141 C 
HETATM   28  C   UNK N   1      36.251  14.079  13.967  0.00  0.00     0.021 C 
ENDBRANCH  24  27
ENDBRANCH  22  24
ENDBRANCH   1  18
BRANCH   3  29
HETATM   29  C   UNK N   1      39.830   9.937  21.949  0.00  0.00     0.252 C 
HETATM   30  O   UNK N   1      40.560   9.035  21.569  0.00  0.00    -0.268 OA
HETATM   31  N   UNK N   1      40.346  11.060  22.516  0.00  0.00    -0.352 N 
HETATM   32  H   UNK N   1      39.684  11.720  22.823  0.00  0.00     0.163 HD
BRANCH  31  33
HETATM   33  C   UNK N   1      41.739  11.425  22.732  0.00  0.00     0.088 C 
HETATM   34  C   UNK N   1      41.957  11.623  24.219  0.00  0.00     0.055 C 
HETATM   35  C   UNK N   1      41.224  12.892  24.659  0.00  0.00     0.274 C 
HETATM   36  N   UNK N   1      41.746  14.084  23.980  0.00  0.00     0.084 N 
HETATM   37  C   UNK N   1      41.705  13.971  22.515  0.00  0.00     0.274 C 
HETATM   38  C   UNK N   1      43.102  14.365  24.428  0.00  0.00     0.309 C 
HETATM   39  C   UNK N   1      42.274  12.648  21.974  0.00  0.00     0.055 C 
ENDBRANCH  31  33
ENDBRANCH   3  29
TORSDOF 5
ENDMDL
MODEL 7
REMARK VINA RESULT:      -7.5      2.128      2.502
REMARK  5 active torsions:
REMARK  status: ('A' for Active; 'I' for Inactive)
REMARK    1  A    between atoms: C_2  and  S_3 
REMARK    2  A    between atoms: S_3  and  C_6 
REMARK    3  A    between atoms: C_10  and  C_12 
REMARK    4  A    between atoms: C_14  and  C_28 
REMARK       I    between atoms: C_28  and  N_30 
REMARK    5  A    between atoms: N_30  and  C_31 
ROOT
HETATM    1  C   UNK N   1      26.218  16.056   5.954  0.00  0.00    -0.011 A 
HETATM    2  C   UNK N   1      27.452  16.357   6.561  0.00  0.00     0.030 A 
HETATM    3  C   UNK N   1      28.016  17.645   6.561  0.00  0.00     0.041 A 
HETATM    4  C   UNK N   1      27.328  18.697   5.899  0.00  0.00    -0.019 A 
HETATM    5  C   UNK N   1      26.100  18.404   5.307  0.00  0.00     0.052 A 
HETATM    6  C   UNK N   1      25.536  17.132   5.333  0.00  0.00     0.016 A 
HETATM    7  C   UNK N   1      24.301  17.275   4.720  0.00  0.00     0.022 A 
HETATM    8  C   UNK N   1      23.241  16.406   4.487  0.00  0.00     0.024 A 
HETATM    9  C   UNK N   1      22.087  16.916   3.876  0.00  0.00    -0.046 A 
HETATM   10  C   UNK N   1      22.029  18.278   3.514  0.00  0.00     0.096 A 
HETATM   11  N   UNK N   1      23.092  19.103   3.758  0.00  0.00    -0.351 N 
ATOM     12  HN  UNK N   1      23.052  20.088   3.495  1.00  0.00     0.166 HD
HETATM   13  C   UNK N   1      24.196  18.594   4.352  0.00  0.00     0.117 A 
HETATM   14  N   UNK N   1      25.290  19.299   4.696  0.00  0.00    -0.341 N 
HETATM   15  C   UNK N   1      20.924  16.027   3.630  0.00  0.00     0.049 C 
HETATM   16  C   UNK N   1      27.842  20.101   5.844  0.00  0.00     0.052 C 
HETATM   17  H   UNK N   1      25.464  20.254   4.537  0.00  0.00     0.167 HD
ENDROOT
BRANCH   1  18
HETATM   18  C   UNK N   1      25.730  14.650   6.078  0.00  0.00    -0.024 A 
HETATM   19  C   UNK N   1      26.158  13.609   5.247  0.00  0.00     0.012 A 
HETATM   20  C   UNK N   1      25.639  12.316   5.390  0.00  0.00     0.002 A 
HETATM   21  C   UNK N   1      24.672  12.055   6.366  0.00  0.00     0.023 A 
HETATM   22  C   UNK N   1      24.245  13.085   7.208  0.00  0.00     0.060 A 
HETATM   23  C   UNK N   1      24.775  14.362   7.064  0.00  0.00     0.035 A 
BRANCH  22  24
HETATM   24  S   UNK N   1      22.985  12.811   8.443  0.00  0.00     0.175 S 
HETATM   25  O   UNK N   1      21.864  12.044   7.720  0.00  0.00    -0.223 OA
HETATM   26  O   UNK N   1      22.254  14.137   8.697  0.00  0.00    -0.223 OA
BRANCH  24  27
HETATM   27  C   UNK N   1      23.288  11.982  10.035  0.00  0.00     0.141 C 
HETATM   28  C   UNK N   1      24.670  12.316  10.560  0.00  0.00     0.021 C 
ENDBRANCH  24  27
ENDBRANCH  22  24
ENDBRANCH   1  18
BRANCH   3  29
HETATM   29  C   UNK N   1      29.291  17.831   7.305  0.00  0.00     0.252 C 
HETATM   30  O   UNK N   1      29.282  18.477   8.340  0.00  0.00    -0.268 OA
HETATM   31  N   UNK N   1      30.449  17.314   6.814  0.00  0.00    -0.352 N 
HETATM   32  H   UNK N   1      30.368  16.836   5.957  0.00  0.00     0.163 HD
BRANCH  31  33
HETATM   33  C   UNK N   1      31.791  17.366   7.375  0.00  0.00     0.088 C 
HETATM   34  C   UNK N   1      32.789  17.353   6.235  0.00  0.00     0.055 C 
HETATM   35  C   UNK N   1      32.771  15.970   5.582  0.00  0.00     0.274 C 
HETATM   36  N   UNK N   1      33.174  14.919   6.524  0.00  0.00     0.084 N 
HETATM   37  C   UNK N   1      32.355  14.901   7.744  0.00  0.00     0.274 C 
HETATM   38  C   UNK N   1      34.583  15.060   6.862  0.00  0.00     0.309 C 
HETATM   39  C   UNK N   1      32.172  16.283   8.395  0.00  0.00     0.055 C 
ENDBRANCH  31  33
ENDBRANCH   3  29
TORSDOF 5
ENDMDL
MODEL 8
REMARK VINA RESULT:      -7.4      8.390     13.131
REMARK  5 active torsions:
REMARK  status: ('A' for Active; 'I' for Inactive)
REMARK    1  A    between atoms: C_2  and  S_3 
REMARK    2  A    between atoms: S_3  and  C_6 
REMARK    3  A    between atoms: C_10  and  C_12 
REMARK    4  A    between atoms: C_14  and  C_28 
REMARK       I    between atoms: C_28  and  N_30 
REMARK    5  A    between atoms: N_30  and  C_31 
ROOT
HETATM    1  C   UNK N   1      34.834  11.560  11.340  0.00  0.00    -0.011 A 
HETATM    2  C   UNK N   1      35.021  12.261  10.133  0.00  0.00     0.030 A 
HETATM    3  C   UNK N   1      35.389  13.617  10.080  0.00  0.00     0.041 A 
HETATM    4  C   UNK N   1      35.558  14.332  11.296  0.00  0.00    -0.019 A 
HETATM    5  C   UNK N   1      35.384  13.638  12.493  0.00  0.00     0.052 A 
HETATM    6  C   UNK N   1      35.045  12.288  12.537  0.00  0.00     0.016 A 
HETATM    7  C   UNK N   1      35.050  11.962  13.884  0.00  0.00     0.022 A 
HETATM    8  C   UNK N   1      34.855  10.776  14.583  0.00  0.00     0.024 A 
HETATM    9  C   UNK N   1      34.993  10.798  15.978  0.00  0.00    -0.046 A 
HETATM   10  C   UNK N   1      35.320  12.005  16.631  0.00  0.00     0.096 A 
HETATM   11  N   UNK N   1      35.503  13.153  15.911  0.00  0.00    -0.351 N 
ATOM     12  HN  UNK N   1      35.738  14.026  16.382  1.00  0.00     0.166 HD
HETATM   13  C   UNK N   1      35.369  13.112  14.565  0.00  0.00     0.117 A 
HETATM   14  N   UNK N   1      35.569  14.149  13.731  0.00  0.00    -0.341 N 
HETATM   15  C   UNK N   1      34.817   9.548  16.760  0.00  0.00     0.049 C 
HETATM   16  C   UNK N   1      35.949  15.775  11.346  0.00  0.00     0.052 C 
HETATM   17  H   UNK N   1      35.799  15.076  13.969  0.00  0.00     0.167 HD
ENDROOT
BRANCH   1  18
HETATM   18  C   UNK N   1      34.488  10.111  11.232  0.00  0.00    -0.024 A 
HETATM   19  C   UNK N   1      35.289   9.086  11.747  0.00  0.00     0.012 A 
HETATM   20  C   UNK N   1      34.929   7.743  11.586  0.00  0.00     0.002 A 
HETATM   21  C   UNK N   1      33.762   7.411  10.891  0.00  0.00     0.023 A 
HETATM   22  C   UNK N   1      32.950   8.426  10.379  0.00  0.00     0.060 A 
HETATM   23  C   UNK N   1      33.311   9.757  10.556  0.00  0.00     0.035 A 
BRANCH  22  24
HETATM   24  S   UNK N   1      31.471   8.053   9.451  0.00  0.00     0.175 S 
HETATM   25  O   UNK N   1      31.945   7.238   8.236  0.00  0.00    -0.223 OA
HETATM   26  O   UNK N   1      31.011   9.328   8.731  0.00  0.00    -0.223 OA
BRANCH  24  27
HETATM   27  C   UNK N   1      30.018   7.209  10.154  0.00  0.00     0.141 C 
HETATM   28  C   UNK N   1      29.487   6.164   9.193  0.00  0.00     0.021 C 
ENDBRANCH  24  27
ENDBRANCH  22  24
ENDBRANCH   1  18
BRANCH   3  29
HETATM   29  C   UNK N   1      35.623  14.208   8.735  0.00  0.00     0.252 C 
HETATM   30  O   UNK N   1      36.635  13.903   8.124  0.00  0.00    -0.268 OA
HETATM   31  N   UNK N   1      34.735  15.097   8.216  0.00  0.00    -0.352 N 
HETATM   32  H   UNK N   1      33.964  15.309   8.791  0.00  0.00     0.163 HD
BRANCH  31  33
HETATM   33  C   UNK N   1      34.761  15.780   6.930  0.00  0.00     0.088 C 
HETATM   34  C   UNK N   1      34.164  17.162   7.109  0.00  0.00     0.055 C 
HETATM   35  C   UNK N   1      32.663  17.021   7.364  0.00  0.00     0.274 C 
HETATM   36  N   UNK N   1      31.976  16.395   6.228  0.00  0.00     0.084 N 
HETATM   37  C   UNK N   1      32.542  15.088   5.868  0.00  0.00     0.274 C 
HETATM   38  C   UNK N   1      31.990  17.287   5.078  0.00  0.00     0.309 C 
HETATM   39  C   UNK N   1      34.076  15.083   5.746  0.00  0.00     0.055 C 
ENDBRANCH  31  33
ENDBRANCH   3  29
TORSDOF 5
ENDMDL
MODEL 9
REMARK VINA RESULT:      -7.4     15.018     18.559
REMARK  5 active torsions:
REMARK  status: ('A' for Active; 'I' for Inactive)
REMARK    1  A    between atoms: C_2  and  S_3 
REMARK    2  A    between atoms: S_3  and  C_6 
REMARK    3  A    between atoms: C_10  and  C_12 
REMARK    4  A    between atoms: C_14  and  C_28 
REMARK       I    between atoms: C_28  and  N_30 
REMARK    5  A    between atoms: N_30  and  C_31 
ROOT
HETATM    1  C   UNK N   1      36.691  10.201  15.872  0.00  0.00    -0.011 A 
HETATM    2  C   UNK N   1      36.269   9.961  17.194  0.00  0.00     0.030 A 
HETATM    3  C   UNK N   1      35.716  10.957  18.018  0.00  0.00     0.041 A 
HETATM    4  C   UNK N   1      35.596  12.279  17.513  0.00  0.00    -0.019 A 
HETATM    5  C   UNK N   1      36.002  12.518  16.201  0.00  0.00     0.052 A 
HETATM    6  C   UNK N   1      36.524  11.521  15.382  0.00  0.00     0.016 A 
HETATM    7  C   UNK N   1      36.723  12.133  14.154  0.00  0.00     0.022 A 
HETATM    8  C   UNK N   1      37.159  11.677  12.915  0.00  0.00     0.024 A 
HETATM    9  C   UNK N   1      37.183  12.583  11.846  0.00  0.00    -0.046 A 
HETATM   10  C   UNK N   1      36.774  13.918  12.049  0.00  0.00     0.096 A 
HETATM   11  N   UNK N   1      36.353  14.332  13.282  0.00  0.00    -0.351 N 
ATOM     12  HN  UNK N   1      36.059  15.297  13.430  1.00  0.00     0.166 HD
HETATM   13  C   UNK N   1      36.332  13.443  14.301  0.00  0.00     0.117 A 
HETATM   14  N   UNK N   1      35.896  13.698  15.549  0.00  0.00    -0.341 N 
HETATM   15  C   UNK N   1      37.619  12.131  10.501  0.00  0.00     0.049 C 
HETATM   16  C   UNK N   1      35.020  13.407  18.310  0.00  0.00     0.052 C 
HETATM   17  H   UNK N   1      35.572  14.554  15.908  0.00  0.00     0.167 HD
ENDROOT
BRANCH   1  18
HETATM   18  C   UNK N   1      37.215   9.031  15.107  0.00  0.00    -0.024 A 
HETATM   19  C   UNK N   1      36.393   8.087  14.481  0.00  0.00     0.012 A 
HETATM   20  C   UNK N   1      36.944   6.991  13.807  0.00  0.00     0.002 A 
HETATM   21  C   UNK N   1      38.331   6.822  13.762  0.00  0.00     0.023 A 
HETATM   22  C   UNK N   1      39.162   7.763  14.375  0.00  0.00     0.060 A 
HETATM   23  C   UNK N   1      38.605   8.854  15.032  0.00  0.00     0.035 A 
BRANCH  22  24
HETATM   24  S   UNK N   1      40.937   7.572  14.378  0.00  0.00     0.175 S 
HETATM   25  O   UNK N   1      41.218   6.388  15.318  0.00  0.00    -0.223 OA
HETATM   26  O   UNK N   1      41.548   8.704  15.216  0.00  0.00    -0.223 OA
BRANCH  24  27
HETATM   27  C   UNK N   1      41.935   7.337  12.874  0.00  0.00     0.141 C 
HETATM   28  C   UNK N   1      41.136   7.695  11.637  0.00  0.00     0.021 C 
ENDBRANCH  24  27
ENDBRANCH  22  24
ENDBRANCH   1  18
BRANCH   3  29
HETATM   29  C   UNK N   1      35.247  10.541  19.367  0.00  0.00     0.252 C 
HETATM   30  O   UNK N   1      35.783  11.022  20.353  0.00  0.00    -0.268 OA
HETATM   31  N   UNK N   1      34.259   9.615  19.492  0.00  0.00    -0.352 N 
HETATM   32  H   UNK N   1      33.908   9.257  18.644  0.00  0.00     0.163 HD
BRANCH  31  33
HETATM   33  C   UNK N   1      33.648   9.078  20.699  0.00  0.00     0.088 C 
HETATM   34  C   UNK N   1      33.901   7.584  20.741  0.00  0.00     0.055 C 
HETATM   35  C   UNK N   1      33.076   6.914  19.641  0.00  0.00     0.274 C 
HETATM   36  N   UNK N   1      31.636   7.117  19.843  0.00  0.00     0.084 N 
HETATM   37  C   UNK N   1      31.268   8.535  19.943  0.00  0.00     0.274 C 
HETATM   38  C   UNK N   1      31.187   6.392  21.022  0.00  0.00     0.309 C 
HETATM   39  C   UNK N   1      32.150   9.344  20.909  0.00  0.00     0.055 C 
ENDBRANCH  31  33
ENDBRANCH   3  29
TORSDOF 5
ENDMDL
