REMARK  5 active torsions:
REMARK  status: ('A' for Active; 'I' for Inactive)
REMARK    1  A    between atoms: C_4  and  C_11 
REMARK    2  A    between atoms: C_11  and  C_12 
REMARK    3  A    between atoms: C_12  and  C_13 
REMARK    4  A    between atoms: C_12  and  N_16 
REMARK    5  A    between atoms: C_13  and  O_15 
ROOT
HETATM    1  C   UNK N   1      -1.089   2.608   0.052  0.00  0.00     0.155 C 
HETATM    2  N   UNK N   1      -0.640   1.227   0.024  0.00  0.00    -0.360 N 
HETATM    3  C   UNK N   1      -1.444   0.139   0.043  0.00  0.00     0.099 A 
HETATM    4  C   UNK N   1      -0.656  -1.009   0.004  0.00  0.00    -0.028 A 
HETATM    5  C   UNK N   1       0.665  -0.576  -0.041  0.00  0.00    -0.002 A 
HETATM    6  C   UNK N   1       0.629   0.793  -0.022  0.00  0.00     0.044 A 
HETATM    7  C   UNK N   1       1.792   1.564  -0.044  0.00  0.00     0.030 A 
HETATM    8  C   UNK N   1       3.025   0.889  -0.086  0.00  0.00     0.002 A 
HETATM    9  C   UNK N   1       3.066  -0.522  -0.110  0.00  0.00     0.001 A 
HETATM   10  C   UNK N   1       1.874  -1.268  -0.090  0.00  0.00     0.014 A 
ENDROOT
BRANCH   4  11
HETATM   11  C   UNK N   1      -1.230  -2.402   0.022  0.00  0.00     0.076 C 
BRANCH  11  12
HETATM   12  C   UNK N   1      -0.245  -3.565  -0.112  0.00  0.00     0.177 C 
BRANCH  12  13
HETATM   13  C   UNK N   1      -0.970  -4.879  -0.200  0.00  0.00     0.163 C 
HETATM   14  O   UNK N   1      -0.336  -5.907  -0.379  0.00  0.00    -0.648 OA
BRANCH  13  15
HETATM   15  O   UNK N   1      -2.310  -4.942  -0.065  0.00  0.00    -0.775 OA
HETATM   16  H   UNK N   1      -2.814  -4.157   0.029  0.00  0.00     0.167 HD
ENDBRANCH  13  15
ENDBRANCH  12  13
BRANCH  12  17
HETATM   17  N   UNK N   1       0.646  -3.608   1.035  0.00  0.00    -0.417 N 
HETATM   18  H   UNK N   1       0.933  -4.165   1.840  0.00  0.00     0.150 HD
HETATM   19  H   UNK N   1       1.199  -2.751   1.035  0.00  0.00     0.150 HD
ENDBRANCH  12  17
ENDBRANCH  11  12
ENDBRANCH   4  11
TORSDOF 5
