REMARK  4 active torsions:
REMARK  status: ('A' for Active; 'I' for Inactive)
REMARK    1  A    between atoms: C_2  and  C_3 
REMARK    2  A    between atoms: C_2  and  C_16 
REMARK    3  A    between atoms: C_6  and  C_10 
REMARK    4  A    between atoms: C_18  and  N_22 
REMARK       I    between atoms: N_22  and  C_23 
REMARK       I    between atoms: C_23  and  N_26 
ROOT
HETATM    1  C   UNK N   1       1.743  -2.644  -0.025  0.00  0.00     0.045 A 
HETATM    2  C   UNK N   1       2.907  -3.376  -0.021  0.00  0.00     0.086 A 
HETATM    3  C   UNK N   1       2.465  -4.679   0.035  0.00  0.00     0.186 A 
HETATM    4  O   UNK N   1       1.154  -4.694   0.056  0.00  0.00    -0.219 OA
HETATM    5  N   UNK N   1       0.685  -3.480   0.023  0.00  0.00    -0.263 N 
ATOM      6  HN  UNK N   1      -0.299  -3.211   0.033  1.00  0.00     0.194 HD
ENDROOT
BRANCH   1   7
HETATM    7  C   UNK N   1       1.683  -1.142  -0.070  0.00  0.00     0.066 C 
HETATM    8  C   UNK N   1       3.001  -0.378  -0.117  0.00  0.00     0.021 C 
BRANCH   7   9
HETATM    9  C   UNK N   1       0.391  -0.370  -0.043  0.00  0.00    -0.046 A 
HETATM   10  C   UNK N   1      -0.838  -1.033  -0.017  0.00  0.00     0.009 A 
HETATM   11  C   UNK N   1      -2.028  -0.311   0.002  0.00  0.00     0.016 A 
HETATM   12  C   UNK N   1      -2.021   1.094  -0.002  0.00  0.00     0.013 A 
HETATM   13  C   UNK N   1      -0.775   1.764  -0.023  0.00  0.00     0.128 A 
HETATM   14  C   UNK N   1       0.413   1.029  -0.045  0.00  0.00     0.051 A 
HETATM   15  F   UNK N   1      -0.695   3.118  -0.025  0.00  0.00    -0.205 F 
BRANCH  12  16
HETATM   16  C   UNK N   1      -3.323   1.817   0.011  0.00  0.00    -0.023 A 
HETATM   17  C   UNK N   1      -4.527   1.090   0.018  0.00  0.00     0.012 A 
HETATM   18  C   UNK N   1      -5.758   1.748   0.021  0.00  0.00     0.001 A 
HETATM   19  C   UNK N   1      -5.803   3.143   0.017  0.00  0.00     0.000 A 
HETATM   20  C   UNK N   1      -4.616   3.879   0.012  0.00  0.00     0.001 A 
HETATM   21  C   UNK N   1      -3.384   3.220   0.008  0.00  0.00     0.012 A 
ENDBRANCH  12  16
ENDBRANCH   7   9
ENDBRANCH   1   7
BRANCH   3  22
HETATM   22  N   UNK N   1       3.280  -5.843   0.053  0.00  0.00    -0.169 N 
HETATM   23  C   UNK N   1       4.709  -5.805   0.111  0.00  0.00     0.676 C 
HETATM   24  N   UNK N   1       5.322  -4.686   0.274  0.00  0.00    -0.234 N 
HETATM   25  N   UNK N   1       5.464  -7.006  -0.015  0.00  0.00    -0.214 N 
HETATM   26  H   UNK N   1       6.298  -4.664   0.399  0.00  0.00     0.174 HD
ATOM     27  HN  UNK N   1       4.792  -3.814   0.274  1.00  0.00     0.174 HD
HETATM   28  C   UNK N   1       6.922  -6.929   0.045  0.00  0.00     0.167 C 
HETATM   29  C   UNK N   1       4.764  -8.277  -0.157  0.00  0.00     0.167 C 
HETATM   30  C   UNK N   1       7.589  -8.279  -0.201  0.00  0.00     0.188 C 
HETATM   31  O   UNK N   1       6.857  -9.283   0.439  0.00  0.00    -0.388 OA
HETATM   32  C   UNK N   1       5.725  -9.449  -0.365  0.00  0.00     0.188 C 
HETATM   33  H   UNK N   1       2.838  -6.723   0.023  0.00  0.00     0.186 HD
ENDBRANCH   3  22
TORSDOF 4
