MODEL 1
REMARK VINA RESULT:      -6.2      0.000      0.000
REMARK  5 active torsions:
REMARK  status: ('A' for Active; 'I' for Inactive)
REMARK    1  A    between atoms: C_6  and  C_3 
REMARK    2  A    between atoms: C_3  and  O_18 
REMARK    3  A    between atoms: C_4  and  C_6 
REMARK    4  A    between atoms: C_6  and  O_19 
REMARK    5  A    between atoms: N_10  and  C_7 
REMARK       I    between atoms: N_11  and  C_9 
ROOT
HETATM    1  C   UNK N   1      36.339  14.255  12.556  0.00  0.00     0.149 C 
HETATM    2  C   UNK N   1      34.951  13.599  12.686  0.00  0.00     0.131 C 
HETATM    3  C   UNK N   1      34.344  14.912  10.693  0.00  0.00     0.118 A 
HETATM    4  C   UNK N   1      33.394  15.249   9.728  0.00  0.00     0.145 A 
HETATM    5  C   UNK N   1      35.392  15.804  10.956  0.00  0.00     0.147 A 
HETATM    6  C   UNK N   1      34.526  17.289   9.330  0.00  0.00     0.679 A 
HETATM    7  N   UNK N   1      34.612  18.393   8.691  0.00  0.00    -0.234 N 
ATOM      8  HN  UNK N   1      35.454  18.962   8.776  1.00  0.00     0.174 HD
HETATM    9  N   UNK N   1      36.301  15.518  11.825  0.00  0.00    -0.372 N 
ATOM     10  HN  UNK N   1      37.029  16.207  12.012  1.00  0.00     0.161 HD
HETATM   11  N   UNK N   1      34.268  13.700  11.416  0.00  0.00    -0.375 N 
HETATM   12  N   UNK N   1      33.503  16.432   9.066  0.00  0.00    -0.175 N 
HETATM   13  N   UNK N   1      35.458  16.976  10.268  0.00  0.00    -0.175 N 
HETATM   14  H   UNK N   1      33.873  18.702   8.117  0.00  0.00     0.174 HD
HETATM   15  H   UNK N   1      33.758  12.936  11.060  0.00  0.00     0.160 HD
HETATM   16  H   UNK N   1      32.832  16.671   8.387  0.00  0.00     0.186 HD
HETATM   17  H   UNK N   1      36.193  17.606  10.452  0.00  0.00     0.186 HD
ENDROOT
BRANCH   2  18
HETATM   18  C   UNK N   1      35.069  12.120  13.111  0.00  0.00     0.170 C 
BRANCH  18  19
HETATM   19  C   UNK N   1      34.704  11.854  14.588  0.00  0.00     0.145 C 
HETATM   20  C   UNK N   1      33.626  10.788  14.715  0.00  0.00     0.042 C 
BRANCH  19  21
HETATM   21  O   UNK N   1      34.273  13.018  15.225  0.00  0.00    -0.393 OA
HETATM   22  H   UNK N   1      34.536  13.886  14.881  0.00  0.00     0.210 HD
ENDBRANCH  19  21
ENDBRANCH  18  19
BRANCH  18  23
HETATM   23  O   UNK N   1      34.248  11.327  12.301  0.00  0.00    -0.391 OA
HETATM   24  H   UNK N   1      34.484  11.170  11.374  0.00  0.00     0.210 HD
ENDBRANCH  18  23
ENDBRANCH   2  18
BRANCH   4  25
HETATM   25  N   UNK N   1      32.313  14.387   9.452  0.00  0.00    -0.383 N 
HETATM   26  H   UNK N   1      31.739  14.539   8.669  0.00  0.00     0.157 HD
HETATM   27  H   UNK N   1      32.132  13.626  10.051  0.00  0.00     0.157 HD
ENDBRANCH   4  25
TORSDOF 5
ENDMDL
MODEL 2
REMARK VINA RESULT:      -6.1      3.367      6.331
REMARK  5 active torsions:
REMARK  status: ('A' for Active; 'I' for Inactive)
REMARK    1  A    between atoms: C_6  and  C_3 
REMARK    2  A    between atoms: C_3  and  O_18 
REMARK    3  A    between atoms: C_4  and  C_6 
REMARK    4  A    between atoms: C_6  and  O_19 
REMARK    5  A    between atoms: N_10  and  C_7 
REMARK       I    between atoms: N_11  and  C_9 
ROOT
HETATM    1  C   UNK N   1      34.878  13.396  11.226  0.00  0.00     0.149 C 
HETATM    2  C   UNK N   1      35.261  14.824  11.658  0.00  0.00     0.131 C 
HETATM    3  C   UNK N   1      35.967  13.799  13.782  0.00  0.00     0.118 A 
HETATM    4  C   UNK N   1      36.529  13.945  15.050  0.00  0.00     0.145 A 
HETATM    5  C   UNK N   1      35.147  12.692  13.526  0.00  0.00     0.147 A 
HETATM    6  C   UNK N   1      35.472  11.945  15.746  0.00  0.00     0.679 A 
HETATM    7  N   UNK N   1      35.247  11.080  16.661  0.00  0.00    -0.234 N 
ATOM      8  HN  UNK N   1      34.780  10.205  16.425  1.00  0.00     0.174 HD
HETATM    9  N   UNK N   1      34.626  12.512  12.358  0.00  0.00    -0.372 N 
ATOM     10  HN  UNK N   1      34.009  11.713  12.221  1.00  0.00     0.161 HD
HETATM   11  N   UNK N   1      36.197  14.743  12.756  0.00  0.00    -0.375 N 
HETATM   12  N   UNK N   1      36.271  13.015  16.009  0.00  0.00    -0.175 N 
HETATM   13  N   UNK N   1      34.915  11.789  14.516  0.00  0.00    -0.175 N 
HETATM   14  H   UNK N   1      35.519  11.250  17.593  0.00  0.00     0.174 HD
HETATM   15  H   UNK N   1      36.983  15.336  12.788  0.00  0.00     0.160 HD
HETATM   16  H   UNK N   1      36.665  13.119  16.904  0.00  0.00     0.186 HD
HETATM   17  H   UNK N   1      34.338  11.011  14.340  0.00  0.00     0.186 HD
ENDROOT
BRANCH   2  18
HETATM   18  C   UNK N   1      35.882  15.615  10.486  0.00  0.00     0.170 C 
BRANCH  18  19
HETATM   19  C   UNK N   1      34.992  16.757   9.950  0.00  0.00     0.145 C 
HETATM   20  C   UNK N   1      34.493  16.466   8.543  0.00  0.00     0.042 C 
BRANCH  19  21
HETATM   21  O   UNK N   1      35.670  17.977   9.951  0.00  0.00    -0.393 OA
HETATM   22  H   UNK N   1      36.441  18.104   9.377  0.00  0.00     0.210 HD
ENDBRANCH  19  21
ENDBRANCH  18  19
BRANCH  18  23
HETATM   23  O   UNK N   1      37.111  16.156  10.879  0.00  0.00    -0.391 OA
HETATM   24  H   UNK N   1      37.139  16.930  11.463  0.00  0.00     0.210 HD
ENDBRANCH  18  23
ENDBRANCH   2  18
BRANCH   4  25
HETATM   25  N   UNK N   1      37.342  15.056  15.352  0.00  0.00    -0.383 N 
HETATM   26  H   UNK N   1      37.294  15.487  16.235  0.00  0.00     0.157 HD
HETATM   27  H   UNK N   1      37.963  15.405  14.671  0.00  0.00     0.157 HD
ENDBRANCH   4  25
TORSDOF 5
ENDMDL
MODEL 3
REMARK VINA RESULT:      -5.9      3.875      5.543
REMARK  5 active torsions:
REMARK  status: ('A' for Active; 'I' for Inactive)
REMARK    1  A    between atoms: C_6  and  C_3 
REMARK    2  A    between atoms: C_3  and  O_18 
REMARK    3  A    between atoms: C_4  and  C_6 
REMARK    4  A    between atoms: C_6  and  O_19 
REMARK    5  A    between atoms: N_10  and  C_7 
REMARK       I    between atoms: N_11  and  C_9 
ROOT
HETATM    1  C   UNK N   1      32.780  14.847   7.718  0.00  0.00     0.149 C 
HETATM    2  C   UNK N   1      33.158  15.852   8.823  0.00  0.00     0.131 C 
HETATM    3  C   UNK N   1      30.964  16.882   8.386  0.00  0.00     0.118 A 
HETATM    4  C   UNK N   1      30.020  17.859   8.701  0.00  0.00     0.145 A 
HETATM    5  C   UNK N   1      30.937  16.295   7.115  0.00  0.00     0.147 A 
HETATM    6  C   UNK N   1      29.079  17.642   6.541  0.00  0.00     0.679 A 
HETATM    7  N   UNK N   1      28.197  17.994   5.684  0.00  0.00    -0.234 N 
ATOM      8  HN  UNK N   1      28.086  17.458   4.824  1.00  0.00     0.174 HD
HETATM    9  N   UNK N   1      31.781  15.373   6.794  0.00  0.00    -0.372 N 
ATOM     10  HN  UNK N   1      31.749  14.994   5.848  1.00  0.00     0.161 HD
HETATM   11  N   UNK N   1      31.952  16.479   9.314  0.00  0.00    -0.375 N 
HETATM   12  N   UNK N   1      29.095  18.221   7.772  0.00  0.00    -0.175 N 
HETATM   13  N   UNK N   1      29.994  16.691   6.218  0.00  0.00    -0.175 N 
HETATM   14  H   UNK N   1      27.622  18.778   5.845  0.00  0.00     0.174 HD
HETATM   15  H   UNK N   1      31.821  16.625  10.279  0.00  0.00     0.160 HD
HETATM   16  H   UNK N   1      28.430  18.911   7.993  0.00  0.00     0.186 HD
HETATM   17  H   UNK N   1      29.973  16.281   5.322  0.00  0.00     0.186 HD
ENDROOT
BRANCH   2  18
HETATM   18  C   UNK N   1      33.905  15.155   9.981  0.00  0.00     0.170 C 
BRANCH  18  19
HETATM   19  C   UNK N   1      35.161  15.908  10.468  0.00  0.00     0.145 C 
HETATM   20  C   UNK N   1      35.666  15.357  11.794  0.00  0.00     0.042 C 
BRANCH  19  21
HETATM   21  O   UNK N   1      34.918  17.275  10.605  0.00  0.00    -0.393 OA
HETATM   22  H   UNK N   1      35.310  17.766  11.343  0.00  0.00     0.210 HD
ENDBRANCH  19  21
ENDBRANCH  18  19
BRANCH  18  23
HETATM   23  O   UNK N   1      33.039  14.984  11.068  0.00  0.00    -0.391 OA
HETATM   24  H   UNK N   1      32.183  15.440  11.086  0.00  0.00     0.210 HD
ENDBRANCH  18  23
ENDBRANCH   2  18
BRANCH   4  25
HETATM   25  N   UNK N   1      30.030  18.488   9.963  0.00  0.00    -0.383 N 
HETATM   26  H   UNK N   1      29.704  18.014  10.761  0.00  0.00     0.157 HD
HETATM   27  H   UNK N   1      30.366  19.410  10.045  0.00  0.00     0.157 HD
ENDBRANCH   4  25
TORSDOF 5
ENDMDL
MODEL 4
REMARK VINA RESULT:      -5.9      3.572      6.286
REMARK  5 active torsions:
REMARK  status: ('A' for Active; 'I' for Inactive)
REMARK    1  A    between atoms: C_6  and  C_3 
REMARK    2  A    between atoms: C_3  and  O_18 
REMARK    3  A    between atoms: C_4  and  C_6 
REMARK    4  A    between atoms: C_6  and  O_19 
REMARK    5  A    between atoms: N_10  and  C_7 
REMARK       I    between atoms: N_11  and  C_9 
ROOT
HETATM    1  C   UNK N   1      33.395  15.373   9.583  0.00  0.00     0.149 C 
HETATM    2  C   UNK N   1      34.570  15.888   8.730  0.00  0.00     0.131 C 
HETATM    3  C   UNK N   1      35.995  14.498  10.179  0.00  0.00     0.118 A 
HETATM    4  C   UNK N   1      37.264  14.014  10.496  0.00  0.00     0.145 A 
HETATM    5  C   UNK N   1      35.004  14.505  11.169  0.00  0.00     0.147 A 
HETATM    6  C   UNK N   1      36.542  13.574  12.706  0.00  0.00     0.679 A 
HETATM    7  N   UNK N   1      36.798  13.139  13.881  0.00  0.00    -0.234 N 
ATOM      8  HN  UNK N   1      36.037  13.004  14.546  1.00  0.00     0.174 HD
HETATM    9  N   UNK N   1      33.812  14.925  10.908  0.00  0.00    -0.372 N 
ATOM     10  HN  UNK N   1      33.128  14.945  11.663  1.00  0.00     0.161 HD
HETATM   11  N   UNK N   1      35.690  14.989   8.889  0.00  0.00    -0.375 N 
HETATM   12  N   UNK N   1      37.514  13.562  11.754  0.00  0.00    -0.175 N 
HETATM   13  N   UNK N   1      35.301  14.044  12.414  0.00  0.00    -0.175 N 
HETATM   14  H   UNK N   1      37.722  12.932  14.152  0.00  0.00     0.174 HD
HETATM   15  H   UNK N   1      36.231  14.722   8.111  0.00  0.00     0.160 HD
HETATM   16  H   UNK N   1      38.410  13.223  11.979  0.00  0.00     0.186 HD
HETATM   17  H   UNK N   1      34.607  14.049  13.113  0.00  0.00     0.186 HD
ENDROOT
BRANCH   2  18
HETATM   18  C   UNK N   1      34.177  15.992   7.241  0.00  0.00     0.170 C 
BRANCH  18  19
HETATM   19  C   UNK N   1      33.654  17.382   6.818  0.00  0.00     0.145 C 
HETATM   20  C   UNK N   1      33.386  17.448   5.322  0.00  0.00     0.042 C 
BRANCH  19  21
HETATM   21  O   UNK N   1      34.550  18.392   7.167  0.00  0.00    -0.393 OA
HETATM   22  H   UNK N   1      34.561  18.741   8.073  0.00  0.00     0.210 HD
ENDBRANCH  19  21
ENDBRANCH  18  19
BRANCH  18  23
HETATM   23  O   UNK N   1      35.276  15.667   6.437  0.00  0.00    -0.391 OA
HETATM   24  H   UNK N   1      35.163  15.545   5.482  0.00  0.00     0.210 HD
ENDBRANCH  18  23
ENDBRANCH   2  18
BRANCH   4  25
HETATM   25  N   UNK N   1      38.294  14.012   9.532  0.00  0.00    -0.383 N 
HETATM   26  H   UNK N   1      38.930  14.760   9.477  0.00  0.00     0.157 HD
HETATM   27  H   UNK N   1      38.375  13.254   8.909  0.00  0.00     0.157 HD
ENDBRANCH   4  25
TORSDOF 5
ENDMDL
MODEL 5
REMARK VINA RESULT:      -5.8      1.865      2.881
REMARK  5 active torsions:
REMARK  status: ('A' for Active; 'I' for Inactive)
REMARK    1  A    between atoms: C_6  and  C_3 
REMARK    2  A    between atoms: C_3  and  O_18 
REMARK    3  A    between atoms: C_4  and  C_6 
REMARK    4  A    between atoms: C_6  and  O_19 
REMARK    5  A    between atoms: N_10  and  C_7 
REMARK       I    between atoms: N_11  and  C_9 
ROOT
HETATM    1  C   UNK N   1      35.343  16.630  10.803  0.00  0.00     0.149 C 
HETATM    2  C   UNK N   1      34.892  15.355  11.541  0.00  0.00     0.131 C 
HETATM    3  C   UNK N   1      33.614  14.841   9.500  0.00  0.00     0.118 A 
HETATM    4  C   UNK N   1      32.777  13.971   8.802  0.00  0.00     0.145 A 
HETATM    5  C   UNK N   1      33.642  16.194   9.137  0.00  0.00     0.147 A 
HETATM    6  C   UNK N   1      32.045  15.766   7.446  0.00  0.00     0.679 A 
HETATM    7  N   UNK N   1      31.316  16.193   6.485  0.00  0.00    -0.234 N 
ATOM      8  HN  UNK N   1      31.455  17.138   6.128  1.00  0.00     0.174 HD
HETATM    9  N   UNK N   1      34.420  17.026   9.745  0.00  0.00    -0.372 N 
ATOM     10  HN  UNK N   1      34.387  18.008   9.473  1.00  0.00     0.161 HD
HETATM   11  N   UNK N   1      34.425  14.394  10.568  0.00  0.00    -0.375 N 
HETATM   12  N   UNK N   1      32.008  14.449   7.788  0.00  0.00    -0.175 N 
HETATM   13  N   UNK N   1      32.853  16.627   8.117  0.00  0.00    -0.175 N 
HETATM   14  H   UNK N   1      30.621  15.620   6.086  0.00  0.00     0.174 HD
HETATM   15  H   UNK N   1      34.667  13.443  10.647  0.00  0.00     0.160 HD
HETATM   16  H   UNK N   1      31.415  13.836   7.297  0.00  0.00     0.186 HD
HETATM   17  H   UNK N   1      32.869  17.578   7.860  0.00  0.00     0.186 HD
ENDROOT
BRANCH   2  18
HETATM   18  C   UNK N   1      36.046  14.753  12.372  0.00  0.00     0.170 C 
BRANCH  18  19
HETATM   19  C   UNK N   1      35.592  13.743  13.448  0.00  0.00     0.145 C 
HETATM   20  C   UNK N   1      36.704  12.768  13.805  0.00  0.00     0.042 C 
BRANCH  19  21
HETATM   21  O   UNK N   1      34.470  13.025  13.034  0.00  0.00    -0.393 OA
HETATM   22  H   UNK N   1      33.582  13.395  13.162  0.00  0.00     0.210 HD
ENDBRANCH  19  21
ENDBRANCH  18  19
BRANCH  18  23
HETATM   23  O   UNK N   1      36.960  14.118  11.523  0.00  0.00    -0.391 OA
HETATM   24  H   UNK N   1      36.987  14.343  10.580  0.00  0.00     0.210 HD
ENDBRANCH  18  23
ENDBRANCH   2  18
BRANCH   4  25
HETATM   25  N   UNK N   1      32.706  12.607   9.153  0.00  0.00    -0.383 N 
HETATM   26  H   UNK N   1      32.455  11.930   8.485  0.00  0.00     0.157 HD
HETATM   27  H   UNK N   1      32.910  12.330  10.076  0.00  0.00     0.157 HD
ENDBRANCH   4  25
TORSDOF 5
ENDMDL
MODEL 6
REMARK VINA RESULT:      -5.6      3.649      6.465
REMARK  5 active torsions:
REMARK  status: ('A' for Active; 'I' for Inactive)
REMARK    1  A    between atoms: C_6  and  C_3 
REMARK    2  A    between atoms: C_3  and  O_18 
REMARK    3  A    between atoms: C_4  and  C_6 
REMARK    4  A    between atoms: C_6  and  O_19 
REMARK    5  A    between atoms: N_10  and  C_7 
REMARK       I    between atoms: N_11  and  C_9 
ROOT
HETATM    1  C   UNK N   1      33.999  13.547   7.375  0.00  0.00     0.149 C 
HETATM    2  C   UNK N   1      33.652  15.047   7.442  0.00  0.00     0.131 C 
HETATM    3  C   UNK N   1      34.648  14.993   9.693  0.00  0.00     0.118 A 
HETATM    4  C   UNK N   1      35.014  15.674  10.854  0.00  0.00     0.145 A 
HETATM    5  C   UNK N   1      34.450  13.607   9.752  0.00  0.00     0.147 A 
HETATM    6  C   UNK N   1      34.976  13.637  12.058  0.00  0.00     0.679 A 
HETATM    7  N   UNK N   1      35.134  13.007  13.160  0.00  0.00    -0.234 N 
ATOM      8  HN  UNK N   1      35.140  11.987  13.162  1.00  0.00     0.174 HD
HETATM    9  N   UNK N   1      34.132  12.939   8.694  0.00  0.00    -0.372 N 
ATOM     10  HN  UNK N   1      33.965  11.938   8.785  1.00  0.00     0.161 HD
HETATM   11  N   UNK N   1      34.463  15.667   8.464  0.00  0.00    -0.375 N 
HETATM   12  N   UNK N   1      35.170  14.983  12.015  0.00  0.00    -0.175 N 
HETATM   13  N   UNK N   1      34.617  12.959  10.936  0.00  0.00    -0.175 N 
HETATM   14  H   UNK N   1      35.250  13.495  14.007  0.00  0.00     0.174 HD
HETATM   15  H   UNK N   1      34.880  16.546   8.308  0.00  0.00     0.160 HD
HETATM   16  H   UNK N   1      35.426  15.463  12.834  0.00  0.00     0.186 HD
HETATM   17  H   UNK N   1      34.477  11.985  10.981  0.00  0.00     0.186 HD
ENDROOT
BRANCH   2  18
HETATM   18  C   UNK N   1      33.891  15.737   6.081  0.00  0.00     0.170 C 
BRANCH  18  19
HETATM   19  C   UNK N   1      33.379  17.192   6.010  0.00  0.00     0.145 C 
HETATM   20  C   UNK N   1      33.007  17.586   4.588  0.00  0.00     0.042 C 
BRANCH  19  21
HETATM   21  O   UNK N   1      34.325  18.092   6.501  0.00  0.00    -0.393 OA
HETATM   22  H   UNK N   1      35.232  18.079   6.157  0.00  0.00     0.210 HD
ENDBRANCH  19  21
ENDBRANCH  18  19
BRANCH  18  23
HETATM   23  O   UNK N   1      35.258  15.732   5.781  0.00  0.00    -0.391 OA
HETATM   24  H   UNK N   1      35.664  16.497   5.344  0.00  0.00     0.210 HD
ENDBRANCH  18  23
ENDBRANCH   2  18
BRANCH   4  25
HETATM   25  N   UNK N   1      35.200  17.071  10.838  0.00  0.00    -0.383 N 
HETATM   26  H   UNK N   1      36.104  17.456  10.774  0.00  0.00     0.157 HD
HETATM   27  H   UNK N   1      34.418  17.668  10.893  0.00  0.00     0.157 HD
ENDBRANCH   4  25
TORSDOF 5
ENDMDL
MODEL 7
REMARK VINA RESULT:      -5.5      2.949      5.669
REMARK  5 active torsions:
REMARK  status: ('A' for Active; 'I' for Inactive)
REMARK    1  A    between atoms: C_6  and  C_3 
REMARK    2  A    between atoms: C_3  and  O_18 
REMARK    3  A    between atoms: C_4  and  C_6 
REMARK    4  A    between atoms: C_6  and  O_19 
REMARK    5  A    between atoms: N_10  and  C_7 
REMARK       I    between atoms: N_11  and  C_9 
ROOT
HETATM    1  C   UNK N   1      36.121  15.391  12.494  0.00  0.00     0.149 C 
HETATM    2  C   UNK N   1      35.644  14.532  11.308  0.00  0.00     0.131 C 
HETATM    3  C   UNK N   1      35.221  12.777  12.981  0.00  0.00     0.118 A 
HETATM    4  C   UNK N   1      34.757  11.495  13.276  0.00  0.00     0.145 A 
HETATM    5  C   UNK N   1      36.115  13.396  13.864  0.00  0.00     0.147 A 
HETATM    6  C   UNK N   1      36.051  11.486  15.258  0.00  0.00     0.679 A 
HETATM    7  N   UNK N   1      36.433  10.884  16.320  0.00  0.00    -0.234 N 
ATOM      8  HN  UNK N   1      36.957  11.396  17.029  1.00  0.00     0.174 HD
HETATM    9  N   UNK N   1      36.549  14.590  13.636  0.00  0.00    -0.372 N 
ATOM     10  HN  UNK N   1      37.224  14.993  14.284  1.00  0.00     0.161 HD
HETATM   11  N   UNK N   1      34.817  13.460  11.812  0.00  0.00    -0.375 N 
HETATM   12  N   UNK N   1      35.182  10.873  14.409  0.00  0.00    -0.175 N 
HETATM   13  N   UNK N   1      36.513  12.734  14.984  0.00  0.00    -0.175 N 
HETATM   14  H   UNK N   1      36.227   9.932  16.462  0.00  0.00     0.174 HD
HETATM   15  H   UNK N   1      33.986  13.209  11.348  0.00  0.00     0.160 HD
HETATM   16  H   UNK N   1      34.858   9.968  14.617  0.00  0.00     0.186 HD
HETATM   17  H   UNK N   1      37.143  13.166  15.606  0.00  0.00     0.186 HD
ENDROOT
BRANCH   2  18
HETATM   18  C   UNK N   1      34.855  15.379  10.286  0.00  0.00     0.170 C 
BRANCH  18  19
HETATM   19  C   UNK N   1      33.476  14.796   9.910  0.00  0.00     0.145 C 
HETATM   20  C   UNK N   1      32.988  15.328   8.571  0.00  0.00     0.042 C 
BRANCH  19  21
HETATM   21  O   UNK N   1      32.520  15.074  10.888  0.00  0.00    -0.393 OA
HETATM   22  H   UNK N   1      31.660  14.625  10.868  0.00  0.00     0.210 HD
ENDBRANCH  19  21
ENDBRANCH  18  19
BRANCH  18  23
HETATM   23  O   UNK N   1      34.670  16.673  10.786  0.00  0.00    -0.391 OA
HETATM   24  H   UNK N   1      34.327  16.804  11.683  0.00  0.00     0.210 HD
ENDBRANCH  18  23
ENDBRANCH   2  18
BRANCH   4  25
HETATM   25  N   UNK N   1      33.873  10.831  12.401  0.00  0.00    -0.383 N 
HETATM   26  H   UNK N   1      33.075  11.288  12.054  0.00  0.00     0.157 HD
HETATM   27  H   UNK N   1      34.058   9.900  12.135  0.00  0.00     0.157 HD
ENDBRANCH   4  25
TORSDOF 5
ENDMDL
MODEL 8
REMARK VINA RESULT:      -5.5      3.080      5.552
REMARK  5 active torsions:
REMARK  status: ('A' for Active; 'I' for Inactive)
REMARK    1  A    between atoms: C_6  and  C_3 
REMARK    2  A    between atoms: C_3  and  O_18 
REMARK    3  A    between atoms: C_4  and  C_6 
REMARK    4  A    between atoms: C_6  and  O_19 
REMARK    5  A    between atoms: N_10  and  C_7 
REMARK       I    between atoms: N_11  and  C_9 
ROOT
HETATM    1  C   UNK N   1      34.659  17.356   9.356  0.00  0.00     0.149 C 
HETATM    2  C   UNK N   1      34.389  16.125   8.470  0.00  0.00     0.131 C 
HETATM    3  C   UNK N   1      34.741  14.800  10.515  0.00  0.00     0.118 A 
HETATM    4  C   UNK N   1      34.766  13.554  11.142  0.00  0.00     0.145 A 
HETATM    5  C   UNK N   1      35.455  15.862  11.085  0.00  0.00     0.147 A 
HETATM    6  C   UNK N   1      36.169  14.434  12.831  0.00  0.00     0.679 A 
HETATM    7  N   UNK N   1      36.831  14.263  13.913  0.00  0.00    -0.234 N 
ATOM      8  HN  UNK N   1      37.217  15.070  14.401  1.00  0.00     0.174 HD
HETATM    9  N   UNK N   1      35.438  17.035  10.547  0.00  0.00    -0.372 N 
ATOM     10  HN  UNK N   1      35.997  17.773  10.973  1.00  0.00     0.161 HD
HETATM   11  N   UNK N   1      34.022  15.013   9.317  0.00  0.00    -0.375 N 
HETATM   12  N   UNK N   1      35.481  13.395  12.288  0.00  0.00    -0.175 N 
HETATM   13  N   UNK N   1      36.157  15.654  12.232  0.00  0.00    -0.175 N 
HETATM   14  H   UNK N   1      36.971  13.360  14.280  0.00  0.00     0.174 HD
HETATM   15  H   UNK N   1      33.283  14.414   9.064  0.00  0.00     0.160 HD
HETATM   16  H   UNK N   1      35.501  12.516  12.729  0.00  0.00     0.186 HD
HETATM   17  H   UNK N   1      36.661  16.398  12.635  0.00  0.00     0.186 HD
ENDROOT
BRANCH   2  18
HETATM   18  C   UNK N   1      33.267  16.408   7.447  0.00  0.00     0.170 C 
BRANCH  18  19
HETATM   19  C   UNK N   1      31.873  15.908   7.880  0.00  0.00     0.145 C 
HETATM   20  C   UNK N   1      30.820  16.192   6.819  0.00  0.00     0.042 C 
BRANCH  19  21
HETATM   21  O   UNK N   1      31.474  16.486   9.086  0.00  0.00    -0.393 OA
HETATM   22  H   UNK N   1      31.090  15.935   9.786  0.00  0.00     0.210 HD
ENDBRANCH  19  21
ENDBRANCH  18  19
BRANCH  18  23
HETATM   23  O   UNK N   1      33.189  17.783   7.199  0.00  0.00    -0.391 OA
HETATM   24  H   UNK N   1      32.435  18.149   6.711  0.00  0.00     0.210 HD
ENDBRANCH  18  23
ENDBRANCH   2  18
BRANCH   4  25
HETATM   25  N   UNK N   1      34.077  12.456  10.586  0.00  0.00    -0.383 N 
HETATM   26  H   UNK N   1      33.203  12.182  10.941  0.00  0.00     0.157 HD
HETATM   27  H   UNK N   1      34.477  11.961   9.834  0.00  0.00     0.157 HD
ENDBRANCH   4  25
TORSDOF 5
ENDMDL
MODEL 9
REMARK VINA RESULT:      -5.4     13.479     15.812
REMARK  5 active torsions:
REMARK  status: ('A' for Active; 'I' for Inactive)
REMARK    1  A    between atoms: C_6  and  C_3 
REMARK    2  A    between atoms: C_3  and  O_18 
REMARK    3  A    between atoms: C_4  and  C_6 
REMARK    4  A    between atoms: C_6  and  O_19 
REMARK    5  A    between atoms: N_10  and  C_7 
REMARK       I    between atoms: N_11  and  C_9 
ROOT
HETATM    1  C   UNK N   1      43.161  22.333   3.741  0.00  0.00     0.149 C 
HETATM    2  C   UNK N   1      42.275  22.449   2.486  0.00  0.00     0.131 C 
HETATM    3  C   UNK N   1      44.282  23.344   1.374  0.00  0.00     0.118 A 
HETATM    4  C   UNK N   1      44.890  23.827   0.215  0.00  0.00     0.145 A 
HETATM    5  C   UNK N   1      44.826  23.684   2.619  0.00  0.00     0.147 A 
HETATM    6  C   UNK N   1      46.512  24.938   1.532  0.00  0.00     0.679 A 
HETATM    7  N   UNK N   1      47.554  25.676   1.604  0.00  0.00    -0.234 N 
ATOM      8  HN  UNK N   1      48.031  25.791   2.498  1.00  0.00     0.174 HD
HETATM    9  N   UNK N   1      44.304  23.239   3.713  0.00  0.00    -0.372 N 
ATOM     10  HN  UNK N   1      44.709  23.536   4.600  1.00  0.00     0.161 HD
HETATM   11  N   UNK N   1      43.127  22.531   1.321  0.00  0.00    -0.375 N 
HETATM   12  N   UNK N   1      45.993  24.616   0.316  0.00  0.00    -0.175 N 
HETATM   13  N   UNK N   1      45.930  24.477   2.671  0.00  0.00    -0.175 N 
HETATM   14  H   UNK N   1      47.902  26.136   0.805  0.00  0.00     0.174 HD
HETATM   15  H   UNK N   1      42.907  22.027   0.504  0.00  0.00     0.160 HD
HETATM   16  H   UNK N   1      46.422  24.958  -0.500  0.00  0.00     0.186 HD
HETATM   17  H   UNK N   1      46.314  24.719   3.545  0.00  0.00     0.186 HD
ENDROOT
BRANCH   2  18
HETATM   18  C   UNK N   1      41.318  21.244   2.363  0.00  0.00     0.170 C 
BRANCH  18  19
HETATM   19  C   UNK N   1      41.628  20.087   3.337  0.00  0.00     0.145 C 
HETATM   20  C   UNK N   1      42.167  18.867   2.604  0.00  0.00     0.042 C 
BRANCH  19  21
HETATM   21  O   UNK N   1      40.499  19.718   4.068  0.00  0.00    -0.393 OA
HETATM   22  H   UNK N   1      40.118  18.832   3.961  0.00  0.00     0.210 HD
ENDBRANCH  19  21
ENDBRANCH  18  19
BRANCH  18  23
HETATM   23  O   UNK N   1      40.000  21.663   2.575  0.00  0.00    -0.391 OA
HETATM   24  H   UNK N   1      39.520  21.380   3.369  0.00  0.00     0.210 HD
ENDBRANCH  18  23
ENDBRANCH   2  18
BRANCH   4  25
HETATM   25  N   UNK N   1      44.358  23.524  -1.055  0.00  0.00    -0.383 N 
HETATM   26  H   UNK N   1      44.952  23.390  -1.827  0.00  0.00     0.157 HD
HETATM   27  H   UNK N   1      43.383  23.447  -1.169  0.00  0.00     0.157 HD
ENDBRANCH   4  25
TORSDOF 5
ENDMDL
