MODEL 1
REMARK VINA RESULT:      -4.9      0.000      0.000
REMARK  5 active torsions:
REMARK  status: ('A' for Active; 'I' for Inactive)
REMARK    1  A    between atoms: O_2  and  C_3 
REMARK    2  A    between atoms: C_3  and  C_5 
REMARK    3  A    between atoms: C_6  and  C_5 
REMARK    4  A    between atoms: C_6  and  C_13 
REMARK    5  A    between atoms: C_13  and  N_14 
ROOT
HETATM    1  C   UNK N   1      34.472  16.153   9.577  0.00  0.00    -0.015 C 
HETATM    2  C   UNK N   1      33.479  15.098  10.029  0.00  0.00     0.016 C 
HETATM    3  C   UNK N   1      33.215  14.216   8.819  0.00  0.00    -0.010 A 
HETATM    4  C   UNK N   1      33.685  12.806   9.126  0.00  0.00     0.005 A 
HETATM    5  C   UNK N   1      34.876  13.001   8.207  0.00  0.00     0.005 A 
HETATM    6  C   UNK N   1      34.402  14.409   7.885  0.00  0.00    -0.010 A 
HETATM    7  C   UNK N   1      35.321  15.427   8.552  0.00  0.00     0.016 C 
ENDROOT
BRANCH   1   8
HETATM    8  C   UNK N   1      33.711  17.328   8.924  0.00  0.00     0.122 C 
BRANCH   8   9
HETATM    9  C   UNK N   1      34.544  18.197   8.021  0.00  0.00     0.259 C 
HETATM   10  O   UNK N   1      35.223  19.093   8.503  0.00  0.00    -0.265 OA
BRANCH   9  11
HETATM   11  O   UNK N   1      34.495  18.016   6.679  0.00  0.00    -0.326 OA
HETATM   12  C   UNK N   1      33.386  17.493   6.054  0.00  0.00     0.213 C 
ENDBRANCH   9  11
ENDBRANCH   8   9
ENDBRANCH   1   8
BRANCH   1  13
HETATM   13  C   UNK N   1      35.345  16.582  10.757  0.00  0.00     0.121 C 
BRANCH  13  14
HETATM   14  N   UNK N   1      36.503  15.714  10.901  0.00  0.00    -0.429 N 
HETATM   15  H   UNK N   1      37.034  15.217  10.185  0.00  0.00     0.149 HD
HETATM   16  H   UNK N   1      36.833  15.583  11.857  0.00  0.00     0.149 HD
ENDBRANCH  13  14
ENDBRANCH   1  13
TORSDOF 5
ENDMDL
MODEL 2
REMARK VINA RESULT:      -4.8      2.304      4.205
REMARK  5 active torsions:
REMARK  status: ('A' for Active; 'I' for Inactive)
REMARK    1  A    between atoms: O_2  and  C_3 
REMARK    2  A    between atoms: C_3  and  C_5 
REMARK    3  A    between atoms: C_6  and  C_5 
REMARK    4  A    between atoms: C_6  and  C_13 
REMARK    5  A    between atoms: C_13  and  N_14 
ROOT
HETATM    1  C   UNK N   1      32.624  16.712   7.083  0.00  0.00    -0.015 C 
HETATM    2  C   UNK N   1      31.415  17.006   6.215  0.00  0.00     0.016 C 
HETATM    3  C   UNK N   1      31.943  17.697   4.968  0.00  0.00    -0.010 A 
HETATM    4  C   UNK N   1      31.641  16.831   3.760  0.00  0.00     0.005 A 
HETATM    5  C   UNK N   1      33.106  16.448   3.666  0.00  0.00     0.005 A 
HETATM    6  C   UNK N   1      33.416  17.325   4.867  0.00  0.00    -0.010 A 
HETATM    7  C   UNK N   1      33.729  16.450   6.077  0.00  0.00     0.016 C 
ENDROOT
BRANCH   1   8
HETATM    8  C   UNK N   1      32.951  17.950   7.945  0.00  0.00     0.122 C 
BRANCH   8   9
HETATM    9  C   UNK N   1      34.368  18.015   8.448  0.00  0.00     0.259 C 
HETATM   10  O   UNK N   1      35.020  19.038   8.289  0.00  0.00    -0.265 OA
BRANCH   9  11
HETATM   11  O   UNK N   1      34.929  16.924   9.022  0.00  0.00    -0.326 OA
HETATM   12  C   UNK N   1      35.227  16.879  10.366  0.00  0.00     0.213 C 
ENDBRANCH   9  11
ENDBRANCH   8   9
ENDBRANCH   1   8
BRANCH   1  13
HETATM   13  C   UNK N   1      32.374  15.451   7.911  0.00  0.00     0.121 C 
BRANCH  13  14
HETATM   14  N   UNK N   1      31.919  15.780   9.252  0.00  0.00    -0.429 N 
HETATM   15  H   UNK N   1      31.262  16.499   9.556  0.00  0.00     0.149 HD
HETATM   16  H   UNK N   1      32.312  15.207   9.999  0.00  0.00     0.149 HD
ENDBRANCH  13  14
ENDBRANCH   1  13
TORSDOF 5
ENDMDL
MODEL 3
REMARK VINA RESULT:      -4.7      3.451      4.570
REMARK  5 active torsions:
REMARK  status: ('A' for Active; 'I' for Inactive)
REMARK    1  A    between atoms: O_2  and  C_3 
REMARK    2  A    between atoms: C_3  and  C_5 
REMARK    3  A    between atoms: C_6  and  C_5 
REMARK    4  A    between atoms: C_6  and  C_13 
REMARK    5  A    between atoms: C_13  and  N_14 
ROOT
HETATM    1  C   UNK N   1      31.292  17.021   8.351  0.00  0.00    -0.015 C 
HETATM    2  C   UNK N   1      30.302  17.263   9.474  0.00  0.00     0.016 C 
HETATM    3  C   UNK N   1      29.192  18.120   8.886  0.00  0.00    -0.010 A 
HETATM    4  C   UNK N   1      27.890  17.342   8.938  0.00  0.00     0.005 A 
HETATM    5  C   UNK N   1      27.956  17.129   7.437  0.00  0.00     0.005 A 
HETATM    6  C   UNK N   1      29.253  17.919   7.378  0.00  0.00    -0.010 A 
HETATM    7  C   UNK N   1      30.420  16.974   7.111  0.00  0.00     0.016 C 
ENDROOT
BRANCH   1   8
HETATM    8  C   UNK N   1      32.284  18.201   8.277  0.00  0.00     0.122 C 
BRANCH   8   9
HETATM    9  C   UNK N   1      33.718  17.810   8.041  0.00  0.00     0.259 C 
HETATM   10  O   UNK N   1      34.398  17.411   8.976  0.00  0.00    -0.265 OA
BRANCH   9  11
HETATM   11  O   UNK N   1      34.260  17.951   6.807  0.00  0.00    -0.326 OA
HETATM   12  C   UNK N   1      33.833  17.205   5.732  0.00  0.00     0.213 C 
ENDBRANCH   9  11
ENDBRANCH   8   9
ENDBRANCH   1   8
BRANCH   1  13
HETATM   13  C   UNK N   1      31.978  15.668   8.547  0.00  0.00     0.121 C 
BRANCH  13  14
HETATM   14  N   UNK N   1      32.050  15.311   9.955  0.00  0.00    -0.429 N 
HETATM   15  H   UNK N   1      32.749  14.754  10.448  0.00  0.00     0.149 HD
HETATM   16  H   UNK N   1      31.292  15.670  10.535  0.00  0.00     0.149 HD
ENDBRANCH  13  14
ENDBRANCH   1  13
TORSDOF 5
ENDMDL
MODEL 4
REMARK VINA RESULT:      -4.6      7.679      9.038
REMARK  5 active torsions:
REMARK  status: ('A' for Active; 'I' for Inactive)
REMARK    1  A    between atoms: O_2  and  C_3 
REMARK    2  A    between atoms: C_3  and  C_5 
REMARK    3  A    between atoms: C_6  and  C_5 
REMARK    4  A    between atoms: C_6  and  C_13 
REMARK    5  A    between atoms: C_13  and  N_14 
ROOT
HETATM    1  C   UNK N   1      35.447  12.616  15.629  0.00  0.00    -0.015 C 
HETATM    2  C   UNK N   1      35.833  11.232  16.117  0.00  0.00     0.016 C 
HETATM    3  C   UNK N   1      34.699  10.305  15.709  0.00  0.00    -0.010 A 
HETATM    4  C   UNK N   1      35.233   9.272  14.735  0.00  0.00     0.005 A 
HETATM    5  C   UNK N   1      34.516   9.973  13.596  0.00  0.00     0.005 A 
HETATM    6  C   UNK N   1      33.967  11.002  14.570  0.00  0.00    -0.010 A 
HETATM    7  C   UNK N   1      34.667  12.340  14.357  0.00  0.00     0.016 C 
ENDROOT
BRANCH   1   8
HETATM    8  C   UNK N   1      34.549  13.300  16.682  0.00  0.00     0.122 C 
BRANCH   8   9
HETATM    9  C   UNK N   1      35.095  13.283  18.085  0.00  0.00     0.259 C 
HETATM   10  O   UNK N   1      35.708  14.253  18.507  0.00  0.00    -0.265 OA
BRANCH   9  11
HETATM   11  O   UNK N   1      34.951  12.174  18.850  0.00  0.00    -0.326 OA
HETATM   12  C   UNK N   1      35.748  11.936  19.946  0.00  0.00     0.213 C 
ENDBRANCH   9  11
ENDBRANCH   8   9
ENDBRANCH   1   8
BRANCH   1  13
HETATM   13  C   UNK N   1      36.705  13.418  15.296  0.00  0.00     0.121 C 
BRANCH  13  14
HETATM   14  N   UNK N   1      37.059  13.289  13.891  0.00  0.00    -0.429 N 
HETATM   15  H   UNK N   1      37.700  13.851  13.330  0.00  0.00     0.149 HD
HETATM   16  H   UNK N   1      36.602  12.525  13.395  0.00  0.00     0.149 HD
ENDBRANCH  13  14
ENDBRANCH   1  13
TORSDOF 5
ENDMDL
MODEL 5
REMARK VINA RESULT:      -4.6     17.146     19.133
REMARK  5 active torsions:
REMARK  status: ('A' for Active; 'I' for Inactive)
REMARK    1  A    between atoms: O_2  and  C_3 
REMARK    2  A    between atoms: C_3  and  C_5 
REMARK    3  A    between atoms: C_6  and  C_5 
REMARK    4  A    between atoms: C_6  and  C_13 
REMARK    5  A    between atoms: C_13  and  N_14 
ROOT
HETATM    1  C   UNK N   1      26.749  25.844  -4.396  0.00  0.00    -0.015 C 
HETATM    2  C   UNK N   1      27.205  26.740  -5.533  0.00  0.00     0.016 C 
HETATM    3  C   UNK N   1      26.264  27.933  -5.538  0.00  0.00    -0.010 A 
HETATM    4  C   UNK N   1      27.062  29.191  -5.247  0.00  0.00     0.005 A 
HETATM    5  C   UNK N   1      26.463  29.251  -3.854  0.00  0.00     0.005 A 
HETATM    6  C   UNK N   1      25.652  27.999  -4.145  0.00  0.00    -0.010 A 
HETATM    7  C   UNK N   1      26.221  26.821  -3.362  0.00  0.00     0.016 C 
ENDROOT
BRANCH   1   8
HETATM    8  C   UNK N   1      25.622  24.915  -4.895  0.00  0.00     0.122 C 
BRANCH   8   9
HETATM    9  C   UNK N   1      25.942  24.150  -6.151  0.00  0.00     0.259 C 
HETATM   10  O   UNK N   1      25.385  24.448  -7.199  0.00  0.00    -0.265 OA
BRANCH   9  11
HETATM   11  O   UNK N   1      26.803  23.105  -6.103  0.00  0.00    -0.326 OA
HETATM   12  C   UNK N   1      27.866  22.995  -6.971  0.00  0.00     0.213 C 
ENDBRANCH   9  11
ENDBRANCH   8   9
ENDBRANCH   1   8
BRANCH   1  13
HETATM   13  C   UNK N   1      27.946  25.085  -3.821  0.00  0.00     0.121 C 
BRANCH  13  14
HETATM   14  N   UNK N   1      27.517  23.950  -3.019  0.00  0.00    -0.429 N 
HETATM   15  H   UNK N   1      26.980  23.935  -2.152  0.00  0.00     0.149 HD
HETATM   16  H   UNK N   1      27.793  23.035  -3.375  0.00  0.00     0.149 HD
ENDBRANCH  13  14
ENDBRANCH   1  13
TORSDOF 5
ENDMDL
MODEL 6
REMARK VINA RESULT:      -4.6     18.060     19.437
REMARK  5 active torsions:
REMARK  status: ('A' for Active; 'I' for Inactive)
REMARK    1  A    between atoms: O_2  and  C_3 
REMARK    2  A    between atoms: C_3  and  C_5 
REMARK    3  A    between atoms: C_6  and  C_5 
REMARK    4  A    between atoms: C_6  and  C_13 
REMARK    5  A    between atoms: C_13  and  N_14 
ROOT
HETATM    1  C   UNK N   1      26.383  27.394  -5.272  0.00  0.00    -0.015 C 
HETATM    2  C   UNK N   1      27.289  26.436  -4.520  0.00  0.00     0.016 C 
HETATM    3  C   UNK N   1      26.464  25.187  -4.256  0.00  0.00    -0.010 A 
HETATM    4  C   UNK N   1      27.102  24.014  -4.977  0.00  0.00     0.005 A 
HETATM    5  C   UNK N   1      25.984  24.034  -6.003  0.00  0.00     0.005 A 
HETATM    6  C   UNK N   1      25.334  25.200  -5.277  0.00  0.00    -0.010 A 
HETATM    7  C   UNK N   1      25.501  26.476  -6.096  0.00  0.00     0.016 C 
ENDROOT
BRANCH   1   8
HETATM    8  C   UNK N   1      25.539  28.201  -4.262  0.00  0.00     0.122 C 
BRANCH   8   9
HETATM    9  C   UNK N   1      26.302  29.245  -3.492  0.00  0.00     0.259 C 
HETATM   10  O   UNK N   1      26.291  30.407  -3.874  0.00  0.00    -0.265 OA
BRANCH   9  11
HETATM   11  O   UNK N   1      27.039  28.882  -2.414  0.00  0.00    -0.326 OA
HETATM   12  C   UNK N   1      28.167  29.575  -2.035  0.00  0.00     0.213 C 
ENDBRANCH   9  11
ENDBRANCH   8   9
ENDBRANCH   1   8
BRANCH   1  13
HETATM   13  C   UNK N   1      27.217  28.276  -6.201  0.00  0.00     0.121 C 
BRANCH  13  14
HETATM   14  N   UNK N   1      27.533  27.586  -7.442  0.00  0.00    -0.429 N 
HETATM   15  H   UNK N   1      27.374  27.881  -8.406  0.00  0.00     0.149 HD
HETATM   16  H   UNK N   1      27.980  26.676  -7.334  0.00  0.00     0.149 HD
ENDBRANCH  13  14
ENDBRANCH   1  13
TORSDOF 5
ENDMDL
MODEL 7
REMARK VINA RESULT:      -4.5     14.202     16.742
REMARK  5 active torsions:
REMARK  status: ('A' for Active; 'I' for Inactive)
REMARK    1  A    between atoms: O_2  and  C_3 
REMARK    2  A    between atoms: C_3  and  C_5 
REMARK    3  A    between atoms: C_6  and  C_5 
REMARK    4  A    between atoms: C_6  and  C_13 
REMARK    5  A    between atoms: C_13  and  N_14 
ROOT
HETATM    1  C   UNK N   1      28.365  24.446  -3.895  0.00  0.00    -0.015 C 
HETATM    2  C   UNK N   1      27.989  23.694  -5.158  0.00  0.00     0.016 C 
HETATM    3  C   UNK N   1      26.470  23.704  -5.224  0.00  0.00    -0.010 A 
HETATM    4  C   UNK N   1      26.036  24.463  -6.464  0.00  0.00     0.005 A 
HETATM    5  C   UNK N   1      25.593  25.628  -5.599  0.00  0.00     0.005 A 
HETATM    6  C   UNK N   1      26.014  24.866  -4.352  0.00  0.00    -0.010 A 
HETATM    7  C   UNK N   1      27.275  25.493  -3.766  0.00  0.00     0.016 C 
ENDROOT
BRANCH   1   8
HETATM    8  C   UNK N   1      28.337  23.477  -2.694  0.00  0.00     0.122 C 
BRANCH   8   9
HETATM    9  C   UNK N   1      29.643  22.784  -2.410  0.00  0.00     0.259 C 
HETATM   10  O   UNK N   1      30.326  23.146  -1.462  0.00  0.00    -0.265 OA
BRANCH   9  11
HETATM   11  O   UNK N   1      30.077  21.801  -3.236  0.00  0.00    -0.326 OA
HETATM   12  C   UNK N   1      31.413  21.618  -3.512  0.00  0.00     0.213 C 
ENDBRANCH   9  11
ENDBRANCH   8   9
ENDBRANCH   1   8
BRANCH   1  13
HETATM   13  C   UNK N   1      29.718  25.133  -4.084  0.00  0.00     0.121 C 
BRANCH  13  14
HETATM   14  N   UNK N   1      29.616  26.569  -3.872  0.00  0.00    -0.429 N 
HETATM   15  H   UNK N   1      28.832  27.119  -3.521  0.00  0.00     0.149 HD
HETATM   16  H   UNK N   1      30.451  27.105  -4.109  0.00  0.00     0.149 HD
ENDBRANCH  13  14
ENDBRANCH   1  13
TORSDOF 5
ENDMDL
MODEL 8
REMARK VINA RESULT:      -4.5      2.457      3.929
REMARK  5 active torsions:
REMARK  status: ('A' for Active; 'I' for Inactive)
REMARK    1  A    between atoms: O_2  and  C_3 
REMARK    2  A    between atoms: C_3  and  C_5 
REMARK    3  A    between atoms: C_6  and  C_5 
REMARK    4  A    between atoms: C_6  and  C_13 
REMARK    5  A    between atoms: C_13  and  N_14 
ROOT
HETATM    1  C   UNK N   1      33.939  16.109   8.900  0.00  0.00    -0.015 C 
HETATM    2  C   UNK N   1      32.772  16.985   8.484  0.00  0.00     0.016 C 
HETATM    3  C   UNK N   1      33.237  17.762   7.263  0.00  0.00    -0.010 A 
HETATM    4  C   UNK N   1      32.375  17.374   6.075  0.00  0.00     0.005 A 
HETATM    5  C   UNK N   1      33.530  16.579   5.495  0.00  0.00     0.005 A 
HETATM    6  C   UNK N   1      34.401  16.975   6.675  0.00  0.00    -0.010 A 
HETATM    7  C   UNK N   1      34.617  15.770   7.585  0.00  0.00     0.016 C 
ENDROOT
BRANCH   1   8
HETATM    8  C   UNK N   1      34.888  16.916   9.812  0.00  0.00     0.122 C 
BRANCH   8   9
HETATM    9  C   UNK N   1      35.763  16.083  10.709  0.00  0.00     0.259 C 
HETATM   10  O   UNK N   1      35.466  15.950  11.888  0.00  0.00    -0.265 OA
BRANCH   9  11
HETATM   11  O   UNK N   1      36.900  15.532  10.220  0.00  0.00    -0.326 OA
HETATM   12  C   UNK N   1      37.082  14.169  10.159  0.00  0.00     0.213 C 
ENDBRANCH   9  11
ENDBRANCH   8   9
ENDBRANCH   1   8
BRANCH   1  13
HETATM   13  C   UNK N   1      33.419  14.828   9.554  0.00  0.00     0.121 C 
BRANCH  13  14
HETATM   14  N   UNK N   1      32.196  15.075  10.302  0.00  0.00    -0.429 N 
HETATM   15  H   UNK N   1      31.570  14.411  10.759  0.00  0.00     0.149 HD
HETATM   16  H   UNK N   1      31.924  16.055  10.382  0.00  0.00     0.149 HD
ENDBRANCH  13  14
ENDBRANCH   1  13
TORSDOF 5
ENDMDL
MODEL 9
REMARK VINA RESULT:      -4.4      7.928     10.025
REMARK  5 active torsions:
REMARK  status: ('A' for Active; 'I' for Inactive)
REMARK    1  A    between atoms: O_2  and  C_3 
REMARK    2  A    between atoms: C_3  and  C_5 
REMARK    3  A    between atoms: C_6  and  C_5 
REMARK    4  A    between atoms: C_6  and  C_13 
REMARK    5  A    between atoms: C_13  and  N_14 
ROOT
HETATM    1  C   UNK N   1      26.954  20.098   5.298  0.00  0.00    -0.015 C 
HETATM    2  C   UNK N   1      26.877  20.725   3.918  0.00  0.00     0.016 C 
HETATM    3  C   UNK N   1      26.030  19.789   3.071  0.00  0.00    -0.010 A 
HETATM    4  C   UNK N   1      24.775  20.521   2.633  0.00  0.00     0.005 A 
HETATM    5  C   UNK N   1      23.955  19.705   3.615  0.00  0.00     0.005 A 
HETATM    6  C   UNK N   1      25.207  18.960   4.048  0.00  0.00    -0.010 A 
HETATM    7  C   UNK N   1      25.614  19.404   5.449  0.00  0.00     0.016 C 
ENDROOT
BRANCH   1   8
HETATM    8  C   UNK N   1      28.108  19.073   5.332  0.00  0.00     0.122 C 
BRANCH   8   9
HETATM    9  C   UNK N   1      28.144  18.202   6.559  0.00  0.00     0.259 C 
HETATM   10  O   UNK N   1      27.800  17.031   6.478  0.00  0.00    -0.265 OA
BRANCH   9  11
HETATM   11  O   UNK N   1      28.504  18.733   7.752  0.00  0.00    -0.326 OA
HETATM   12  C   UNK N   1      28.161  18.142   8.947  0.00  0.00     0.213 C 
ENDBRANCH   9  11
ENDBRANCH   8   9
ENDBRANCH   1   8
BRANCH   1  13
HETATM   13  C   UNK N   1      27.088  21.192   6.358  0.00  0.00     0.121 C 
BRANCH  13  14
HETATM   14  N   UNK N   1      26.182  20.964   7.472  0.00  0.00    -0.429 N 
HETATM   15  H   UNK N   1      25.572  20.166   7.659  0.00  0.00     0.149 HD
HETATM   16  H   UNK N   1      26.150  21.708   8.168  0.00  0.00     0.149 HD
ENDBRANCH  13  14
ENDBRANCH   1  13
TORSDOF 5
ENDMDL
