REMARK  7 active torsions:
REMARK  status: ('A' for Active; 'I' for Inactive)
REMARK    1  A    between atoms: C_2  and  C_3 
REMARK    2  A    between atoms: C_2  and  O_7 
REMARK    3  A    between atoms: O_7  and  C_8 
REMARK    4  A    between atoms: C_11  and  S_34 
REMARK    5  A    between atoms: C_13  and  C_14 
REMARK       I    between atoms: C_14  and  N_16 
REMARK    6  A    between atoms: N_19  and  C_22 
REMARK    7  A    between atoms: C_25  and  C_29 
ROOT
HETATM    1  C   UNK N   1       0.032  -4.070  -0.290  0.00  0.00     0.256 C 
HETATM    2  O   UNK N   1      -0.793  -4.460  -1.101  0.00  0.00    -0.267 OA
HETATM    3  N   UNK N   1      -0.324  -3.163   0.666  0.00  0.00    -0.345 N 
HETATM    4  C   UNK N   1      -1.685  -2.649   0.693  0.00  0.00     0.146 C 
HETATM    5  C   UNK N   1      -1.741  -1.251   1.305  0.00  0.00     0.144 C 
HETATM    6  N   UNK N   1      -0.421  -0.661   1.304  0.00  0.00    -0.362 N 
HETATM    7  C   UNK N   1       0.627  -1.343   2.030  0.00  0.00     0.144 C 
HETATM    8  C   UNK N   1       0.573  -2.847   1.764  0.00  0.00     0.146 C 
ENDROOT
BRANCH   1   9
HETATM    9  C   UNK N   1       1.363  -4.711  -0.262  0.00  0.00     0.067 A 
HETATM   10  C   UNK N   1       1.394  -6.096  -0.100  0.00  0.00     0.043 A 
HETATM   11  C   UNK N   1       2.602  -6.774   0.015  0.00  0.00     0.060 A 
HETATM   12  C   UNK N   1       3.804  -6.068  -0.049  0.00  0.00     0.026 A 
HETATM   13  C   UNK N   1       3.790  -4.684  -0.245  0.00  0.00     0.039 A 
HETATM   14  C   UNK N   1       2.573  -3.983  -0.351  0.00  0.00     0.085 A 
BRANCH  11  15
HETATM   15  S   UNK N   1       2.597  -8.535   0.316  0.00  0.00     0.171 S 
HETATM   16  O   UNK N   1       2.812  -9.247  -1.027  0.00  0.00    -0.223 OA
HETATM   17  O   UNK N   1       1.133  -8.935   0.561  0.00  0.00    -0.223 OA
HETATM   18  C   UNK N   1       3.572  -9.385   1.587  0.00  0.00     0.167 C 
ENDBRANCH  11  15
BRANCH  14  19
HETATM   19  O   UNK N   1       2.544  -2.637  -0.594  0.00  0.00    -0.336 OA
BRANCH  19  20
HETATM   20  C   UNK N   1       3.636  -1.815  -0.873  0.00  0.00     0.232 C 
HETATM   21  C   UNK N   1       4.604  -2.416  -1.891  0.00  0.00     0.049 C 
BRANCH  20  22
HETATM   22  C   UNK N   1       4.317  -1.264   0.381  0.00  0.00     0.413 C 
HETATM   23  F   UNK N   1       3.430  -0.451   1.057  0.00  0.00    -0.168 F 
HETATM   24  F   UNK N   1       4.722  -2.286   1.217  0.00  0.00    -0.168 F 
HETATM   25  F   UNK N   1       5.419  -0.505   0.025  0.00  0.00    -0.168 F 
ENDBRANCH  20  22
ENDBRANCH  19  20
ENDBRANCH  14  19
ENDBRANCH   1   9
BRANCH   6  26
HETATM   26  C   UNK N   1      -0.132   0.552   0.610  0.00  0.00     0.142 A 
HETATM   27  C   UNK N   1      -1.092   1.198  -0.202  0.00  0.00     0.161 A 
HETATM   28  C   UNK N   1      -0.766   2.407  -0.811  0.00  0.00     0.063 A 
HETATM   29  F   UNK N   1      -2.329   0.682  -0.403  0.00  0.00    -0.202 F 
HETATM   30  C   UNK N   1       0.497   2.972  -0.624  0.00  0.00     0.066 A 
HETATM   31  C   UNK N   1       1.431   2.295   0.161  0.00  0.00     0.106 A 
HETATM   32  N   UNK N   1       1.101   1.118   0.751  0.00  0.00    -0.349 N 
ATOM     33  HN  UNK N   1       1.800   0.640   1.320  1.00  0.00     0.167 HD
BRANCH  30  34
HETATM   34  C   UNK N   1       0.846   4.300  -1.225  0.00  0.00     0.418 C 
HETATM   35  F   UNK N   1       1.167   5.185  -0.211  0.00  0.00    -0.166 F 
HETATM   36  F   UNK N   1       1.931   4.161  -2.069  0.00  0.00    -0.166 F 
HETATM   37  F   UNK N   1      -0.220   4.816  -1.943  0.00  0.00    -0.166 F 
ENDBRANCH  30  34
ENDBRANCH   6  26
TORSDOF 7
