MODEL 1
REMARK VINA RESULT:      -7.9      0.000      0.000
REMARK  6 active torsions:
REMARK  status: ('A' for Active; 'I' for Inactive)
REMARK    1  A    between atoms: C_2  and  C_3 
REMARK    2  A    between atoms: C_4  and  C_3 
REMARK    3  A    between atoms: C_6  and  C_27 
REMARK    4  A    between atoms: C_7  and  C_19 
REMARK       I    between atoms: C_27  and  N_29 
REMARK    5  A    between atoms: C_30  and  N_29 
REMARK    6  A    between atoms: C_33  and  O_36 
ROOT
HETATM    1  C   UNK N   1      25.542  25.210  -9.208  0.00  0.00     0.101 C 
HETATM    2  N   UNK N   1      24.978  23.972  -8.665  0.00  0.00    -0.403 N 
HETATM    3  C   UNK N   1      26.017  23.333  -7.862  0.00  0.00     0.180 C 
HETATM    4  C   UNK N   1      27.149  24.282  -7.580  0.00  0.00     0.078 C 
HETATM    5  C   UNK N   1      26.797  25.565  -8.342  0.00  0.00     0.100 A 
HETATM    6  C   UNK N   1      27.989  26.086  -9.158  0.00  0.00     0.238 A 
HETATM    7  O   UNK N   1      28.512  25.473 -10.079  0.00  0.00    -0.272 OA
HETATM    8  N   UNK N   1      28.459  27.274  -8.751  0.00  0.00    -0.326 N 
HETATM    9  C   UNK N   1      27.698  27.661  -7.657  0.00  0.00     0.044 A 
HETATM   10  C   UNK N   1      26.695  26.759  -7.392  0.00  0.00    -0.011 A 
HETATM   11  C   UNK N   1      25.874  26.929  -6.270  0.00  0.00     0.012 A 
HETATM   12  C   UNK N   1      26.137  28.009  -5.405  0.00  0.00     0.024 A 
HETATM   13  C   UNK N   1      27.201  28.897  -5.670  0.00  0.00     0.036 A 
HETATM   14  C   UNK N   1      27.985  28.733  -6.819  0.00  0.00     0.054 A 
HETATM   15 Cl   UNK N   1      27.606  30.160  -4.527  0.00  0.00    -0.084 Cl
HETATM   16  H   UNK N   1      24.032  23.620  -8.820  0.00  0.00     0.154 HD
HETATM   17  H   UNK N   1      29.204  27.776  -9.153  0.00  0.00     0.169 HD
ENDROOT
BRANCH   3  18
HETATM   18  C   UNK N   1      26.564  21.999  -8.291  0.00  0.00     0.241 C 
HETATM   19  O   UNK N   1      25.765  21.101  -8.523  0.00  0.00    -0.271 OA
HETATM   20  N   UNK N   1      27.889  21.806  -8.507  0.00  0.00    -0.355 N 
HETATM   21  H   UNK N   1      28.503  22.561  -8.360  0.00  0.00     0.162 HD
BRANCH  20  22
HETATM   22  C   UNK N   1      28.450  20.531  -8.948  0.00  0.00     0.084 C 
HETATM   23  C   UNK N   1      28.791  19.675  -7.731  0.00  0.00     0.028 C 
HETATM   24  C   UNK N   1      29.926  20.315  -6.919  0.00  0.00     0.034 C 
HETATM   25  C   UNK N   1      31.176  20.563  -7.774  0.00  0.00     0.118 C 
HETATM   26  C   UNK N   1      30.831  21.370  -9.020  0.00  0.00     0.034 C 
HETATM   27  C   UNK N   1      29.722  20.677  -9.806  0.00  0.00     0.028 C 
BRANCH  25  28
HETATM   28  O   UNK N   1      31.766  19.351  -8.141  0.00  0.00    -0.396 OA
HETATM   29  H   UNK N   1      32.128  19.099  -9.004  0.00  0.00     0.210 HD
ENDBRANCH  25  28
ENDBRANCH  20  22
ENDBRANCH   3  18
BRANCH   4  30
HETATM   30  C   UNK N   1      27.396  24.311  -6.065  0.00  0.00    -0.010 A 
HETATM   31  C   UNK N   1      28.649  24.655  -5.523  0.00  0.00     0.144 A 
HETATM   32  C   UNK N   1      28.831  24.661  -4.130  0.00  0.00     0.073 A 
HETATM   33  F   UNK N   1      29.683  24.974  -6.338  0.00  0.00    -0.204 F 
HETATM   34  C   UNK N   1      27.779  24.320  -3.277  0.00  0.00     0.027 A 
HETATM   35 Cl   UNK N   1      30.378  25.091  -3.434  0.00  0.00    -0.081 Cl
HETATM   36  C   UNK N   1      26.539  23.972  -3.801  0.00  0.00     0.002 A 
HETATM   37  C   UNK N   1      26.352  23.968  -5.178  0.00  0.00     0.011 A 
ENDBRANCH   4  30
BRANCH   1  38
HETATM   38  C   UNK N   1      25.866  24.913 -10.688  0.00  0.00     0.034 C 
BRANCH  38  39
HETATM   39  C   UNK N   1      25.190  25.807 -11.738  0.00  0.00    -0.050 C 
HETATM   40  C   UNK N   1      24.592  24.908 -12.801  0.00  0.00     0.014 C 
HETATM   41  C   UNK N   1      24.068  26.650 -11.158  0.00  0.00     0.014 C 
HETATM   42  C   UNK N   1      26.211  26.714 -12.395  0.00  0.00     0.014 C 
ENDBRANCH  38  39
ENDBRANCH   1  38
TORSDOF 6
ENDMDL
MODEL 2
REMARK VINA RESULT:      -7.6     19.768     23.505
REMARK  6 active torsions:
REMARK  status: ('A' for Active; 'I' for Inactive)
REMARK    1  A    between atoms: C_2  and  C_3 
REMARK    2  A    between atoms: C_4  and  C_3 
REMARK    3  A    between atoms: C_6  and  C_27 
REMARK    4  A    between atoms: C_7  and  C_19 
REMARK       I    between atoms: C_27  and  N_29 
REMARK    5  A    between atoms: C_30  and  N_29 
REMARK    6  A    between atoms: C_33  and  O_36 
ROOT
HETATM    1  C   UNK N   1      37.557  13.405   9.218  0.00  0.00     0.101 C 
HETATM    2  N   UNK N   1      37.644  14.692   9.915  0.00  0.00    -0.403 N 
HETATM    3  C   UNK N   1      36.451  14.819  10.748  0.00  0.00     0.180 C 
HETATM    4  C   UNK N   1      35.738  13.502  10.883  0.00  0.00     0.078 C 
HETATM    5  C   UNK N   1      36.521  12.527   9.995  0.00  0.00     0.100 A 
HETATM    6  C   UNK N   1      35.589  11.713   9.086  0.00  0.00     0.238 A 
HETATM    7  O   UNK N   1      34.872  12.202   8.221  0.00  0.00    -0.272 OA
HETATM    8  N   UNK N   1      35.580  10.397   9.342  0.00  0.00    -0.326 N 
HETATM    9  C   UNK N   1      36.437  10.183  10.411  0.00  0.00     0.044 A 
HETATM   10  C   UNK N   1      37.052  11.347  10.810  0.00  0.00    -0.011 A 
HETATM   11  C   UNK N   1      37.888  11.352  11.933  0.00  0.00     0.012 A 
HETATM   12  C   UNK N   1      38.037  10.156  12.663  0.00  0.00     0.024 A 
HETATM   13  C   UNK N   1      37.361   8.984  12.263  0.00  0.00     0.036 A 
HETATM   14  C   UNK N   1      36.561   8.990  11.114  0.00  0.00     0.054 A 
HETATM   15 Cl   UNK N   1      37.446   7.536  13.244  0.00  0.00    -0.084 Cl
HETATM   16  H   UNK N   1      38.399  15.374   9.833  0.00  0.00     0.154 HD
HETATM   17  H   UNK N   1      35.061   9.712   8.861  0.00  0.00     0.169 HD
ENDROOT
BRANCH   3  18
HETATM   18  C   UNK N   1      35.459  15.909  10.452  0.00  0.00     0.241 C 
HETATM   19  O   UNK N   1      35.310  16.789  11.289  0.00  0.00    -0.271 OA
HETATM   20  N   UNK N   1      34.809  15.982   9.263  0.00  0.00    -0.355 N 
HETATM   21  H   UNK N   1      34.987  15.286   8.590  0.00  0.00     0.162 HD
BRANCH  20  22
HETATM   22  C   UNK N   1      33.858  17.041   8.935  0.00  0.00     0.084 C 
HETATM   23  C   UNK N   1      32.464  16.442   8.770  0.00  0.00     0.028 C 
HETATM   24  C   UNK N   1      32.414  15.513   7.548  0.00  0.00     0.034 C 
HETATM   25  C   UNK N   1      32.853  16.227   6.264  0.00  0.00     0.118 C 
HETATM   26  C   UNK N   1      34.221  16.875   6.441  0.00  0.00     0.034 C 
HETATM   27  C   UNK N   1      34.208  17.811   7.646  0.00  0.00     0.028 C 
BRANCH  25  28
HETATM   28  O   UNK N   1      31.913  17.194   5.896  0.00  0.00    -0.396 OA
HETATM   29  H   UNK N   1      31.626  17.970   6.400  0.00  0.00     0.210 HD
ENDBRANCH  25  28
ENDBRANCH  20  22
ENDBRANCH   3  18
BRANCH   4  30
HETATM   30  C   UNK N   1      35.529  13.210  12.376  0.00  0.00    -0.010 A 
HETATM   31  C   UNK N   1      34.662  12.195  12.821  0.00  0.00     0.144 A 
HETATM   32  C   UNK N   1      34.497  11.969  14.198  0.00  0.00     0.073 A 
HETATM   33  F   UNK N   1      33.980  11.437  11.928  0.00  0.00    -0.204 F 
HETATM   34  C   UNK N   1      35.182  12.750  15.131  0.00  0.00     0.027 A 
HETATM   35 Cl   UNK N   1      33.429  10.707  14.773  0.00  0.00    -0.081 Cl
HETATM   36  C   UNK N   1      36.036  13.761  14.703  0.00  0.00     0.002 A 
HETATM   37  C   UNK N   1      36.207  13.986  13.343  0.00  0.00     0.011 A 
ENDBRANCH   4  30
BRANCH   1  38
HETATM   38  C   UNK N   1      37.137  13.738   7.770  0.00  0.00     0.034 C 
BRANCH  38  39
HETATM   39  C   UNK N   1      38.015  13.168   6.646  0.00  0.00    -0.050 C 
HETATM   40  C   UNK N   1      37.100  12.696   5.534  0.00  0.00     0.014 C 
HETATM   41  C   UNK N   1      38.963  14.199   6.061  0.00  0.00     0.014 C 
HETATM   42  C   UNK N   1      38.811  11.980   7.148  0.00  0.00     0.014 C 
ENDBRANCH  38  39
ENDBRANCH   1  38
TORSDOF 6
ENDMDL
MODEL 3
REMARK VINA RESULT:      -7.5     13.704     15.893
REMARK  6 active torsions:
REMARK  status: ('A' for Active; 'I' for Inactive)
REMARK    1  A    between atoms: C_2  and  C_3 
REMARK    2  A    between atoms: C_4  and  C_3 
REMARK    3  A    between atoms: C_6  and  C_27 
REMARK    4  A    between atoms: C_7  and  C_19 
REMARK       I    between atoms: C_27  and  N_29 
REMARK    5  A    between atoms: C_30  and  N_29 
REMARK    6  A    between atoms: C_33  and  O_36 
ROOT
HETATM    1  C   UNK N   1      26.381  14.295   2.534  0.00  0.00     0.101 C 
HETATM    2  N   UNK N   1      25.405  15.319   2.151  0.00  0.00    -0.403 N 
HETATM    3  C   UNK N   1      25.167  16.155   3.324  0.00  0.00     0.180 C 
HETATM    4  C   UNK N   1      26.211  15.923   4.381  0.00  0.00     0.078 C 
HETATM    5  C   UNK N   1      27.098  14.800   3.830  0.00  0.00     0.100 A 
HETATM    6  C   UNK N   1      27.340  13.703   4.876  0.00  0.00     0.238 A 
HETATM    7  O   UNK N   1      26.457  13.007   5.360  0.00  0.00    -0.272 OA
HETATM    8  N   UNK N   1      28.617  13.586   5.267  0.00  0.00    -0.326 N 
HETATM    9  C   UNK N   1      29.343  14.554   4.588  0.00  0.00     0.044 A 
HETATM   10  C   UNK N   1      28.553  15.257   3.710  0.00  0.00    -0.011 A 
HETATM   11  C   UNK N   1      29.084  16.338   2.995  0.00  0.00     0.012 A 
HETATM   12  C   UNK N   1      30.421  16.710   3.239  0.00  0.00     0.024 A 
HETATM   13  C   UNK N   1      31.201  16.003   4.179  0.00  0.00     0.036 A 
HETATM   14  C   UNK N   1      30.663  14.901   4.853  0.00  0.00     0.054 A 
HETATM   15 Cl   UNK N   1      32.818  16.547   4.573  0.00  0.00    -0.084 Cl
HETATM   16  H   UNK N   1      24.972  15.428   1.234  0.00  0.00     0.154 HD
HETATM   17  H   UNK N   1      28.972  12.935   5.915  0.00  0.00     0.169 HD
ENDROOT
BRANCH   3  18
HETATM   18  C   UNK N   1      23.800  16.173   3.951  0.00  0.00     0.241 C 
HETATM   19  O   UNK N   1      23.606  15.448   4.918  0.00  0.00    -0.271 OA
HETATM   20  N   UNK N   1      22.831  17.025   3.533  0.00  0.00    -0.355 N 
HETATM   21  H   UNK N   1      23.033  17.632   2.785  0.00  0.00     0.162 HD
BRANCH  20  22
HETATM   22  C   UNK N   1      21.502  17.084   4.136  0.00  0.00     0.084 C 
HETATM   23  C   UNK N   1      20.515  16.301   3.276  0.00  0.00     0.028 C 
HETATM   24  C   UNK N   1      20.328  16.980   1.911  0.00  0.00     0.034 C 
HETATM   25  C   UNK N   1      19.884  18.441   2.051  0.00  0.00     0.118 C 
HETATM   26  C   UNK N   1      20.837  19.215   2.955  0.00  0.00     0.034 C 
HETATM   27  C   UNK N   1      20.963  18.517   4.307  0.00  0.00     0.028 C 
BRANCH  25  28
HETATM   28  O   UNK N   1      18.585  18.511   2.559  0.00  0.00    -0.396 OA
HETATM   29  H   UNK N   1      18.301  18.805   3.438  0.00  0.00     0.210 HD
ENDBRANCH  25  28
ENDBRANCH  20  22
ENDBRANCH   3  18
BRANCH   4  30
HETATM   30  C   UNK N   1      26.815  17.278   4.778  0.00  0.00    -0.010 A 
HETATM   31  C   UNK N   1      27.444  17.475   6.021  0.00  0.00     0.144 A 
HETATM   32  C   UNK N   1      27.976  18.735   6.344  0.00  0.00     0.073 A 
HETATM   33  F   UNK N   1      27.535  16.458   6.912  0.00  0.00    -0.204 F 
HETATM   34  C   UNK N   1      27.877  19.797   5.442  0.00  0.00     0.027 A 
HETATM   35 Cl   UNK N   1      28.768  19.002   7.881  0.00  0.00    -0.081 Cl
HETATM   36  C   UNK N   1      27.252  19.616   4.214  0.00  0.00     0.002 A 
HETATM   37  C   UNK N   1      26.727  18.371   3.888  0.00  0.00     0.011 A 
ENDBRANCH   4  30
BRANCH   1  38
HETATM   38  C   UNK N   1      25.572  12.994   2.732  0.00  0.00     0.034 C 
BRANCH  38  39
HETATM   39  C   UNK N   1      26.096  11.738   2.022  0.00  0.00    -0.050 C 
HETATM   40  C   UNK N   1      25.193  11.461   0.837  0.00  0.00     0.014 C 
HETATM   41  C   UNK N   1      27.511  11.905   1.498  0.00  0.00     0.014 C 
HETATM   42  C   UNK N   1      26.043  10.543   2.953  0.00  0.00     0.014 C 
ENDBRANCH  38  39
ENDBRANCH   1  38
TORSDOF 6
ENDMDL
MODEL 4
REMARK VINA RESULT:      -7.4      3.743      7.801
REMARK  6 active torsions:
REMARK  status: ('A' for Active; 'I' for Inactive)
REMARK    1  A    between atoms: C_2  and  C_3 
REMARK    2  A    between atoms: C_4  and  C_3 
REMARK    3  A    between atoms: C_6  and  C_27 
REMARK    4  A    between atoms: C_7  and  C_19 
REMARK       I    between atoms: C_27  and  N_29 
REMARK    5  A    between atoms: C_30  and  N_29 
REMARK    6  A    between atoms: C_33  and  O_36 
ROOT
HETATM    1  C   UNK N   1      29.298  23.363  -5.459  0.00  0.00     0.101 C 
HETATM    2  N   UNK N   1      27.884  23.501  -5.100  0.00  0.00    -0.403 N 
HETATM    3  C   UNK N   1      27.142  23.738  -6.335  0.00  0.00     0.180 C 
HETATM    4  C   UNK N   1      27.980  23.426  -7.544  0.00  0.00     0.078 C 
HETATM    5  C   UNK N   1      29.359  23.049  -6.990  0.00  0.00     0.100 A 
HETATM    6  C   UNK N   1      30.488  23.779  -7.732  0.00  0.00     0.238 A 
HETATM    7  O   UNK N   1      30.629  24.996  -7.742  0.00  0.00    -0.272 OA
HETATM    8  N   UNK N   1      31.306  22.974  -8.424  0.00  0.00    -0.326 N 
HETATM    9  C   UNK N   1      30.836  21.678  -8.262  0.00  0.00     0.044 A 
HETATM   10  C   UNK N   1      29.754  21.633  -7.414  0.00  0.00    -0.011 A 
HETATM   11  C   UNK N   1      29.083  20.424  -7.193  0.00  0.00     0.012 A 
HETATM   12  C   UNK N   1      29.512  19.281  -7.896  0.00  0.00     0.024 A 
HETATM   13  C   UNK N   1      30.596  19.360  -8.797  0.00  0.00     0.036 A 
HETATM   14  C   UNK N   1      31.279  20.569  -8.973  0.00  0.00     0.054 A 
HETATM   15 Cl   UNK N   1      31.045  17.970  -9.764  0.00  0.00    -0.084 Cl
HETATM   16  H   UNK N   1      27.490  23.442  -4.161  0.00  0.00     0.154 HD
HETATM   17  H   UNK N   1      32.091  23.251  -8.949  0.00  0.00     0.169 HD
ENDROOT
BRANCH   3  18
HETATM   18  C   UNK N   1      26.435  25.051  -6.529  0.00  0.00     0.241 C 
HETATM   19  O   UNK N   1      25.374  25.045  -7.139  0.00  0.00    -0.271 OA
HETATM   20  N   UNK N   1      26.896  26.201  -5.975  0.00  0.00    -0.355 N 
HETATM   21  H   UNK N   1      27.727  26.166  -5.448  0.00  0.00     0.162 HD
BRANCH  20  22
HETATM   22  C   UNK N   1      26.221  27.488  -6.124  0.00  0.00     0.084 C 
HETATM   23  C   UNK N   1      27.237  28.617  -5.978  0.00  0.00     0.028 C 
HETATM   24  C   UNK N   1      27.798  28.660  -4.550  0.00  0.00     0.034 C 
HETATM   25  C   UNK N   1      26.688  28.792  -3.500  0.00  0.00     0.118 C 
HETATM   26  C   UNK N   1      25.641  27.698  -3.675  0.00  0.00     0.034 C 
HETATM   27  C   UNK N   1      25.093  27.718  -5.100  0.00  0.00     0.028 C 
BRANCH  25  28
HETATM   28  O   UNK N   1      26.083  30.048  -3.582  0.00  0.00    -0.396 OA
HETATM   29  H   UNK N   1      25.230  30.275  -3.982  0.00  0.00     0.210 HD
ENDBRANCH  25  28
ENDBRANCH  20  22
ENDBRANCH   3  18
BRANCH   4  30
HETATM   30  C   UNK N   1      27.201  22.453  -8.440  0.00  0.00    -0.010 A 
HETATM   31  C   UNK N   1      27.499  22.301  -9.807  0.00  0.00     0.144 A 
HETATM   32  C   UNK N   1      26.754  21.403 -10.591  0.00  0.00     0.073 A 
HETATM   33  F   UNK N   1      28.498  23.020 -10.375  0.00  0.00    -0.204 F 
HETATM   34  C   UNK N   1      25.712  20.665 -10.025  0.00  0.00     0.027 A 
HETATM   35 Cl   UNK N   1      27.112  21.194 -12.291  0.00  0.00    -0.081 Cl
HETATM   36  C   UNK N   1      25.404  20.812  -8.677  0.00  0.00     0.002 A 
HETATM   37  C   UNK N   1      26.140  21.695  -7.896  0.00  0.00     0.011 A 
ENDBRANCH   4  30
BRANCH   1  38
HETATM   38  C   UNK N   1      29.965  24.700  -5.066  0.00  0.00     0.034 C 
BRANCH  38  39
HETATM   39  C   UNK N   1      31.063  24.638  -3.994  0.00  0.00    -0.050 C 
HETATM   40  C   UNK N   1      31.140  25.996  -3.327  0.00  0.00     0.014 C 
HETATM   41  C   UNK N   1      30.776  23.607  -2.917  0.00  0.00     0.014 C 
HETATM   42  C   UNK N   1      32.406  24.340  -4.630  0.00  0.00     0.014 C 
ENDBRANCH  38  39
ENDBRANCH   1  38
TORSDOF 6
ENDMDL
MODEL 5
REMARK VINA RESULT:      -7.3     14.278     17.159
REMARK  6 active torsions:
REMARK  status: ('A' for Active; 'I' for Inactive)
REMARK    1  A    between atoms: C_2  and  C_3 
REMARK    2  A    between atoms: C_4  and  C_3 
REMARK    3  A    between atoms: C_6  and  C_27 
REMARK    4  A    between atoms: C_7  and  C_19 
REMARK       I    between atoms: C_27  and  N_29 
REMARK    5  A    between atoms: C_30  and  N_29 
REMARK    6  A    between atoms: C_33  and  O_36 
ROOT
HETATM    1  C   UNK N   1      30.040  14.121   4.863  0.00  0.00     0.101 C 
HETATM    2  N   UNK N   1      30.800  14.100   6.116  0.00  0.00    -0.403 N 
HETATM    3  C   UNK N   1      31.023  15.487   6.515  0.00  0.00     0.180 C 
HETATM    4  C   UNK N   1      30.141  16.426   5.739  0.00  0.00     0.078 C 
HETATM    5  C   UNK N   1      29.388  15.538   4.740  0.00  0.00     0.100 A 
HETATM    6  C   UNK N   1      29.428  16.120   3.320  0.00  0.00     0.238 A 
HETATM    7  O   UNK N   1      30.455  16.283   2.672  0.00  0.00    -0.272 OA
HETATM    8  N   UNK N   1      28.232  16.491   2.842  0.00  0.00    -0.326 N 
HETATM    9  C   UNK N   1      27.298  16.241   3.838  0.00  0.00     0.044 A 
HETATM   10  C   UNK N   1      27.876  15.649   4.937  0.00  0.00    -0.011 A 
HETATM   11  C   UNK N   1      27.112  15.398   6.084  0.00  0.00     0.012 A 
HETATM   12  C   UNK N   1      25.766  15.813   6.096  0.00  0.00     0.024 A 
HETATM   13  C   UNK N   1      25.205  16.460   4.973  0.00  0.00     0.036 A 
HETATM   14  C   UNK N   1      25.975  16.665   3.822  0.00  0.00     0.054 A 
HETATM   15 Cl   UNK N   1      23.572  17.087   5.039  0.00  0.00    -0.084 Cl
HETATM   16  H   UNK N   1      31.115  13.269   6.618  0.00  0.00     0.154 HD
HETATM   17  H   UNK N   1      28.051  16.871   1.952  0.00  0.00     0.169 HD
ENDROOT
BRANCH   3  18
HETATM   18  C   UNK N   1      32.427  16.024   6.559  0.00  0.00     0.241 C 
HETATM   19  O   UNK N   1      32.805  16.713   5.620  0.00  0.00    -0.271 OA
HETATM   20  N   UNK N   1      33.230  15.840   7.636  0.00  0.00    -0.355 N 
HETATM   21  H   UNK N   1      32.880  15.323   8.398  0.00  0.00     0.162 HD
BRANCH  20  22
HETATM   22  C   UNK N   1      34.589  16.369   7.721  0.00  0.00     0.084 C 
HETATM   23  C   UNK N   1      35.585  15.214   7.771  0.00  0.00     0.028 C 
HETATM   24  C   UNK N   1      35.422  14.412   9.070  0.00  0.00     0.034 C 
HETATM   25  C   UNK N   1      35.559  15.299  10.314  0.00  0.00     0.118 C 
HETATM   26  C   UNK N   1      34.605  16.486  10.244  0.00  0.00     0.034 C 
HETATM   27  C   UNK N   1      34.829  17.266   8.951  0.00  0.00     0.028 C 
BRANCH  25  28
HETATM   28  O   UNK N   1      36.873  15.753  10.449  0.00  0.00    -0.396 OA
HETATM   29  H   UNK N   1      37.517  15.524  11.136  0.00  0.00     0.210 HD
ENDBRANCH  25  28
ENDBRANCH  20  22
ENDBRANCH   3  18
BRANCH   4  30
HETATM   30  C   UNK N   1      29.377  17.312   6.733  0.00  0.00    -0.010 A 
HETATM   31  C   UNK N   1      28.713  18.484   6.325  0.00  0.00     0.144 A 
HETATM   32  C   UNK N   1      28.033  19.268   7.272  0.00  0.00     0.073 A 
HETATM   33  F   UNK N   1      28.732  18.865   5.024  0.00  0.00    -0.204 F 
HETATM   34  C   UNK N   1      28.017  18.898   8.618  0.00  0.00     0.027 A 
HETATM   35 Cl   UNK N   1      27.195  20.726   6.786  0.00  0.00    -0.081 Cl
HETATM   36  C   UNK N   1      28.675  17.746   9.034  0.00  0.00     0.002 A 
HETATM   37  C   UNK N   1      29.346  16.964   8.102  0.00  0.00     0.011 A 
ENDBRANCH   4  30
BRANCH   1  38
HETATM   38  C   UNK N   1      31.058  13.799   3.747  0.00  0.00     0.034 C 
BRANCH  38  39
HETATM   39  C   UNK N   1      30.783  12.550   2.898  0.00  0.00    -0.050 C 
HETATM   40  C   UNK N   1      30.037  11.554   3.762  0.00  0.00     0.014 C 
HETATM   41  C   UNK N   1      29.925  12.843   1.680  0.00  0.00     0.014 C 
HETATM   42  C   UNK N   1      32.087  11.916   2.454  0.00  0.00     0.014 C 
ENDBRANCH  38  39
ENDBRANCH   1  38
TORSDOF 6
ENDMDL
MODEL 6
REMARK VINA RESULT:      -7.1     13.964     15.888
REMARK  6 active torsions:
REMARK  status: ('A' for Active; 'I' for Inactive)
REMARK    1  A    between atoms: C_2  and  C_3 
REMARK    2  A    between atoms: C_4  and  C_3 
REMARK    3  A    between atoms: C_6  and  C_27 
REMARK    4  A    between atoms: C_7  and  C_19 
REMARK       I    between atoms: C_27  and  N_29 
REMARK    5  A    between atoms: C_30  and  N_29 
REMARK    6  A    between atoms: C_33  and  O_36 
ROOT
HETATM    1  C   UNK N   1      25.679  17.670   4.444  0.00  0.00     0.101 C 
HETATM    2  N   UNK N   1      26.355  17.601   3.146  0.00  0.00    -0.403 N 
HETATM    3  C   UNK N   1      26.503  16.189   2.805  0.00  0.00     0.180 C 
HETATM    4  C   UNK N   1      25.642  15.323   3.682  0.00  0.00     0.078 C 
HETATM    5  C   UNK N   1      24.988  16.286   4.681  0.00  0.00     0.100 A 
HETATM    6  C   UNK N   1      25.101  15.772   6.123  0.00  0.00     0.238 A 
HETATM    7  O   UNK N   1      26.161  15.602   6.712  0.00  0.00    -0.272 OA
HETATM    8  N   UNK N   1      23.926  15.470   6.695  0.00  0.00    -0.326 N 
HETATM    9  C   UNK N   1      22.939  15.708   5.749  0.00  0.00     0.044 A 
HETATM   10  C   UNK N   1      23.463  16.223   4.587  0.00  0.00    -0.011 A 
HETATM   11  C   UNK N   1      22.635  16.447   3.480  0.00  0.00     0.012 A 
HETATM   12  C   UNK N   1      21.277  16.084   3.575  0.00  0.00     0.024 A 
HETATM   13  C   UNK N   1      20.769  15.514   4.762  0.00  0.00     0.036 A 
HETATM   14  C   UNK N   1      21.605  15.336   5.871  0.00  0.00     0.054 A 
HETATM   15 Cl   UNK N   1      19.114  14.946   4.833  0.00  0.00    -0.084 Cl
HETATM   16  H   UNK N   1      26.666  18.394   2.584  0.00  0.00     0.154 HD
HETATM   17  H   UNK N   1      23.791  15.142   7.613  0.00  0.00     0.169 HD
ENDROOT
BRANCH   3  18
HETATM   18  C   UNK N   1      27.882  15.597   2.699  0.00  0.00     0.241 C 
HETATM   19  O   UNK N   1      28.079  14.759   1.830  0.00  0.00    -0.271 OA
HETATM   20  N   UNK N   1      28.909  16.032   3.472  0.00  0.00    -0.355 N 
HETATM   21  H   UNK N   1      28.731  16.743   4.129  0.00  0.00     0.162 HD
BRANCH  20  22
HETATM   22  C   UNK N   1      30.264  15.497   3.377  0.00  0.00     0.084 C 
HETATM   23  C   UNK N   1      30.596  14.719   4.648  0.00  0.00     0.028 C 
HETATM   24  C   UNK N   1      30.658  15.660   5.859  0.00  0.00     0.034 C 
HETATM   25  C   UNK N   1      31.657  16.805   5.648  0.00  0.00     0.118 C 
HETATM   26  C   UNK N   1      31.364  17.551   4.351  0.00  0.00     0.034 C 
HETATM   27  C   UNK N   1      31.345  16.577   3.176  0.00  0.00     0.028 C 
BRANCH  25  28
HETATM   28  O   UNK N   1      32.965  16.315   5.629  0.00  0.00    -0.396 OA
HETATM   29  H   UNK N   1      33.430  15.824   6.324  0.00  0.00     0.210 HD
ENDBRANCH  25  28
ENDBRANCH  20  22
ENDBRANCH   3  18
BRANCH   4  30
HETATM   30  C   UNK N   1      24.784  14.419   2.786  0.00  0.00    -0.010 A 
HETATM   31  C   UNK N   1      24.177  13.248   3.275  0.00  0.00     0.144 A 
HETATM   32  C   UNK N   1      23.406  12.447   2.415  0.00  0.00     0.073 A 
HETATM   33  F   UNK N   1      24.337  12.883   4.571  0.00  0.00    -0.204 F 
HETATM   34  C   UNK N   1      23.244  12.801   1.074  0.00  0.00     0.027 A 
HETATM   35 Cl   UNK N   1      22.637  10.989   3.004  0.00  0.00    -0.081 Cl
HETATM   36  C   UNK N   1      23.845  13.952   0.578  0.00  0.00     0.002 A 
HETATM   37  C   UNK N   1      24.605  14.750   1.424  0.00  0.00     0.011 A 
ENDBRANCH   4  30
BRANCH   1  38
HETATM   38  C   UNK N   1      26.779  18.006   5.475  0.00  0.00     0.034 C 
BRANCH  38  39
HETATM   39  C   UNK N   1      27.179  19.483   5.605  0.00  0.00    -0.050 C 
HETATM   40  C   UNK N   1      27.722  19.698   7.003  0.00  0.00     0.014 C 
HETATM   41  C   UNK N   1      28.261  19.888   4.619  0.00  0.00     0.014 C 
HETATM   42  C   UNK N   1      25.969  20.376   5.418  0.00  0.00     0.014 C 
ENDBRANCH  38  39
ENDBRANCH   1  38
TORSDOF 6
ENDMDL
MODEL 7
REMARK VINA RESULT:      -7.0     13.949     16.509
REMARK  6 active torsions:
REMARK  status: ('A' for Active; 'I' for Inactive)
REMARK    1  A    between atoms: C_2  and  C_3 
REMARK    2  A    between atoms: C_4  and  C_3 
REMARK    3  A    between atoms: C_6  and  C_27 
REMARK    4  A    between atoms: C_7  and  C_19 
REMARK       I    between atoms: C_27  and  N_29 
REMARK    5  A    between atoms: C_30  and  N_29 
REMARK    6  A    between atoms: C_33  and  O_36 
ROOT
HETATM    1  C   UNK N   1      28.169  17.155   3.776  0.00  0.00     0.101 C 
HETATM    2  N   UNK N   1      29.379  17.089   2.952  0.00  0.00    -0.403 N 
HETATM    3  C   UNK N   1      29.986  15.779   3.171  0.00  0.00     0.180 C 
HETATM    4  C   UNK N   1      29.031  14.844   3.861  0.00  0.00     0.078 C 
HETATM    5  C   UNK N   1      27.782  15.685   4.149  0.00  0.00     0.100 A 
HETATM    6  C   UNK N   1      27.305  15.516   5.599  0.00  0.00     0.238 A 
HETATM    7  O   UNK N   1      27.963  15.836   6.581  0.00  0.00    -0.272 OA
HETATM    8  N   UNK N   1      26.103  14.935   5.720  0.00  0.00    -0.326 N 
HETATM    9  C   UNK N   1      25.662  14.638   4.439  0.00  0.00     0.044 A 
HETATM   10  C   UNK N   1      26.546  15.081   3.482  0.00  0.00    -0.011 A 
HETATM   11  C   UNK N   1      26.320  14.796   2.130  0.00  0.00     0.012 A 
HETATM   12  C   UNK N   1      25.204  14.008   1.788  0.00  0.00     0.024 A 
HETATM   13  C   UNK N   1      24.334  13.525   2.790  0.00  0.00     0.036 A 
HETATM   14  C   UNK N   1      24.555  13.855   4.132  0.00  0.00     0.054 A 
HETATM   15 Cl   UNK N   1      23.023  12.441   2.375  0.00  0.00    -0.084 Cl
HETATM   16  H   UNK N   1      29.732  17.823   2.337  0.00  0.00     0.154 HD
HETATM   17  H   UNK N   1      25.624  14.754   6.561  0.00  0.00     0.169 HD
ENDROOT
BRANCH   3  18
HETATM   18  C   UNK N   1      31.341  15.694   3.818  0.00  0.00     0.241 C 
HETATM   19  O   UNK N   1      32.285  15.340   3.125  0.00  0.00    -0.271 OA
HETATM   20  N   UNK N   1      31.546  16.082   5.102  0.00  0.00    -0.355 N 
HETATM   21  H   UNK N   1      30.776  16.410   5.621  0.00  0.00     0.162 HD
BRANCH  20  22
HETATM   22  C   UNK N   1      32.853  16.036   5.753  0.00  0.00     0.084 C 
HETATM   23  C   UNK N   1      32.871  14.909   6.782  0.00  0.00     0.028 C 
HETATM   24  C   UNK N   1      31.900  15.210   7.932  0.00  0.00     0.034 C 
HETATM   25  C   UNK N   1      32.198  16.559   8.600  0.00  0.00     0.118 C 
HETATM   26  C   UNK N   1      32.235  17.680   7.568  0.00  0.00     0.034 C 
HETATM   27  C   UNK N   1      33.237  17.347   6.466  0.00  0.00     0.028 C 
BRANCH  25  28
HETATM   28  O   UNK N   1      33.412  16.506   9.289  0.00  0.00    -0.396 OA
HETATM   29  H   UNK N   1      33.700  15.851   9.943  0.00  0.00     0.210 HD
ENDBRANCH  25  28
ENDBRANCH  20  22
ENDBRANCH   3  18
BRANCH   4  30
HETATM   30  C   UNK N   1      28.935  13.551   3.040  0.00  0.00    -0.010 A 
HETATM   31  C   UNK N   1      28.466  12.348   3.600  0.00  0.00     0.144 A 
HETATM   32  C   UNK N   1      28.402  11.187   2.811  0.00  0.00     0.073 A 
HETATM   33  F   UNK N   1      28.081  12.301   4.899  0.00  0.00    -0.204 F 
HETATM   34  C   UNK N   1      28.808  11.215   1.475  0.00  0.00     0.027 A 
HETATM   35 Cl   UNK N   1      27.816   9.682   3.486  0.00  0.00    -0.081 Cl
HETATM   36  C   UNK N   1      29.279  12.395   0.913  0.00  0.00     0.002 A 
HETATM   37  C   UNK N   1      29.341  13.548   1.687  0.00  0.00     0.011 A 
ENDBRANCH   4  30
BRANCH   1  38
HETATM   38  C   UNK N   1      28.535  18.035   4.992  0.00  0.00     0.034 C 
BRANCH  38  39
HETATM   39  C   UNK N   1      27.559  19.166   5.347  0.00  0.00    -0.050 C 
HETATM   40  C   UNK N   1      27.912  20.370   4.497  0.00  0.00     0.014 C 
HETATM   41  C   UNK N   1      26.112  18.805   5.063  0.00  0.00     0.014 C 
HETATM   42  C   UNK N   1      27.705  19.551   6.806  0.00  0.00     0.014 C 
ENDBRANCH  38  39
ENDBRANCH   1  38
TORSDOF 6
ENDMDL
MODEL 8
REMARK VINA RESULT:      -7.0     20.855     24.538
REMARK  6 active torsions:
REMARK  status: ('A' for Active; 'I' for Inactive)
REMARK    1  A    between atoms: C_2  and  C_3 
REMARK    2  A    between atoms: C_4  and  C_3 
REMARK    3  A    between atoms: C_6  and  C_27 
REMARK    4  A    between atoms: C_7  and  C_19 
REMARK       I    between atoms: C_27  and  N_29 
REMARK    5  A    between atoms: C_30  and  N_29 
REMARK    6  A    between atoms: C_33  and  O_36 
ROOT
HETATM    1  C   UNK N   1      37.627  12.945  10.446  0.00  0.00     0.101 C 
HETATM    2  N   UNK N   1      37.020  14.183  10.943  0.00  0.00    -0.403 N 
HETATM    3  C   UNK N   1      35.685  13.849  11.432  0.00  0.00     0.180 C 
HETATM    4  C   UNK N   1      35.515  12.363  11.582  0.00  0.00     0.078 C 
HETATM    5  C   UNK N   1      36.825  11.754  11.067  0.00  0.00     0.100 A 
HETATM    6  C   UNK N   1      36.568  10.599  10.089  0.00  0.00     0.238 A 
HETATM    7  O   UNK N   1      35.997  10.723   9.012  0.00  0.00    -0.272 OA
HETATM    8  N   UNK N   1      36.985   9.402  10.527  0.00  0.00    -0.326 N 
HETATM    9  C   UNK N   1      37.519   9.593  11.793  0.00  0.00     0.044 A 
HETATM   10  C   UNK N   1      37.508  10.921  12.152  0.00  0.00    -0.011 A 
HETATM   11  C   UNK N   1      37.926  11.307  13.432  0.00  0.00     0.012 A 
HETATM   12  C   UNK N   1      38.302  10.302  14.345  0.00  0.00     0.024 A 
HETATM   13  C   UNK N   1      38.261   8.942  13.971  0.00  0.00     0.036 A 
HETATM   14  C   UNK N   1      37.879   8.580  12.673  0.00  0.00     0.054 A 
HETATM   15 Cl   UNK N   1      38.605   7.690  15.146  0.00  0.00    -0.084 Cl
HETATM   16  H   UNK N   1      37.451  15.108  10.949  0.00  0.00     0.154 HD
HETATM   17  H   UNK N   1      36.922   8.548  10.040  0.00  0.00     0.169 HD
ENDROOT
BRANCH   3  18
HETATM   18  C   UNK N   1      34.482  14.433  10.744  0.00  0.00     0.241 C 
HETATM   19  O   UNK N   1      33.592  14.897  11.444  0.00  0.00    -0.271 OA
HETATM   20  N   UNK N   1      34.410  14.536   9.393  0.00  0.00    -0.355 N 
HETATM   21  H   UNK N   1      35.164  14.199   8.857  0.00  0.00     0.162 HD
BRANCH  20  22
HETATM   22  C   UNK N   1      33.267  15.120   8.695  0.00  0.00     0.084 C 
HETATM   23  C   UNK N   1      33.244  14.626   7.251  0.00  0.00     0.028 C 
HETATM   24  C   UNK N   1      34.458  15.158   6.476  0.00  0.00     0.034 C 
HETATM   25  C   UNK N   1      34.545  16.689   6.524  0.00  0.00     0.118 C 
HETATM   26  C   UNK N   1      34.513  17.192   7.963  0.00  0.00     0.034 C 
HETATM   27  C   UNK N   1      33.273  16.661   8.678  0.00  0.00     0.028 C 
BRANCH  25  28
HETATM   28  O   UNK N   1      33.498  17.261   5.797  0.00  0.00    -0.396 OA
HETATM   29  H   UNK N   1      33.502  17.555   4.873  0.00  0.00     0.210 HD
ENDBRANCH  25  28
ENDBRANCH  20  22
ENDBRANCH   3  18
BRANCH   4  30
HETATM   30  C   UNK N   1      35.019  12.069  13.005  0.00  0.00    -0.010 A 
HETATM   31  C   UNK N   1      35.343  12.901  14.092  0.00  0.00     0.144 A 
HETATM   32  C   UNK N   1      34.872  12.589  15.378  0.00  0.00     0.073 A 
HETATM   33  F   UNK N   1      36.113  14.001  13.907  0.00  0.00    -0.204 F 
HETATM   34  C   UNK N   1      34.090  11.451  15.589  0.00  0.00     0.027 A 
HETATM   35 Cl   UNK N   1      35.258  13.613  16.743  0.00  0.00    -0.081 Cl
HETATM   36  C   UNK N   1      33.769  10.617  14.524  0.00  0.00     0.002 A 
HETATM   37  C   UNK N   1      34.228  10.924  13.249  0.00  0.00     0.011 A 
ENDBRANCH   4  30
BRANCH   1  38
HETATM   38  C   UNK N   1      37.541  13.023   8.905  0.00  0.00     0.034 C 
BRANCH  38  39
HETATM   39  C   UNK N   1      38.832  12.739   8.125  0.00  0.00    -0.050 C 
HETATM   40  C   UNK N   1      39.829  12.118   9.082  0.00  0.00     0.014 C 
HETATM   41  C   UNK N   1      38.624  11.768   6.976  0.00  0.00     0.014 C 
HETATM   42  C   UNK N   1      39.422  14.030   7.591  0.00  0.00     0.014 C 
ENDBRANCH  38  39
ENDBRANCH   1  38
TORSDOF 6
ENDMDL
MODEL 9
REMARK VINA RESULT:      -6.9     21.418     24.726
REMARK  6 active torsions:
REMARK  status: ('A' for Active; 'I' for Inactive)
REMARK    1  A    between atoms: C_2  and  C_3 
REMARK    2  A    between atoms: C_4  and  C_3 
REMARK    3  A    between atoms: C_6  and  C_27 
REMARK    4  A    between atoms: C_7  and  C_19 
REMARK       I    between atoms: C_27  and  N_29 
REMARK    5  A    between atoms: C_30  and  N_29 
REMARK    6  A    between atoms: C_33  and  O_36 
ROOT
HETATM    1  C   UNK N   1      34.654  12.857  10.494  0.00  0.00     0.101 C 
HETATM    2  N   UNK N   1      34.389  11.609   9.773  0.00  0.00    -0.403 N 
HETATM    3  C   UNK N   1      35.485  10.692  10.071  0.00  0.00     0.180 C 
HETATM    4  C   UNK N   1      36.301  11.176  11.237  0.00  0.00     0.078 C 
HETATM    5  C   UNK N   1      35.692  12.531  11.618  0.00  0.00     0.100 A 
HETATM    6  C   UNK N   1      36.772  13.607  11.800  0.00  0.00     0.238 A 
HETATM    7  O   UNK N   1      37.515  13.994  10.906  0.00  0.00    -0.272 OA
HETATM    8  N   UNK N   1      36.878  14.077  13.051  0.00  0.00    -0.326 N 
HETATM    9  C   UNK N   1      35.951  13.393  13.824  0.00  0.00     0.044 A 
HETATM   10  C   UNK N   1      35.200  12.526  13.066  0.00  0.00    -0.011 A 
HETATM   11  C   UNK N   1      34.269  11.679  13.680  0.00  0.00     0.012 A 
HETATM   12  C   UNK N   1      34.165  11.705  15.085  0.00  0.00     0.024 A 
HETATM   13  C   UNK N   1      34.978  12.570  15.848  0.00  0.00     0.036 A 
HETATM   14  C   UNK N   1      35.874  13.438  15.211  0.00  0.00     0.054 A 
HETATM   15 Cl   UNK N   1      34.938  12.508  17.597  0.00  0.00    -0.084 Cl
HETATM   16  H   UNK N   1      33.586  11.415   9.174  0.00  0.00     0.154 HD
HETATM   17  H   UNK N   1      37.498  14.777  13.362  0.00  0.00     0.169 HD
ENDROOT
BRANCH   3  18
HETATM   18  C   UNK N   1      36.398  10.249   8.960  0.00  0.00     0.241 C 
HETATM   19  O   UNK N   1      35.988   9.389   8.191  0.00  0.00    -0.271 OA
HETATM   20  N   UNK N   1      37.601  10.838   8.744  0.00  0.00    -0.355 N 
HETATM   21  H   UNK N   1      37.882  11.562   9.349  0.00  0.00     0.162 HD
BRANCH  20  22
HETATM   22  C   UNK N   1      38.499  10.450   7.660  0.00  0.00     0.084 C 
HETATM   23  C   UNK N   1      39.915  10.281   8.206  0.00  0.00     0.028 C 
HETATM   24  C   UNK N   1      40.476  11.629   8.682  0.00  0.00     0.034 C 
HETATM   25  C   UNK N   1      40.445  12.689   7.573  0.00  0.00     0.118 C 
HETATM   26  C   UNK N   1      39.045  12.822   6.986  0.00  0.00     0.034 C 
HETATM   27  C   UNK N   1      38.547  11.463   6.501  0.00  0.00     0.028 C 
BRANCH  25  28
HETATM   28  O   UNK N   1      41.355  12.368   6.564  0.00  0.00    -0.396 OA
HETATM   29  H   UNK N   1      42.251  12.009   6.657  0.00  0.00     0.210 HD
ENDBRANCH  25  28
ENDBRANCH  20  22
ENDBRANCH   3  18
BRANCH   4  30
HETATM   30  C   UNK N   1      36.400  10.043  12.268  0.00  0.00    -0.010 A 
HETATM   31  C   UNK N   1      37.392  10.031  13.267  0.00  0.00     0.144 A 
HETATM   32  C   UNK N   1      37.449   8.969  14.184  0.00  0.00     0.073 A 
HETATM   33  F   UNK N   1      38.298  11.036  13.344  0.00  0.00    -0.204 F 
HETATM   34  C   UNK N   1      36.533   7.918  14.109  0.00  0.00     0.027 A 
HETATM   35 Cl   UNK N   1      38.670   8.937  15.437  0.00  0.00    -0.081 Cl
HETATM   36  C   UNK N   1      35.553   7.915  13.122  0.00  0.00     0.002 A 
HETATM   37  C   UNK N   1      35.489   8.965  12.215  0.00  0.00     0.011 A 
ENDBRANCH   4  30
BRANCH   1  38
HETATM   38  C   UNK N   1      35.171  13.854   9.433  0.00  0.00     0.034 C 
BRANCH  38  39
HETATM   39  C   UNK N   1      34.359  15.143   9.241  0.00  0.00    -0.050 C 
HETATM   40  C   UNK N   1      34.563  15.615   7.816  0.00  0.00     0.014 C 
HETATM   41  C   UNK N   1      32.869  14.938   9.453  0.00  0.00     0.014 C 
HETATM   42  C   UNK N   1      34.855  16.225  10.180  0.00  0.00     0.014 C 
ENDBRANCH  38  39
ENDBRANCH   1  38
TORSDOF 6
ENDMDL
