MODEL 1
REMARK VINA RESULT:      -8.5      0.000      0.000
REMARK  7 active torsions:
REMARK  status: ('A' for Active; 'I' for Inactive)
REMARK    1  A    between atoms: C_2  and  C_3 
REMARK    2  A    between atoms: C_2  and  N_13 
REMARK    3  A    between atoms: C_14  and  N_13 
REMARK    4  A    between atoms: N_17  and  C_19 
REMARK    5  A    between atoms: C_22  and  C_25 
REMARK    6  A    between atoms: C_25  and  C_26 
REMARK    7  A    between atoms: C_26  and  O_28 
ROOT
HETATM    1  C   UNK N   1      36.260  11.591  13.212  0.00  0.00     0.096 C 
HETATM    2  C   UNK N   1      37.010  10.899  12.074  0.00  0.00     0.046 C 
HETATM    3  C   UNK N   1      37.249  11.998  11.044  0.00  0.00     0.125 C 
HETATM    4  N   UNK N   1      36.866  13.215  11.712  0.00  0.00    -0.379 N 
HETATM    5  C   UNK N   1      36.656  13.047  13.116  0.00  0.00     0.147 C 
ENDROOT
BRANCH   1   6
HETATM    6  N   UNK N   1      36.505  11.006  14.534  0.00  0.00    -0.408 N 
HETATM    7  H   UNK N   1      37.430  10.787  14.905  0.00  0.00     0.154 HD
BRANCH   6   8
HETATM    8  C   UNK N   1      35.252  10.779  15.253  0.00  0.00     0.107 C 
HETATM    9  C   UNK N   1      34.079  11.116  14.335  0.00  0.00     0.037 C 
BRANCH   8  10
HETATM   10  C   UNK N   1      35.237  11.551  16.561  0.00  0.00    -0.025 A 
HETATM   11  C   UNK N   1      35.262  12.957  16.545  0.00  0.00     0.010 A 
HETATM   12  C   UNK N   1      35.232  13.691  17.730  0.00  0.00     0.002 A 
HETATM   13  C   UNK N   1      35.173  13.036  18.959  0.00  0.00     0.012 A 
HETATM   14  C   UNK N   1      35.146  11.642  19.009  0.00  0.00    -0.025 A 
HETATM   15  C   UNK N   1      35.178  10.885  17.812  0.00  0.00    -0.018 A 
HETATM   16  C   UNK N   1      35.084  10.996  20.248  0.00  0.00     0.012 A 
HETATM   17  C   UNK N   1      35.144   9.485  17.896  0.00  0.00     0.013 A 
HETATM   18  C   UNK N   1      35.085   8.847  19.137  0.00  0.00     0.001 A 
HETATM   19  C   UNK N   1      35.055   9.601  20.311  0.00  0.00     0.001 A 
ENDBRANCH   8  10
ENDBRANCH   6   8
ENDBRANCH   1   6
BRANCH   4  20
HETATM   20  C   UNK N   1      36.193  14.253  11.009  0.00  0.00     0.030 A 
HETATM   21  C   UNK N   1      35.673  14.031   9.726  0.00  0.00     0.030 A 
HETATM   22  C   UNK N   1      34.944  15.030   9.076  0.00  0.00     0.010 A 
HETATM   23  C   UNK N   1      34.727  16.265   9.696  0.00  0.00    -0.048 A 
HETATM   24  C   UNK N   1      35.257  16.491  10.974  0.00  0.00     0.010 A 
HETATM   25  C   UNK N   1      35.983  15.497  11.624  0.00  0.00     0.030 A 
BRANCH  23  26
HETATM   26  C   UNK N   1      33.893  17.290   8.973  0.00  0.00     0.148 C 
BRANCH  26  27
HETATM   27  C   UNK N   1      34.585  18.275   8.062  0.00  0.00     0.143 C 
HETATM   28  O   UNK N   1      34.483  18.132   6.855  0.00  0.00    -0.650 OA
BRANCH  27  29
HETATM   29  O   UNK N   1      35.339  19.282   8.543  0.00  0.00    -0.776 OA
HETATM   30  H   UNK N   1      35.158  19.666   9.379  0.00  0.00     0.167 HD
ENDBRANCH  27  29
ENDBRANCH  26  27
ENDBRANCH  23  26
ENDBRANCH   4  20
TORSDOF 7
ENDMDL
MODEL 2
REMARK VINA RESULT:      -8.3     10.251     14.304
REMARK  7 active torsions:
REMARK  status: ('A' for Active; 'I' for Inactive)
REMARK    1  A    between atoms: C_2  and  C_3 
REMARK    2  A    between atoms: C_2  and  N_13 
REMARK    3  A    between atoms: C_14  and  N_13 
REMARK    4  A    between atoms: N_17  and  C_19 
REMARK    5  A    between atoms: C_22  and  C_25 
REMARK    6  A    between atoms: C_25  and  C_26 
REMARK    7  A    between atoms: C_26  and  O_28 
ROOT
HETATM    1  C   UNK N   1      27.205  18.343   6.239  0.00  0.00     0.096 C 
HETATM    2  C   UNK N   1      27.065  16.889   5.791  0.00  0.00     0.046 C 
HETATM    3  C   UNK N   1      26.080  16.935   4.627  0.00  0.00     0.125 C 
HETATM    4  N   UNK N   1      25.914  18.337   4.343  0.00  0.00    -0.379 N 
HETATM    5  C   UNK N   1      26.865  19.166   5.016  0.00  0.00     0.147 C 
ENDROOT
BRANCH   1   6
HETATM    6  N   UNK N   1      28.511  18.670   6.817  0.00  0.00    -0.408 N 
HETATM    7  H   UNK N   1      28.940  19.595   6.786  0.00  0.00     0.154 HD
BRANCH   6   8
HETATM    8  C   UNK N   1      29.119  17.498   7.447  0.00  0.00     0.107 C 
HETATM    9  C   UNK N   1      28.632  17.395   8.890  0.00  0.00     0.037 C 
BRANCH   8  10
HETATM   10  C   UNK N   1      30.632  17.547   7.322  0.00  0.00    -0.025 A 
HETATM   11  C   UNK N   1      31.422  17.802   8.458  0.00  0.00     0.010 A 
HETATM   12  C   UNK N   1      32.813  17.835   8.374  0.00  0.00     0.002 A 
HETATM   13  C   UNK N   1      33.448  17.611   7.154  0.00  0.00     0.012 A 
HETATM   14  C   UNK N   1      32.693  17.355   6.009  0.00  0.00    -0.025 A 
HETATM   15  C   UNK N   1      31.279  17.320   6.080  0.00  0.00    -0.018 A 
HETATM   16  C   UNK N   1      33.342  17.129   4.791  0.00  0.00     0.012 A 
HETATM   17  C   UNK N   1      30.549  17.054   4.911  0.00  0.00     0.013 A 
HETATM   18  C   UNK N   1      31.205  16.832   3.698  0.00  0.00     0.001 A 
HETATM   19  C   UNK N   1      32.599  16.869   3.638  0.00  0.00     0.001 A 
ENDBRANCH   8  10
ENDBRANCH   6   8
ENDBRANCH   1   6
BRANCH   4  20
HETATM   20  C   UNK N   1      24.644  18.863   3.976  0.00  0.00     0.030 A 
HETATM   21  C   UNK N   1      24.544  20.069   3.268  0.00  0.00     0.030 A 
HETATM   22  C   UNK N   1      23.298  20.536   2.841  0.00  0.00     0.010 A 
HETATM   23  C   UNK N   1      22.136  19.807   3.118  0.00  0.00    -0.048 A 
HETATM   24  C   UNK N   1      22.236  18.608   3.836  0.00  0.00     0.010 A 
HETATM   25  C   UNK N   1      23.476  18.140   4.262  0.00  0.00     0.030 A 
BRANCH  23  26
HETATM   26  C   UNK N   1      20.824  20.330   2.594  0.00  0.00     0.148 C 
BRANCH  26  27
HETATM   27  C   UNK N   1      20.730  20.726   1.141  0.00  0.00     0.143 C 
HETATM   28  O   UNK N   1      20.699  21.910   0.854  0.00  0.00    -0.650 OA
BRANCH  27  29
HETATM   29  O   UNK N   1      20.643  19.809   0.158  0.00  0.00    -0.776 OA
HETATM   30  H   UNK N   1      21.315  19.728  -0.490  0.00  0.00     0.167 HD
ENDBRANCH  27  29
ENDBRANCH  26  27
ENDBRANCH  23  26
ENDBRANCH   4  20
TORSDOF 7
ENDMDL
MODEL 3
REMARK VINA RESULT:      -8.2     10.329     14.088
REMARK  7 active torsions:
REMARK  status: ('A' for Active; 'I' for Inactive)
REMARK    1  A    between atoms: C_2  and  C_3 
REMARK    2  A    between atoms: C_2  and  N_13 
REMARK    3  A    between atoms: C_14  and  N_13 
REMARK    4  A    between atoms: N_17  and  C_19 
REMARK    5  A    between atoms: C_22  and  C_25 
REMARK    6  A    between atoms: C_25  and  C_26 
REMARK    7  A    between atoms: C_26  and  O_28 
ROOT
HETATM    1  C   UNK N   1      27.236  17.077   4.585  0.00  0.00     0.096 C 
HETATM    2  C   UNK N   1      28.112  18.276   4.226  0.00  0.00     0.046 C 
HETATM    3  C   UNK N   1      27.139  19.443   4.098  0.00  0.00     0.125 C 
HETATM    4  N   UNK N   1      25.887  18.931   4.593  0.00  0.00    -0.379 N 
HETATM    5  C   UNK N   1      26.014  17.668   5.252  0.00  0.00     0.147 C 
ENDROOT
BRANCH   1   6
HETATM    6  N   UNK N   1      27.911  16.063   5.400  0.00  0.00    -0.408 N 
HETATM    7  H   UNK N   1      27.430  15.351   5.949  0.00  0.00     0.154 HD
BRANCH   6   8
HETATM    8  C   UNK N   1      29.365  16.204   5.322  0.00  0.00     0.107 C 
HETATM    9  C   UNK N   1      29.984  14.846   5.001  0.00  0.00     0.037 C 
BRANCH   8  10
HETATM   10  C   UNK N   1      29.912  16.832   6.592  0.00  0.00    -0.025 A 
HETATM   11  C   UNK N   1      29.054  17.070   7.681  0.00  0.00     0.010 A 
HETATM   12  C   UNK N   1      29.533  17.630   8.865  0.00  0.00     0.002 A 
HETATM   13  C   UNK N   1      30.880  17.962   8.989  0.00  0.00     0.012 A 
HETATM   14  C   UNK N   1      31.757  17.738   7.927  0.00  0.00    -0.025 A 
HETATM   15  C   UNK N   1      31.283  17.171   6.718  0.00  0.00    -0.018 A 
HETATM   16  C   UNK N   1      33.108  18.072   8.065  0.00  0.00     0.012 A 
HETATM   17  C   UNK N   1      32.192  16.953   5.671  0.00  0.00     0.013 A 
HETATM   18  C   UNK N   1      33.539  17.293   5.815  0.00  0.00     0.001 A 
HETATM   19  C   UNK N   1      33.997  17.851   7.010  0.00  0.00     0.001 A 
ENDBRANCH   8  10
ENDBRANCH   6   8
ENDBRANCH   1   6
BRANCH   4  20
HETATM   20  C   UNK N   1      24.655  19.296   3.981  0.00  0.00     0.030 A 
HETATM   21  C   UNK N   1      23.481  18.577   4.246  0.00  0.00     0.030 A 
HETATM   22  C   UNK N   1      22.262  18.991   3.704  0.00  0.00     0.010 A 
HETATM   23  C   UNK N   1      22.199  20.125   2.888  0.00  0.00    -0.048 A 
HETATM   24  C   UNK N   1      23.375  20.836   2.613  0.00  0.00     0.010 A 
HETATM   25  C   UNK N   1      24.591  20.426   3.152  0.00  0.00     0.030 A 
BRANCH  23  26
HETATM   26  C   UNK N   1      20.852  20.556   2.368  0.00  0.00     0.148 C 
BRANCH  26  27
HETATM   27  C   UNK N   1      20.770  21.180   0.996  0.00  0.00     0.143 C 
HETATM   28  O   UNK N   1      21.097  20.517   0.027  0.00  0.00    -0.650 OA
BRANCH  27  29
HETATM   29  O   UNK N   1      20.382  22.458   0.817  0.00  0.00    -0.776 OA
HETATM   30  H   UNK N   1      19.625  22.799   1.252  0.00  0.00     0.167 HD
ENDBRANCH  27  29
ENDBRANCH  26  27
ENDBRANCH  23  26
ENDBRANCH   4  20
TORSDOF 7
ENDMDL
MODEL 4
REMARK VINA RESULT:      -8.1      6.865     11.805
REMARK  7 active torsions:
REMARK  status: ('A' for Active; 'I' for Inactive)
REMARK    1  A    between atoms: C_2  and  C_3 
REMARK    2  A    between atoms: C_2  and  N_13 
REMARK    3  A    between atoms: C_14  and  N_13 
REMARK    4  A    between atoms: N_17  and  C_19 
REMARK    5  A    between atoms: C_22  and  C_25 
REMARK    6  A    between atoms: C_25  and  C_26 
REMARK    7  A    between atoms: C_26  and  O_28 
ROOT
HETATM    1  C   UNK N   1      30.858  16.866   3.812  0.00  0.00     0.096 C 
HETATM    2  C   UNK N   1      32.139  16.914   2.979  0.00  0.00     0.046 C 
HETATM    3  C   UNK N   1      33.161  16.131   3.797  0.00  0.00     0.125 C 
HETATM    4  N   UNK N   1      32.395  15.521   4.854  0.00  0.00    -0.379 N 
HETATM    5  C   UNK N   1      30.983  15.617   4.656  0.00  0.00     0.147 C 
ENDROOT
BRANCH   1   6
HETATM    6  N   UNK N   1      29.625  16.914   3.020  0.00  0.00    -0.408 N 
HETATM    7  H   UNK N   1      29.594  17.060   2.011  0.00  0.00     0.154 HD
BRANCH   6   8
HETATM    8  C   UNK N   1      28.446  16.723   3.864  0.00  0.00     0.107 C 
HETATM    9  C   UNK N   1      27.318  16.131   3.024  0.00  0.00     0.037 C 
BRANCH   8  10
HETATM   10  C   UNK N   1      28.067  18.020   4.557  0.00  0.00    -0.025 A 
HETATM   11  C   UNK N   1      27.573  19.099   3.802  0.00  0.00     0.010 A 
HETATM   12  C   UNK N   1      27.201  20.295   4.414  0.00  0.00     0.002 A 
HETATM   13  C   UNK N   1      27.312  20.440   5.796  0.00  0.00     0.012 A 
HETATM   14  C   UNK N   1      27.798  19.388   6.573  0.00  0.00    -0.025 A 
HETATM   15  C   UNK N   1      28.181  18.168   5.963  0.00  0.00    -0.018 A 
HETATM   16  C   UNK N   1      27.902  19.545   7.959  0.00  0.00     0.012 A 
HETATM   17  C   UNK N   1      28.660  17.128   6.774  0.00  0.00     0.013 A 
HETATM   18  C   UNK N   1      28.764  17.293   8.157  0.00  0.00     0.001 A 
HETATM   19  C   UNK N   1      28.385  18.499   8.749  0.00  0.00     0.001 A 
ENDBRANCH   8  10
ENDBRANCH   6   8
ENDBRANCH   1   6
BRANCH   4  20
HETATM   20  C   UNK N   1      32.925  15.412   6.170  0.00  0.00     0.030 A 
HETATM   21  C   UNK N   1      34.275  15.092   6.375  0.00  0.00     0.030 A 
HETATM   22  C   UNK N   1      34.805  15.066   7.668  0.00  0.00     0.010 A 
HETATM   23  C   UNK N   1      33.995  15.354   8.771  0.00  0.00    -0.048 A 
HETATM   24  C   UNK N   1      32.643  15.661   8.566  0.00  0.00     0.010 A 
HETATM   25  C   UNK N   1      32.113  15.688   7.280  0.00  0.00     0.030 A 
BRANCH  23  26
HETATM   26  C   UNK N   1      34.628  15.359  10.139  0.00  0.00     0.148 C 
BRANCH  26  27
HETATM   27  C   UNK N   1      35.688  16.389  10.443  0.00  0.00     0.143 C 
HETATM   28  O   UNK N   1      35.453  17.562  10.210  0.00  0.00    -0.650 OA
BRANCH  27  29
HETATM   29  O   UNK N   1      36.896  16.044  10.930  0.00  0.00    -0.776 OA
HETATM   30  H   UNK N   1      37.675  16.171  10.426  0.00  0.00     0.167 HD
ENDBRANCH  27  29
ENDBRANCH  26  27
ENDBRANCH  23  26
ENDBRANCH   4  20
TORSDOF 7
ENDMDL
MODEL 5
REMARK VINA RESULT:      -8.1      1.521      2.950
REMARK  7 active torsions:
REMARK  status: ('A' for Active; 'I' for Inactive)
REMARK    1  A    between atoms: C_2  and  C_3 
REMARK    2  A    between atoms: C_2  and  N_13 
REMARK    3  A    between atoms: C_14  and  N_13 
REMARK    4  A    between atoms: N_17  and  C_19 
REMARK    5  A    between atoms: C_22  and  C_25 
REMARK    6  A    between atoms: C_25  and  C_26 
REMARK    7  A    between atoms: C_26  and  O_28 
ROOT
HETATM    1  C   UNK N   1      34.675  11.536  13.154  0.00  0.00     0.096 C 
HETATM    2  C   UNK N   1      35.263  10.640  12.064  0.00  0.00     0.046 C 
HETATM    3  C   UNK N   1      35.697  11.603  10.963  0.00  0.00     0.125 C 
HETATM    4  N   UNK N   1      35.563  12.912  11.549  0.00  0.00    -0.379 N 
HETATM    5  C   UNK N   1      35.342  12.880  12.961  0.00  0.00     0.147 C 
ENDROOT
BRANCH   1   6
HETATM    6  N   UNK N   1      34.820  11.003  14.511  0.00  0.00    -0.408 N 
HETATM    7  H   UNK N   1      34.135  10.404  14.972  0.00  0.00     0.154 HD
BRANCH   6   8
HETATM    8  C   UNK N   1      36.076  11.441  15.121  0.00  0.00     0.107 C 
HETATM    9  C   UNK N   1      36.978  10.229  15.338  0.00  0.00     0.037 C 
BRANCH   8  10
HETATM   10  C   UNK N   1      35.809  12.231  16.390  0.00  0.00    -0.025 A 
HETATM   11  C   UNK N   1      35.154  11.617  17.473  0.00  0.00     0.010 A 
HETATM   12  C   UNK N   1      34.912  12.314  18.656  0.00  0.00     0.002 A 
HETATM   13  C   UNK N   1      35.321  13.640  18.785  0.00  0.00     0.012 A 
HETATM   14  C   UNK N   1      35.974  14.277  17.730  0.00  0.00    -0.025 A 
HETATM   15  C   UNK N   1      36.225  13.581  16.522  0.00  0.00    -0.018 A 
HETATM   16  C   UNK N   1      36.382  15.607  17.873  0.00  0.00     0.012 A 
HETATM   17  C   UNK N   1      36.888  14.249  15.481  0.00  0.00     0.013 A 
HETATM   18  C   UNK N   1      37.290  15.578  15.631  0.00  0.00     0.001 A 
HETATM   19  C   UNK N   1      37.038  16.256  16.824  0.00  0.00     0.001 A 
ENDBRANCH   8  10
ENDBRANCH   6   8
ENDBRANCH   1   6
BRANCH   4  20
HETATM   20  C   UNK N   1      35.093  14.012  10.778  0.00  0.00     0.030 A 
HETATM   21  C   UNK N   1      33.987  13.872   9.927  0.00  0.00     0.030 A 
HETATM   22  C   UNK N   1      33.484  14.976   9.236  0.00  0.00     0.010 A 
HETATM   23  C   UNK N   1      34.078  16.234   9.381  0.00  0.00    -0.048 A 
HETATM   24  C   UNK N   1      35.191  16.372  10.223  0.00  0.00     0.010 A 
HETATM   25  C   UNK N   1      35.695  15.273  10.913  0.00  0.00     0.030 A 
BRANCH  23  26
HETATM   26  C   UNK N   1      33.467  17.402   8.651  0.00  0.00     0.148 C 
BRANCH  26  27
HETATM   27  C   UNK N   1      34.365  18.293   7.829  0.00  0.00     0.143 C 
HETATM   28  O   UNK N   1      34.459  18.089   6.630  0.00  0.00    -0.650 OA
BRANCH  27  29
HETATM   29  O   UNK N   1      35.090  19.282   8.386  0.00  0.00    -0.776 OA
HETATM   30  H   UNK N   1      35.099  20.143   8.017  0.00  0.00     0.167 HD
ENDBRANCH  27  29
ENDBRANCH  26  27
ENDBRANCH  23  26
ENDBRANCH   4  20
TORSDOF 7
ENDMDL
MODEL 6
REMARK VINA RESULT:      -7.9     10.573     15.037
REMARK  7 active torsions:
REMARK  status: ('A' for Active; 'I' for Inactive)
REMARK    1  A    between atoms: C_2  and  C_3 
REMARK    2  A    between atoms: C_2  and  N_13 
REMARK    3  A    between atoms: C_14  and  N_13 
REMARK    4  A    between atoms: N_17  and  C_19 
REMARK    5  A    between atoms: C_22  and  C_25 
REMARK    6  A    between atoms: C_25  and  C_26 
REMARK    7  A    between atoms: C_26  and  O_28 
ROOT
HETATM    1  C   UNK N   1      26.962  18.923   4.944  0.00  0.00     0.096 C 
HETATM    2  C   UNK N   1      27.420  19.800   3.779  0.00  0.00     0.046 C 
HETATM    3  C   UNK N   1      26.133  20.386   3.206  0.00  0.00     0.125 C 
HETATM    4  N   UNK N   1      25.113  20.027   4.158  0.00  0.00    -0.379 N 
HETATM    5  C   UNK N   1      25.638  19.509   5.382  0.00  0.00     0.147 C 
ENDROOT
BRANCH   1   6
HETATM    6  N   UNK N   1      27.938  18.811   6.031  0.00  0.00    -0.408 N 
HETATM    7  H   UNK N   1      28.226  19.586   6.629  0.00  0.00     0.154 HD
BRANCH   6   8
HETATM    8  C   UNK N   1      28.445  17.444   6.149  0.00  0.00     0.107 C 
HETATM    9  C   UNK N   1      27.554  16.659   7.108  0.00  0.00     0.037 C 
BRANCH   8  10
HETATM   10  C   UNK N   1      29.910  17.449   6.550  0.00  0.00    -0.025 A 
HETATM   11  C   UNK N   1      30.265  17.606   7.903  0.00  0.00     0.010 A 
HETATM   12  C   UNK N   1      31.601  17.597   8.301  0.00  0.00     0.002 A 
HETATM   13  C   UNK N   1      32.613  17.426   7.359  0.00  0.00     0.012 A 
HETATM   14  C   UNK N   1      32.294  17.266   6.010  0.00  0.00    -0.025 A 
HETATM   15  C   UNK N   1      30.940  17.276   5.591  0.00  0.00    -0.018 A 
HETATM   16  C   UNK N   1      33.318  17.093   5.074  0.00  0.00     0.012 A 
HETATM   17  C   UNK N   1      30.653  17.107   4.229  0.00  0.00     0.013 A 
HETATM   18  C   UNK N   1      31.682  16.937   3.299  0.00  0.00     0.001 A 
HETATM   19  C   UNK N   1      33.012  16.930   3.721  0.00  0.00     0.001 A 
ENDBRANCH   8  10
ENDBRANCH   6   8
ENDBRANCH   1   6
BRANCH   4  20
HETATM   20  C   UNK N   1      23.810  19.651   3.725  0.00  0.00     0.030 A 
HETATM   21  C   UNK N   1      23.068  20.484   2.875  0.00  0.00     0.030 A 
HETATM   22  C   UNK N   1      21.825  20.070   2.391  0.00  0.00     0.010 A 
HETATM   23  C   UNK N   1      21.304  18.823   2.751  0.00  0.00    -0.048 A 
HETATM   24  C   UNK N   1      22.041  17.996   3.610  0.00  0.00     0.010 A 
HETATM   25  C   UNK N   1      23.280  18.405   4.094  0.00  0.00     0.030 A 
BRANCH  23  26
HETATM   26  C   UNK N   1      19.981  18.405   2.163  0.00  0.00     0.148 C 
BRANCH  26  27
HETATM   27  C   UNK N   1      19.960  17.286   1.150  0.00  0.00     0.143 C 
HETATM   28  O   UNK N   1      20.382  17.500   0.027  0.00  0.00    -0.650 OA
BRANCH  27  29
HETATM   29  O   UNK N   1      19.454  16.072   1.442  0.00  0.00    -0.776 OA
HETATM   30  H   UNK N   1      18.553  15.871   1.279  0.00  0.00     0.167 HD
ENDBRANCH  27  29
ENDBRANCH  26  27
ENDBRANCH  23  26
ENDBRANCH   4  20
TORSDOF 7
ENDMDL
MODEL 7
REMARK VINA RESULT:      -7.9      2.560      4.064
REMARK  7 active torsions:
REMARK  status: ('A' for Active; 'I' for Inactive)
REMARK    1  A    between atoms: C_2  and  C_3 
REMARK    2  A    between atoms: C_2  and  N_13 
REMARK    3  A    between atoms: C_14  and  N_13 
REMARK    4  A    between atoms: N_17  and  C_19 
REMARK    5  A    between atoms: C_22  and  C_25 
REMARK    6  A    between atoms: C_25  and  C_26 
REMARK    7  A    between atoms: C_26  and  O_28 
ROOT
HETATM    1  C   UNK N   1      35.996  14.205  11.423  0.00  0.00     0.096 C 
HETATM    2  C   UNK N   1      36.347  13.377  10.187  0.00  0.00     0.046 C 
HETATM    3  C   UNK N   1      35.690  14.117   9.026  0.00  0.00     0.125 C 
HETATM    4  N   UNK N   1      35.241  15.363   9.594  0.00  0.00    -0.379 N 
HETATM    5  C   UNK N   1      35.757  15.605  10.905  0.00  0.00     0.147 C 
ENDROOT
BRANCH   1   6
HETATM    6  N   UNK N   1      36.997  14.141  12.492  0.00  0.00    -0.408 N 
HETATM    7  H   UNK N   1      38.004  14.188  12.342  0.00  0.00     0.154 HD
BRANCH   6   8
HETATM    8  C   UNK N   1      36.363  14.004  13.803  0.00  0.00     0.107 C 
HETATM    9  C   UNK N   1      36.804  15.160  14.697  0.00  0.00     0.037 C 
BRANCH   8  10
HETATM   10  C   UNK N   1      36.650  12.636  14.397  0.00  0.00    -0.025 A 
HETATM   11  C   UNK N   1      37.403  11.699  13.665  0.00  0.00     0.010 A 
HETATM   12  C   UNK N   1      37.697  10.443  14.194  0.00  0.00     0.002 A 
HETATM   13  C   UNK N   1      37.248  10.094  15.466  0.00  0.00     0.012 A 
HETATM   14  C   UNK N   1      36.500  11.001  16.217  0.00  0.00    -0.025 A 
HETATM   15  C   UNK N   1      36.193  12.281  15.692  0.00  0.00    -0.018 A 
HETATM   16  C   UNK N   1      36.058  10.641  17.494  0.00  0.00     0.012 A 
HETATM   17  C   UNK N   1      35.444  13.172  16.475  0.00  0.00     0.013 A 
HETATM   18  C   UNK N   1      35.004  12.804  17.749  0.00  0.00     0.001 A 
HETATM   19  C   UNK N   1      35.310  11.541  18.258  0.00  0.00     0.001 A 
ENDBRANCH   8  10
ENDBRANCH   6   8
ENDBRANCH   1   6
BRANCH   4  20
HETATM   20  C   UNK N   1      34.004  15.942   9.195  0.00  0.00     0.030 A 
HETATM   21  C   UNK N   1      32.804  15.229   9.322  0.00  0.00     0.030 A 
HETATM   22  C   UNK N   1      31.586  15.835   9.004  0.00  0.00     0.010 A 
HETATM   23  C   UNK N   1      31.550  17.158   8.551  0.00  0.00    -0.048 A 
HETATM   24  C   UNK N   1      32.751  17.867   8.414  0.00  0.00     0.010 A 
HETATM   25  C   UNK N   1      33.966  17.266   8.730  0.00  0.00     0.030 A 
BRANCH  23  26
HETATM   26  C   UNK N   1      30.207  17.779   8.268  0.00  0.00     0.148 C 
BRANCH  26  27
HETATM   27  C   UNK N   1      29.300  18.106   9.430  0.00  0.00     0.143 C 
HETATM   28  O   UNK N   1      29.688  18.892  10.277  0.00  0.00    -0.650 OA
BRANCH  27  29
HETATM   29  O   UNK N   1      28.092  17.527   9.574  0.00  0.00    -0.776 OA
HETATM   30  H   UNK N   1      28.011  16.607   9.729  0.00  0.00     0.167 HD
ENDBRANCH  27  29
ENDBRANCH  26  27
ENDBRANCH  23  26
ENDBRANCH   4  20
TORSDOF 7
ENDMDL
MODEL 8
REMARK VINA RESULT:      -7.9      0.539      2.009
REMARK  7 active torsions:
REMARK  status: ('A' for Active; 'I' for Inactive)
REMARK    1  A    between atoms: C_2  and  C_3 
REMARK    2  A    between atoms: C_2  and  N_13 
REMARK    3  A    between atoms: C_14  and  N_13 
REMARK    4  A    between atoms: N_17  and  C_19 
REMARK    5  A    between atoms: C_22  and  C_25 
REMARK    6  A    between atoms: C_25  and  C_26 
REMARK    7  A    between atoms: C_26  and  O_28 
ROOT
HETATM    1  C   UNK N   1      36.344  11.708  13.160  0.00  0.00     0.096 C 
HETATM    2  C   UNK N   1      37.277  11.124  12.100  0.00  0.00     0.046 C 
HETATM    3  C   UNK N   1      37.475  12.253  11.094  0.00  0.00     0.125 C 
HETATM    4  N   UNK N   1      36.883  13.408  11.719  0.00  0.00    -0.379 N 
HETATM    5  C   UNK N   1      36.564  13.203  13.097  0.00  0.00     0.147 C 
ENDROOT
BRANCH   1   6
HETATM    6  N   UNK N   1      36.533  11.147  14.501  0.00  0.00    -0.408 N 
HETATM    7  H   UNK N   1      37.373  11.273  15.066  0.00  0.00     0.154 HD
BRANCH   6   8
HETATM    8  C   UNK N   1      35.360  10.382  14.925  0.00  0.00     0.107 C 
HETATM    9  C   UNK N   1      34.105  11.024  14.340  0.00  0.00     0.037 C 
BRANCH   8  10
HETATM   10  C   UNK N   1      35.324  10.252  16.438  0.00  0.00    -0.025 A 
HETATM   11  C   UNK N   1      35.316   8.977  17.031  0.00  0.00     0.010 A 
HETATM   12  C   UNK N   1      35.301   8.828  18.417  0.00  0.00     0.002 A 
HETATM   13  C   UNK N   1      35.296   9.951  19.243  0.00  0.00     0.012 A 
HETATM   14  C   UNK N   1      35.304  11.230  18.685  0.00  0.00    -0.025 A 
HETATM   15  C   UNK N   1      35.318  11.395  17.278  0.00  0.00    -0.018 A 
HETATM   16  C   UNK N   1      35.302  12.348  19.524  0.00  0.00     0.012 A 
HETATM   17  C   UNK N   1      35.332  12.694  16.749  0.00  0.00     0.013 A 
HETATM   18  C   UNK N   1      35.327  13.807  17.594  0.00  0.00     0.001 A 
HETATM   19  C   UNK N   1      35.313  13.635  18.979  0.00  0.00     0.001 A 
ENDBRANCH   8  10
ENDBRANCH   6   8
ENDBRANCH   1   6
BRANCH   4  20
HETATM   20  C   UNK N   1      36.157  14.361  10.952  0.00  0.00     0.030 A 
HETATM   21  C   UNK N   1      35.450  13.972   9.805  0.00  0.00     0.030 A 
HETATM   22  C   UNK N   1      34.675  14.899   9.105  0.00  0.00     0.010 A 
HETATM   23  C   UNK N   1      34.597  16.227   9.537  0.00  0.00    -0.048 A 
HETATM   24  C   UNK N   1      35.312  16.619  10.677  0.00  0.00     0.010 A 
HETATM   25  C   UNK N   1      36.086  15.697  11.377  0.00  0.00     0.030 A 
BRANCH  23  26
HETATM   26  C   UNK N   1      33.708  17.175   8.774  0.00  0.00     0.148 C 
BRANCH  26  27
HETATM   27  C   UNK N   1      34.349  18.253   7.935  0.00  0.00     0.143 C 
HETATM   28  O   UNK N   1      34.185  18.235   6.727  0.00  0.00    -0.650 OA
BRANCH  27  29
HETATM   29  O   UNK N   1      35.125  19.210   8.479  0.00  0.00    -0.776 OA
HETATM   30  H   UNK N   1      35.005  19.486   9.367  0.00  0.00     0.167 HD
ENDBRANCH  27  29
ENDBRANCH  26  27
ENDBRANCH  23  26
ENDBRANCH   4  20
TORSDOF 7
ENDMDL
MODEL 9
REMARK VINA RESULT:      -7.9     11.936     15.559
REMARK  7 active torsions:
REMARK  status: ('A' for Active; 'I' for Inactive)
REMARK    1  A    between atoms: C_2  and  C_3 
REMARK    2  A    between atoms: C_2  and  N_13 
REMARK    3  A    between atoms: C_14  and  N_13 
REMARK    4  A    between atoms: N_17  and  C_19 
REMARK    5  A    between atoms: C_22  and  C_25 
REMARK    6  A    between atoms: C_25  and  C_26 
REMARK    7  A    between atoms: C_26  and  O_28 
ROOT
HETATM    1  C   UNK N   1      25.337  15.572   5.934  0.00  0.00     0.096 C 
HETATM    2  C   UNK N   1      24.224  14.854   6.698  0.00  0.00     0.046 C 
HETATM    3  C   UNK N   1      22.958  15.141   5.898  0.00  0.00     0.125 C 
HETATM    4  N   UNK N   1      23.425  15.757   4.682  0.00  0.00    -0.379 N 
HETATM    5  C   UNK N   1      24.841  15.662   4.508  0.00  0.00     0.147 C 
ENDROOT
BRANCH   1   6
HETATM    6  N   UNK N   1      26.653  14.937   6.055  0.00  0.00    -0.408 N 
HETATM    7  H   UNK N   1      26.814  14.016   6.462  0.00  0.00     0.154 HD
BRANCH   6   8
HETATM    8  C   UNK N   1      27.706  15.796   5.512  0.00  0.00     0.107 C 
HETATM    9  C   UNK N   1      29.010  15.006   5.441  0.00  0.00     0.037 C 
BRANCH   8  10
HETATM   10  C   UNK N   1      27.818  17.079   6.316  0.00  0.00    -0.025 A 
HETATM   11  C   UNK N   1      28.235  17.030   7.659  0.00  0.00     0.010 A 
HETATM   12  C   UNK N   1      28.364  18.194   8.415  0.00  0.00     0.002 A 
HETATM   13  C   UNK N   1      28.082  19.435   7.846  0.00  0.00     0.012 A 
HETATM   14  C   UNK N   1      27.668  19.517   6.517  0.00  0.00    -0.025 A 
HETATM   15  C   UNK N   1      27.531  18.342   5.738  0.00  0.00    -0.018 A 
HETATM   16  C   UNK N   1      27.391  20.768   5.956  0.00  0.00     0.012 A 
HETATM   17  C   UNK N   1      27.118  18.460   4.402  0.00  0.00     0.013 A 
HETATM   18  C   UNK N   1      26.840  19.713   3.850  0.00  0.00     0.001 A 
HETATM   19  C   UNK N   1      26.977  20.865   4.626  0.00  0.00     0.001 A 
ENDBRANCH   8  10
ENDBRANCH   6   8
ENDBRANCH   1   6
BRANCH   4  20
HETATM   20  C   UNK N   1      22.703  16.825   4.080  0.00  0.00     0.030 A 
HETATM   21  C   UNK N   1      21.437  16.608   3.517  0.00  0.00     0.030 A 
HETATM   22  C   UNK N   1      20.701  17.677   3.001  0.00  0.00     0.010 A 
HETATM   23  C   UNK N   1      21.219  18.976   3.036  0.00  0.00    -0.048 A 
HETATM   24  C   UNK N   1      22.489  19.191   3.588  0.00  0.00     0.010 A 
HETATM   25  C   UNK N   1      23.225  18.127   4.103  0.00  0.00     0.030 A 
BRANCH  23  26
HETATM   26  C   UNK N   1      20.365  20.100   2.510  0.00  0.00     0.148 C 
BRANCH  26  27
HETATM   27  C   UNK N   1      20.638  20.631   1.124  0.00  0.00     0.143 C 
HETATM   28  O   UNK N   1      20.821  21.827   0.978  0.00  0.00    -0.650 OA
BRANCH  27  29
HETATM   29  O   UNK N   1      20.649  19.827   0.043  0.00  0.00    -0.776 OA
HETATM   30  H   UNK N   1      20.984  20.126  -0.779  0.00  0.00     0.167 HD
ENDBRANCH  27  29
ENDBRANCH  26  27
ENDBRANCH  23  26
ENDBRANCH   4  20
TORSDOF 7
ENDMDL
