MODEL 1
REMARK VINA RESULT:      -7.1      0.000      0.000
REMARK  7 active torsions:
REMARK  status: ('A' for Active; 'I' for Inactive)
REMARK    1  A    between atoms: N_2  and  C_4 
REMARK    2  A    between atoms: C_4  and  C_5 
REMARK    3  A    between atoms: C_8  and  S_11 
REMARK    4  A    between atoms: S_11  and  N_14 
REMARK    5  A    between atoms: C_17  and  C_19 
REMARK    6  A    between atoms: C_20  and  C_21 
REMARK       I    between atoms: C_21  and  N_23 
REMARK    7  A    between atoms: N_23  and  O_24 
ROOT
HETATM    1  N   UNK N   1      35.882  14.032  12.247  0.00  0.00    -0.257 N 
HETATM    2  C   UNK N   1      35.051  12.973  12.344  0.00  0.00     0.109 A 
HETATM    3  C   UNK N   1      35.020  12.531  13.660  0.00  0.00     0.031 A 
HETATM    4  C   UNK N   1      35.886  13.362  14.351  0.00  0.00    -0.018 A 
HETATM    5  C   UNK N   1      36.398  14.271  13.473  0.00  0.00     0.120 A 
ENDROOT
BRANCH   1   6
HETATM    6  S   UNK N   1      36.050  15.063  10.786  0.00  0.00     0.268 S 
HETATM    7  O   UNK N   1      35.017  14.001  10.356  0.00  0.00    -0.200 OA
HETATM    8  O   UNK N   1      35.388  16.050  11.765  0.00  0.00    -0.200 OA
BRANCH   6   9
HETATM    9  C   UNK N   1      34.614  15.834   9.882  0.00  0.00     0.080 A 
HETATM   10  C   UNK N   1      33.436  15.080   9.793  0.00  0.00     0.026 A 
HETATM   11  C   UNK N   1      32.325  15.561   9.090  0.00  0.00     0.010 A 
HETATM   12  C   UNK N   1      32.368  16.807   8.454  0.00  0.00    -0.030 A 
HETATM   13  C   UNK N   1      33.528  17.582   8.535  0.00  0.00     0.010 A 
HETATM   14  C   UNK N   1      34.635  17.119   9.248  0.00  0.00     0.026 A 
BRANCH  12  15
HETATM   15  C   UNK N   1      31.194  17.237   7.607  0.00  0.00     0.309 C 
BRANCH  15  16
HETATM   16  N   UNK N   1      29.935  17.493   8.318  0.00  0.00     0.084 N 
HETATM   17  C   UNK N   1      28.871  17.766   7.363  0.00  0.00     0.309 C 
HETATM   18  C   UNK N   1      30.039  18.603   9.254  0.00  0.00     0.309 C 
ENDBRANCH  15  16
ENDBRANCH  12  15
ENDBRANCH   6   9
ENDBRANCH   1   6
BRANCH   4  19
HETATM   19  C   UNK N   1      36.048  13.524  15.790  0.00  0.00     0.018 C 
HETATM   20  C   UNK N   1      35.114  13.164  16.667  0.00  0.00     0.077 C 
BRANCH  20  21
HETATM   21  C   UNK N   1      35.240  13.593  18.067  0.00  0.00     0.264 C 
HETATM   22  O   UNK N   1      35.446  14.772  18.320  0.00  0.00    -0.266 OA
HETATM   23  N   UNK N   1      35.204  12.680  19.067  0.00  0.00    -0.234 N 
HETATM   24  H   UNK N   1      35.043  11.733  18.851  0.00  0.00     0.197 HD
BRANCH  23  25
HETATM   25  O   UNK N   1      35.383  13.041  20.344  0.00  0.00    -0.287 OA
HETATM   26  H   UNK N   1      35.145  12.431  21.060  0.00  0.00     0.244 HD
ENDBRANCH  23  25
ENDBRANCH  20  21
ENDBRANCH   4  19
TORSDOF 7
ENDMDL
MODEL 2
REMARK VINA RESULT:      -7.1      6.304     10.021
REMARK  7 active torsions:
REMARK  status: ('A' for Active; 'I' for Inactive)
REMARK    1  A    between atoms: N_2  and  C_4 
REMARK    2  A    between atoms: C_4  and  C_5 
REMARK    3  A    between atoms: C_8  and  S_11 
REMARK    4  A    between atoms: S_11  and  N_14 
REMARK    5  A    between atoms: C_17  and  C_19 
REMARK    6  A    between atoms: C_20  and  C_21 
REMARK       I    between atoms: C_21  and  N_23 
REMARK    7  A    between atoms: N_23  and  O_24 
ROOT
HETATM    1  N   UNK N   1      29.047  17.278   6.271  0.00  0.00    -0.257 N 
HETATM    2  C   UNK N   1      28.326  17.433   7.401  0.00  0.00     0.109 A 
HETATM    3  C   UNK N   1      29.187  17.634   8.472  0.00  0.00     0.031 A 
HETATM    4  C   UNK N   1      30.463  17.575   7.938  0.00  0.00    -0.018 A 
HETATM    5  C   UNK N   1      30.356  17.361   6.597  0.00  0.00     0.120 A 
ENDROOT
BRANCH   1   6
HETATM    6  S   UNK N   1      28.348  17.226   4.618  0.00  0.00     0.268 S 
HETATM    7  O   UNK N   1      27.176  16.776   5.514  0.00  0.00    -0.200 OA
HETATM    8  O   UNK N   1      28.571  18.739   4.791  0.00  0.00    -0.200 OA
BRANCH   6   9
HETATM    9  C   UNK N   1      26.756  18.063   4.130  0.00  0.00     0.080 A 
HETATM   10  C   UNK N   1      26.838  19.397   3.707  0.00  0.00     0.026 A 
HETATM   11  C   UNK N   1      25.687  20.117   3.369  0.00  0.00     0.010 A 
HETATM   12  C   UNK N   1      24.423  19.522   3.451  0.00  0.00    -0.030 A 
HETATM   13  C   UNK N   1      24.314  18.190   3.862  0.00  0.00     0.010 A 
HETATM   14  C   UNK N   1      25.457  17.458   4.184  0.00  0.00     0.026 A 
BRANCH  12  15
HETATM   15  C   UNK N   1      23.198  20.368   3.194  0.00  0.00     0.309 C 
BRANCH  15  16
HETATM   16  N   UNK N   1      21.966  19.645   2.851  0.00  0.00     0.084 N 
HETATM   17  C   UNK N   1      21.296  20.305   1.740  0.00  0.00     0.309 C 
HETATM   18  C   UNK N   1      21.048  19.542   3.976  0.00  0.00     0.309 C 
ENDBRANCH  15  16
ENDBRANCH  12  15
ENDBRANCH   6   9
ENDBRANCH   1   6
BRANCH   4  19
HETATM   19  C   UNK N   1      31.729  17.967   8.545  0.00  0.00     0.018 C 
HETATM   20  C   UNK N   1      32.881  17.961   7.878  0.00  0.00     0.077 C 
BRANCH  20  21
HETATM   21  C   UNK N   1      34.141  18.117   8.618  0.00  0.00     0.264 C 
HETATM   22  O   UNK N   1      34.951  18.961   8.258  0.00  0.00    -0.266 OA
HETATM   23  N   UNK N   1      34.437  17.284   9.644  0.00  0.00    -0.234 N 
HETATM   24  H   UNK N   1      33.781  16.605   9.921  0.00  0.00     0.197 HD
BRANCH  23  25
HETATM   25  O   UNK N   1      35.608  17.366  10.289  0.00  0.00    -0.287 OA
HETATM   26  H   UNK N   1      36.066  18.218  10.360  0.00  0.00     0.244 HD
ENDBRANCH  23  25
ENDBRANCH  20  21
ENDBRANCH   4  19
TORSDOF 7
ENDMDL
MODEL 3
REMARK VINA RESULT:      -6.9      7.760     13.756
REMARK  7 active torsions:
REMARK  status: ('A' for Active; 'I' for Inactive)
REMARK    1  A    between atoms: N_2  and  C_4 
REMARK    2  A    between atoms: C_4  and  C_5 
REMARK    3  A    between atoms: C_8  and  S_11 
REMARK    4  A    between atoms: S_11  and  N_14 
REMARK    5  A    between atoms: C_17  and  C_19 
REMARK    6  A    between atoms: C_20  and  C_21 
REMARK       I    between atoms: C_21  and  N_23 
REMARK    7  A    between atoms: N_23  and  O_24 
ROOT
HETATM    1  N   UNK N   1      26.533  18.536   4.507  0.00  0.00    -0.257 N 
HETATM    2  C   UNK N   1      27.294  19.558   4.063  0.00  0.00     0.109 A 
HETATM    3  C   UNK N   1      26.499  20.449   3.354  0.00  0.00     0.031 A 
HETATM    4  C   UNK N   1      25.225  19.908   3.375  0.00  0.00    -0.018 A 
HETATM    5  C   UNK N   1      25.266  18.745   4.085  0.00  0.00     0.120 A 
ENDROOT
BRANCH   1   6
HETATM    6  S   UNK N   1      27.092  17.278   5.660  0.00  0.00     0.268 S 
HETATM    7  O   UNK N   1      28.110  17.181   4.506  0.00  0.00    -0.200 OA
HETATM    8  O   UNK N   1      27.362  18.557   6.472  0.00  0.00    -0.200 OA
BRANCH   6   9
HETATM    9  C   UNK N   1      28.838  17.149   6.300  0.00  0.00     0.080 A 
HETATM   10  C   UNK N   1      29.815  16.691   5.404  0.00  0.00     0.026 A 
HETATM   11  C   UNK N   1      31.141  16.517   5.813  0.00  0.00     0.010 A 
HETATM   12  C   UNK N   1      31.523  16.791   7.132  0.00  0.00    -0.030 A 
HETATM   13  C   UNK N   1      30.571  17.257   8.042  0.00  0.00     0.010 A 
HETATM   14  C   UNK N   1      29.248  17.451   7.640  0.00  0.00     0.026 A 
BRANCH  12  15
HETATM   15  C   UNK N   1      32.936  16.477   7.565  0.00  0.00     0.309 C 
BRANCH  15  16
HETATM   16  N   UNK N   1      33.499  17.328   8.621  0.00  0.00     0.084 N 
HETATM   17  C   UNK N   1      34.192  18.463   8.028  0.00  0.00     0.309 C 
HETATM   18  C   UNK N   1      34.415  16.604   9.491  0.00  0.00     0.309 C 
ENDBRANCH  15  16
ENDBRANCH  12  15
ENDBRANCH   6   9
ENDBRANCH   1   6
BRANCH   4  19
HETATM   19  C   UNK N   1      23.958  20.531   3.016  0.00  0.00     0.018 C 
HETATM   20  C   UNK N   1      22.783  19.930   3.187  0.00  0.00     0.077 C 
BRANCH  20  21
HETATM   21  C   UNK N   1      21.583  20.508   2.568  0.00  0.00     0.264 C 
HETATM   22  O   UNK N   1      20.712  20.993   3.279  0.00  0.00    -0.266 OA
HETATM   23  N   UNK N   1      21.405  20.439   1.227  0.00  0.00    -0.234 N 
HETATM   24  H   UNK N   1      22.109  20.042   0.666  0.00  0.00     0.197 HD
BRANCH  23  25
HETATM   25  O   UNK N   1      20.288  20.901   0.650  0.00  0.00    -0.287 OA
HETATM   26  H   UNK N   1      19.656  20.283   0.250  0.00  0.00     0.244 HD
ENDBRANCH  23  25
ENDBRANCH  20  21
ENDBRANCH   4  19
TORSDOF 7
ENDMDL
MODEL 4
REMARK VINA RESULT:      -6.8      8.464     14.036
REMARK  7 active torsions:
REMARK  status: ('A' for Active; 'I' for Inactive)
REMARK    1  A    between atoms: N_2  and  C_4 
REMARK    2  A    between atoms: C_4  and  C_5 
REMARK    3  A    between atoms: C_8  and  S_11 
REMARK    4  A    between atoms: S_11  and  N_14 
REMARK    5  A    between atoms: C_17  and  C_19 
REMARK    6  A    between atoms: C_20  and  C_21 
REMARK       I    between atoms: C_21  and  N_23 
REMARK    7  A    between atoms: N_23  and  O_24 
ROOT
HETATM    1  N   UNK N   1      26.159  19.562   4.677  0.00  0.00    -0.257 N 
HETATM    2  C   UNK N   1      26.248  20.307   3.556  0.00  0.00     0.109 A 
HETATM    3  C   UNK N   1      25.026  20.290   2.895  0.00  0.00     0.031 A 
HETATM    4  C   UNK N   1      24.201  19.484   3.661  0.00  0.00    -0.018 A 
HETATM    5  C   UNK N   1      24.908  19.053   4.743  0.00  0.00     0.120 A 
ENDROOT
BRANCH   1   6
HETATM    6  S   UNK N   1      27.421  19.490   5.953  0.00  0.00     0.268 S 
HETATM    7  O   UNK N   1      26.938  18.029   5.848  0.00  0.00    -0.200 OA
HETATM    8  O   UNK N   1      28.274  19.835   4.719  0.00  0.00    -0.200 OA
BRANCH   6   9
HETATM    9  C   UNK N   1      28.853  18.297   5.940  0.00  0.00     0.080 A 
HETATM   10  C   UNK N   1      29.329  17.857   7.183  0.00  0.00     0.026 A 
HETATM   11  C   UNK N   1      30.432  16.999   7.268  0.00  0.00     0.010 A 
HETATM   12  C   UNK N   1      31.090  16.565   6.112  0.00  0.00    -0.030 A 
HETATM   13  C   UNK N   1      30.630  16.983   4.860  0.00  0.00     0.010 A 
HETATM   14  C   UNK N   1      29.520  17.825   4.762  0.00  0.00     0.026 A 
BRANCH  12  15
HETATM   15  C   UNK N   1      32.346  15.738   6.251  0.00  0.00     0.309 C 
BRANCH  15  16
HETATM   16  N   UNK N   1      33.616  16.433   5.999  0.00  0.00     0.084 N 
HETATM   17  C   UNK N   1      34.537  15.546   5.304  0.00  0.00     0.309 C 
HETATM   18  C   UNK N   1      34.240  16.914   7.224  0.00  0.00     0.309 C 
ENDBRANCH  15  16
ENDBRANCH  12  15
ENDBRANCH   6   9
ENDBRANCH   1   6
BRANCH   4  19
HETATM   19  C   UNK N   1      22.754  19.320   3.587  0.00  0.00     0.018 C 
HETATM   20  C   UNK N   1      21.983  20.063   2.796  0.00  0.00     0.077 C 
BRANCH  20  21
HETATM   21  C   UNK N   1      20.524  20.017   2.967  0.00  0.00     0.264 C 
HETATM   22  O   UNK N   1      19.989  20.760   3.778  0.00  0.00    -0.266 OA
HETATM   23  N   UNK N   1      19.785  19.107   2.288  0.00  0.00    -0.234 N 
HETATM   24  H   UNK N   1      20.227  18.511   1.642  0.00  0.00     0.197 HD
BRANCH  23  25
HETATM   25  O   UNK N   1      18.464  19.004   2.479  0.00  0.00    -0.287 OA
HETATM   26  H   UNK N   1      17.867  19.678   2.119  0.00  0.00     0.244 HD
ENDBRANCH  23  25
ENDBRANCH  20  21
ENDBRANCH   4  19
TORSDOF 7
ENDMDL
MODEL 5
REMARK VINA RESULT:      -6.8      3.368      4.561
REMARK  7 active torsions:
REMARK  status: ('A' for Active; 'I' for Inactive)
REMARK    1  A    between atoms: N_2  and  C_4 
REMARK    2  A    between atoms: C_4  and  C_5 
REMARK    3  A    between atoms: C_8  and  S_11 
REMARK    4  A    between atoms: S_11  and  N_14 
REMARK    5  A    between atoms: C_17  and  C_19 
REMARK    6  A    between atoms: C_20  and  C_21 
REMARK       I    between atoms: C_21  and  N_23 
REMARK    7  A    between atoms: N_23  and  O_24 
ROOT
HETATM    1  N   UNK N   1      34.427  16.480   9.313  0.00  0.00    -0.257 N 
HETATM    2  C   UNK N   1      33.837  15.269   9.398  0.00  0.00     0.109 A 
HETATM    3  C   UNK N   1      34.355  14.582  10.488  0.00  0.00     0.031 A 
HETATM    4  C   UNK N   1      35.298  15.428  11.047  0.00  0.00    -0.018 A 
HETATM    5  C   UNK N   1      35.324  16.580  10.318  0.00  0.00     0.120 A 
ENDROOT
BRANCH   1   6
HETATM    6  S   UNK N   1      33.903  17.789   8.200  0.00  0.00     0.268 S 
HETATM    7  O   UNK N   1      34.662  16.816   7.274  0.00  0.00    -0.200 OA
HETATM    8  O   UNK N   1      32.546  17.174   8.584  0.00  0.00    -0.200 OA
BRANCH   6   9
HETATM    9  C   UNK N   1      32.976  17.500   6.609  0.00  0.00     0.080 A 
HETATM   10  C   UNK N   1      31.619  17.161   6.713  0.00  0.00     0.026 A 
HETATM   11  C   UNK N   1      30.859  16.879   5.572  0.00  0.00     0.010 A 
HETATM   12  C   UNK N   1      31.439  16.922   4.299  0.00  0.00    -0.030 A 
HETATM   13  C   UNK N   1      32.788  17.265   4.168  0.00  0.00     0.010 A 
HETATM   14  C   UNK N   1      33.551  17.565   5.298  0.00  0.00     0.026 A 
BRANCH  12  15
HETATM   15  C   UNK N   1      30.618  16.495   3.106  0.00  0.00     0.309 C 
BRANCH  15  16
HETATM   16  N   UNK N   1      29.806  15.282   3.272  0.00  0.00     0.084 N 
HETATM   17  C   UNK N   1      30.600  14.105   2.951  0.00  0.00     0.309 C 
HETATM   18  C   UNK N   1      28.607  15.296   2.446  0.00  0.00     0.309 C 
ENDBRANCH  15  16
ENDBRANCH  12  15
ENDBRANCH   6   9
ENDBRANCH   1   6
BRANCH   4  19
HETATM   19  C   UNK N   1      35.960  15.336  12.342  0.00  0.00     0.018 C 
HETATM   20  C   UNK N   1      36.019  14.206  13.043  0.00  0.00     0.077 C 
BRANCH  20  21
HETATM   21  C   UNK N   1      36.470  14.252  14.441  0.00  0.00     0.264 C 
HETATM   22  O   UNK N   1      36.052  13.420  15.236  0.00  0.00    -0.266 OA
HETATM   23  N   UNK N   1      37.281  15.250  14.865  0.00  0.00    -0.234 N 
HETATM   24  H   UNK N   1      37.606  15.916  14.218  0.00  0.00     0.197 HD
BRANCH  23  25
HETATM   25  O   UNK N   1      37.650  15.347  16.149  0.00  0.00    -0.287 OA
HETATM   26  H   UNK N   1      38.402  14.832  16.480  0.00  0.00     0.244 HD
ENDBRANCH  23  25
ENDBRANCH  20  21
ENDBRANCH   4  19
TORSDOF 7
ENDMDL
MODEL 6
REMARK VINA RESULT:      -6.6     17.703     21.350
REMARK  7 active torsions:
REMARK  status: ('A' for Active; 'I' for Inactive)
REMARK    1  A    between atoms: N_2  and  C_4 
REMARK    2  A    between atoms: C_4  and  C_5 
REMARK    3  A    between atoms: C_8  and  S_11 
REMARK    4  A    between atoms: S_11  and  N_14 
REMARK    5  A    between atoms: C_17  and  C_19 
REMARK    6  A    between atoms: C_20  and  C_21 
REMARK       I    between atoms: C_21  and  N_23 
REMARK    7  A    between atoms: N_23  and  O_24 
ROOT
HETATM    1  N   UNK N   1      27.548  22.977  -7.057  0.00  0.00    -0.257 N 
HETATM    2  C   UNK N   1      27.677  21.883  -7.837  0.00  0.00     0.109 A 
HETATM    3  C   UNK N   1      28.736  21.112  -7.376  0.00  0.00     0.031 A 
HETATM    4  C   UNK N   1      29.252  21.800  -6.290  0.00  0.00    -0.018 A 
HETATM    5  C   UNK N   1      28.512  22.931  -6.111  0.00  0.00     0.120 A 
ENDROOT
BRANCH   1   6
HETATM    6  S   UNK N   1      26.173  24.129  -7.142  0.00  0.00     0.268 S 
HETATM    7  O   UNK N   1      26.499  24.073  -5.635  0.00  0.00    -0.200 OA
HETATM    8  O   UNK N   1      27.268  24.928  -7.871  0.00  0.00    -0.200 OA
BRANCH   6   9
HETATM    9  C   UNK N   1      26.189  25.831  -6.384  0.00  0.00     0.080 A 
HETATM   10  C   UNK N   1      27.265  26.668  -6.714  0.00  0.00     0.026 A 
HETATM   11  C   UNK N   1      27.383  27.944  -6.153  0.00  0.00     0.010 A 
HETATM   12  C   UNK N   1      26.430  28.414  -5.242  0.00  0.00    -0.030 A 
HETATM   13  C   UNK N   1      25.343  27.603  -4.903  0.00  0.00     0.010 A 
HETATM   14  C   UNK N   1      25.206  26.335  -5.470  0.00  0.00     0.026 A 
BRANCH  12  15
HETATM   15  C   UNK N   1      26.656  29.747  -4.568  0.00  0.00     0.309 C 
BRANCH  15  16
HETATM   16  N   UNK N   1      26.970  29.708  -3.134  0.00  0.00     0.084 N 
HETATM   17  C   UNK N   1      27.132  31.062  -2.625  0.00  0.00     0.309 C 
HETATM   18  C   UNK N   1      28.171  28.937  -2.847  0.00  0.00     0.309 C 
ENDBRANCH  15  16
ENDBRANCH  12  15
ENDBRANCH   6   9
ENDBRANCH   1   6
BRANCH   4  19
HETATM   19  C   UNK N   1      30.192  21.341  -5.276  0.00  0.00     0.018 C 
HETATM   20  C   UNK N   1      30.231  21.848  -4.046  0.00  0.00     0.077 C 
BRANCH  20  21
HETATM   21  C   UNK N   1      31.366  21.521  -3.170  0.00  0.00     0.264 C 
HETATM   22  O   UNK N   1      31.511  22.133  -2.120  0.00  0.00    -0.266 OA
HETATM   23  N   UNK N   1      32.284  20.604  -3.556  0.00  0.00    -0.234 N 
HETATM   24  H   UNK N   1      32.159  20.123  -4.405  0.00  0.00     0.197 HD
BRANCH  23  25
HETATM   25  O   UNK N   1      33.360  20.340  -2.804  0.00  0.00    -0.287 OA
HETATM   26  H   UNK N   1      34.020  19.697  -3.107  0.00  0.00     0.244 HD
ENDBRANCH  23  25
ENDBRANCH  20  21
ENDBRANCH   4  19
TORSDOF 7
ENDMDL
MODEL 7
REMARK VINA RESULT:      -6.5      3.509      9.696
REMARK  7 active torsions:
REMARK  status: ('A' for Active; 'I' for Inactive)
REMARK    1  A    between atoms: N_2  and  C_4 
REMARK    2  A    between atoms: C_4  and  C_5 
REMARK    3  A    between atoms: C_8  and  S_11 
REMARK    4  A    between atoms: S_11  and  N_14 
REMARK    5  A    between atoms: C_17  and  C_19 
REMARK    6  A    between atoms: C_20  and  C_21 
REMARK       I    between atoms: C_21  and  N_23 
REMARK    7  A    between atoms: N_23  and  O_24 
ROOT
HETATM    1  N   UNK N   1      36.307  13.647  13.478  0.00  0.00    -0.257 N 
HETATM    2  C   UNK N   1      36.989  12.836  12.642  0.00  0.00     0.109 A 
HETATM    3  C   UNK N   1      36.934  13.352  11.354  0.00  0.00     0.031 A 
HETATM    4  C   UNK N   1      36.170  14.503  11.448  0.00  0.00    -0.018 A 
HETATM    5  C   UNK N   1      35.801  14.667  12.749  0.00  0.00     0.120 A 
ENDROOT
BRANCH   1   6
HETATM    6  S   UNK N   1      36.309  13.496  15.267  0.00  0.00     0.268 S 
HETATM    7  O   UNK N   1      34.843  13.202  14.886  0.00  0.00    -0.200 OA
HETATM    8  O   UNK N   1      37.189  12.296  14.874  0.00  0.00    -0.200 OA
BRANCH   6   9
HETATM    9  C   UNK N   1      35.647  12.019  16.191  0.00  0.00     0.080 A 
HETATM   10  C   UNK N   1      35.523  12.139  17.583  0.00  0.00     0.026 A 
HETATM   11  C   UNK N   1      35.081  11.063  18.361  0.00  0.00     0.010 A 
HETATM   12  C   UNK N   1      34.759   9.838  17.768  0.00  0.00    -0.030 A 
HETATM   13  C   UNK N   1      34.866   9.694  16.381  0.00  0.00     0.010 A 
HETATM   14  C   UNK N   1      35.289  10.766  15.594  0.00  0.00     0.026 A 
BRANCH  12  15
HETATM   15  C   UNK N   1      34.401   8.667  18.653  0.00  0.00     0.309 C 
BRANCH  15  16
HETATM   16  N   UNK N   1      33.702   8.985  19.905  0.00  0.00     0.084 N 
HETATM   17  C   UNK N   1      34.364   8.329  21.023  0.00  0.00     0.309 C 
HETATM   18  C   UNK N   1      32.300   8.592  19.875  0.00  0.00     0.309 C 
ENDBRANCH  15  16
ENDBRANCH  12  15
ENDBRANCH   6   9
ENDBRANCH   1   6
BRANCH   4  19
HETATM   19  C   UNK N   1      35.999  15.572  10.471  0.00  0.00     0.018 C 
HETATM   20  C   UNK N   1      34.810  15.923   9.986  0.00  0.00     0.077 C 
BRANCH  20  21
HETATM   21  C   UNK N   1      34.746  16.822   8.826  0.00  0.00     0.264 C 
HETATM   22  O   UNK N   1      34.561  16.354   7.710  0.00  0.00    -0.266 OA
HETATM   23  N   UNK N   1      34.963  18.150   8.978  0.00  0.00    -0.234 N 
HETATM   24  H   UNK N   1      35.116  18.515   9.879  0.00  0.00     0.197 HD
BRANCH  23  25
HETATM   25  O   UNK N   1      34.975  18.977   7.925  0.00  0.00    -0.287 OA
HETATM   26  H   UNK N   1      34.878  18.623   7.027  0.00  0.00     0.244 HD
ENDBRANCH  23  25
ENDBRANCH  20  21
ENDBRANCH   4  19
TORSDOF 7
ENDMDL
MODEL 8
REMARK VINA RESULT:      -6.5     12.192     16.451
REMARK  7 active torsions:
REMARK  status: ('A' for Active; 'I' for Inactive)
REMARK    1  A    between atoms: N_2  and  C_4 
REMARK    2  A    between atoms: C_4  and  C_5 
REMARK    3  A    between atoms: C_8  and  S_11 
REMARK    4  A    between atoms: S_11  and  N_14 
REMARK    5  A    between atoms: C_17  and  C_19 
REMARK    6  A    between atoms: C_20  and  C_21 
REMARK       I    between atoms: C_21  and  N_23 
REMARK    7  A    between atoms: N_23  and  O_24 
ROOT
HETATM    1  N   UNK N   1      22.271  15.478   4.133  0.00  0.00    -0.257 N 
HETATM    2  C   UNK N   1      21.478  15.109   3.105  0.00  0.00     0.109 A 
HETATM    3  C   UNK N   1      20.829  16.229   2.601  0.00  0.00     0.031 A 
HETATM    4  C   UNK N   1      21.253  17.289   3.384  0.00  0.00    -0.018 A 
HETATM    5  C   UNK N   1      22.133  16.811   4.309  0.00  0.00     0.120 A 
ENDROOT
BRANCH   1   6
HETATM    6  S   UNK N   1      23.467  14.403   4.931  0.00  0.00     0.268 S 
HETATM    7  O   UNK N   1      23.128  15.434   6.027  0.00  0.00    -0.200 OA
HETATM    8  O   UNK N   1      22.281  13.438   4.755  0.00  0.00    -0.200 OA
BRANCH   6   9
HETATM    9  C   UNK N   1      23.194  13.580   6.581  0.00  0.00     0.080 A 
HETATM   10  C   UNK N   1      24.227  13.681   7.524  0.00  0.00     0.026 A 
HETATM   11  C   UNK N   1      24.127  13.052   8.770  0.00  0.00     0.010 A 
HETATM   12  C   UNK N   1      22.994  12.301   9.102  0.00  0.00    -0.030 A 
HETATM   13  C   UNK N   1      21.946  12.192   8.183  0.00  0.00     0.010 A 
HETATM   14  C   UNK N   1      22.028  12.829   6.944  0.00  0.00     0.026 A 
BRANCH  12  15
HETATM   15  C   UNK N   1      22.976  11.540  10.407  0.00  0.00     0.309 C 
BRANCH  15  16
HETATM   16  N   UNK N   1      22.430  12.252  11.570  0.00  0.00     0.084 N 
HETATM   17  C   UNK N   1      23.114  11.821  12.781  0.00  0.00     0.309 C 
HETATM   18  C   UNK N   1      20.997  12.047  11.726  0.00  0.00     0.309 C 
ENDBRANCH  15  16
ENDBRANCH  12  15
ENDBRANCH   6   9
ENDBRANCH   1   6
BRANCH   4  19
HETATM   19  C   UNK N   1      21.099  18.720   3.152  0.00  0.00     0.018 C 
HETATM   20  C   UNK N   1      20.887  19.236   1.944  0.00  0.00     0.077 C 
BRANCH  20  21
HETATM   21  C   UNK N   1      21.001  20.689   1.754  0.00  0.00     0.264 C 
HETATM   22  O   UNK N   1      21.647  21.352   2.555  0.00  0.00    -0.266 OA
HETATM   23  N   UNK N   1      20.334  21.300   0.746  0.00  0.00    -0.234 N 
HETATM   24  H   UNK N   1      19.813  20.757   0.112  0.00  0.00     0.197 HD
BRANCH  23  25
HETATM   25  O   UNK N   1      20.371  22.630   0.596  0.00  0.00    -0.287 OA
HETATM   26  H   UNK N   1      20.855  23.178   1.232  0.00  0.00     0.244 HD
ENDBRANCH  23  25
ENDBRANCH  20  21
ENDBRANCH   4  19
TORSDOF 7
ENDMDL
MODEL 9
REMARK VINA RESULT:      -6.4      2.846      4.216
REMARK  7 active torsions:
REMARK  status: ('A' for Active; 'I' for Inactive)
REMARK    1  A    between atoms: N_2  and  C_4 
REMARK    2  A    between atoms: C_4  and  C_5 
REMARK    3  A    between atoms: C_8  and  S_11 
REMARK    4  A    between atoms: S_11  and  N_14 
REMARK    5  A    between atoms: C_17  and  C_19 
REMARK    6  A    between atoms: C_20  and  C_21 
REMARK       I    between atoms: C_21  and  N_23 
REMARK    7  A    between atoms: N_23  and  O_24 
ROOT
HETATM    1  N   UNK N   1      34.536  15.796   8.891  0.00  0.00    -0.257 N 
HETATM    2  C   UNK N   1      33.816  14.674   9.104  0.00  0.00     0.109 A 
HETATM    3  C   UNK N   1      34.249  14.065  10.274  0.00  0.00     0.031 A 
HETATM    4  C   UNK N   1      35.277  14.861  10.749  0.00  0.00    -0.018 A 
HETATM    5  C   UNK N   1      35.434  15.912   9.894  0.00  0.00     0.120 A 
ENDROOT
BRANCH   1   6
HETATM    6  S   UNK N   1      34.167  17.017   7.628  0.00  0.00     0.268 S 
HETATM    7  O   UNK N   1      33.783  15.683   6.956  0.00  0.00    -0.200 OA
HETATM    8  O   UNK N   1      33.114  17.373   8.692  0.00  0.00    -0.200 OA
BRANCH   6   9
HETATM    9  C   UNK N   1      32.531  17.144   6.744  0.00  0.00     0.080 A 
HETATM   10  C   UNK N   1      32.568  17.319   5.353  0.00  0.00     0.026 A 
HETATM   11  C   UNK N   1      31.388  17.473   4.616  0.00  0.00     0.010 A 
HETATM   12  C   UNK N   1      30.142  17.461   5.253  0.00  0.00    -0.030 A 
HETATM   13  C   UNK N   1      30.077  17.279   6.637  0.00  0.00     0.010 A 
HETATM   14  C   UNK N   1      31.246  17.108   7.380  0.00  0.00     0.026 A 
BRANCH  12  15
HETATM   15  C   UNK N   1      28.902  17.749   4.440  0.00  0.00     0.309 C 
BRANCH  15  16
HETATM   16  N   UNK N   1      27.872  18.572   5.088  0.00  0.00     0.084 N 
HETATM   17  C   UNK N   1      26.578  17.913   4.995  0.00  0.00     0.309 C 
HETATM   18  C   UNK N   1      27.778  19.905   4.510  0.00  0.00     0.309 C 
ENDBRANCH  15  16
ENDBRANCH  12  15
ENDBRANCH   6   9
ENDBRANCH   1   6
BRANCH   4  19
HETATM   19  C   UNK N   1      35.919  14.847  12.058  0.00  0.00     0.018 C 
HETATM   20  C   UNK N   1      35.751  13.858  12.933  0.00  0.00     0.077 C 
BRANCH  20  21
HETATM   21  C   UNK N   1      36.215  14.037  14.316  0.00  0.00     0.264 C 
HETATM   22  O   UNK N   1      35.622  13.475  15.227  0.00  0.00    -0.266 OA
HETATM   23  N   UNK N   1      37.244  14.874  14.588  0.00  0.00    -0.234 N 
HETATM   24  H   UNK N   1      37.710  15.325  13.847  0.00  0.00     0.197 HD
BRANCH  23  25
HETATM   25  O   UNK N   1      37.639  15.102  15.847  0.00  0.00    -0.287 OA
HETATM   26  H   UNK N   1      37.992  15.971  16.096  0.00  0.00     0.244 HD
ENDBRANCH  23  25
ENDBRANCH  20  21
ENDBRANCH   4  19
TORSDOF 7
ENDMDL
