MODEL 1
REMARK VINA RESULT:      -6.3      0.000      0.000
REMARK  21 active torsions:
REMARK  status: ('A' for Active; 'I' for Inactive)
REMARK    1  A    between atoms: C_2  and  O_41 
REMARK    2  A    between atoms: C_5  and  O_11 
REMARK    3  A    between atoms: C_6  and  O_10 
REMARK    4  A    between atoms: C_7  and  N_8 
REMARK    5  A    between atoms: C_12  and  O_11 
REMARK    6  A    between atoms: C_13  and  N_33 
REMARK    7  A    between atoms: C_15  and  N_32 
REMARK    8  A    between atoms: C_16  and  O_19 
REMARK    9  A    between atoms: C_17  and  O_18 
REMARK   10  A    between atoms: C_20  and  O_19 
REMARK   11  A    between atoms: C_21  and  N_31 
REMARK   12  A    between atoms: C_24  and  C_26 
REMARK   13  A    between atoms: C_26  and  N_27 
REMARK   14  A    between atoms: N_27  and  C_28 
REMARK   15  A    between atoms: C_28  and  C_29 
REMARK   16  A    between atoms: C_29  and  O_30 
REMARK       I    between atoms: N_33  and  C_34 
REMARK   17  A    between atoms: C_34  and  C_36 
REMARK   18  A    between atoms: C_36  and  C_37 
REMARK   19  A    between atoms: C_36  and  O_40 
REMARK   20  A    between atoms: C_37  and  C_38 
REMARK   21  A    between atoms: C_38  and  N_39 
ROOT
HETATM    1  C   UNK N   1      31.002  16.625   6.844  0.00  0.00     0.178 C 
HETATM    2  C   UNK N   1      31.128  17.119   8.287  0.00  0.00     0.118 C 
HETATM    3  C   UNK N   1      29.769  17.255   8.957  0.00  0.00     0.055 C 
HETATM    4  C   UNK N   1      29.033  18.373   8.230  0.00  0.00     0.107 C 
HETATM    5  C   UNK N   1      28.697  17.979   6.789  0.00  0.00     0.178 C 
HETATM    6  C   UNK N   1      29.898  17.360   6.056  0.00  0.00     0.180 C 
ENDROOT
BRANCH   5   7
HETATM    7  O   UNK N   1      28.289  19.146   6.097  0.00  0.00    -0.349 OA
BRANCH   7   8
HETATM    8  C   UNK N   1      27.005  18.947   5.553  0.00  0.00     0.288 C 
HETATM    9  C   UNK N   1      26.471  20.228   4.923  0.00  0.00     0.133 C 
HETATM   10  C   UNK N   1      25.090  19.943   4.323  0.00  0.00     0.059 C 
HETATM   11  C   UNK N   1      25.073  18.655   3.538  0.00  0.00     0.009 C 
HETATM   12  C   UNK N   1      26.039  17.735   3.701  0.00  0.00     0.063 C 
HETATM   13  O   UNK N   1      27.054  17.952   4.583  0.00  0.00    -0.321 OA
BRANCH   9  14
HETATM   14  N   UNK N   1      26.361  21.279   5.919  0.00  0.00    -0.422 N 
HETATM   15  H   UNK N   1      27.016  22.043   6.079  0.00  0.00     0.150 HD
HETATM   16  H   UNK N   1      25.541  21.248   6.524  0.00  0.00     0.150 HD
ENDBRANCH   9  14
BRANCH  12  17
HETATM   17  C   UNK N   1      26.024  16.481   2.884  0.00  0.00     0.178 C 
BRANCH  17  18
HETATM   18  N   UNK N   1      27.173  15.649   3.215  0.00  0.00    -0.414 N 
HETATM   19  H   UNK N   1      27.640  15.596   4.120  0.00  0.00     0.153 HD
BRANCH  18  20
HETATM   20  C   UNK N   1      27.528  14.907   2.016  0.00  0.00     0.140 C 
BRANCH  20  21
HETATM   21  C   UNK N   1      28.951  14.391   2.121  0.00  0.00     0.183 C 
BRANCH  21  22
HETATM   22  O   UNK N   1      29.778  15.392   2.629  0.00  0.00    -0.399 OA
HETATM   23  H   UNK N   1      29.955  15.791   3.496  0.00  0.00     0.209 HD
ENDBRANCH  21  22
ENDBRANCH  20  21
ENDBRANCH  18  20
ENDBRANCH  17  18
ENDBRANCH  12  17
ENDBRANCH   7   8
ENDBRANCH   5   7
BRANCH   4  24
HETATM   24  N   UNK N   1      27.818  18.717   8.946  0.00  0.00    -0.423 N 
HETATM   25  H   UNK N   1      27.806  19.116   9.885  0.00  0.00     0.150 HD
HETATM   26  H   UNK N   1      26.924  18.551   8.484  0.00  0.00     0.150 HD
ENDBRANCH   4  24
BRANCH   6  27
HETATM   27  O   UNK N   1      29.389  16.475   5.102  0.00  0.00    -0.390 OA
HETATM   28  H   UNK N   1      29.426  15.531   4.883  0.00  0.00     0.210 HD
ENDBRANCH   6  27
BRANCH   1  29
HETATM   29  O   UNK N   1      32.249  16.811   6.203  0.00  0.00    -0.349 OA
BRANCH  29  30
HETATM   30  C   UNK N   1      32.730  15.554   5.801  0.00  0.00     0.291 C 
HETATM   31  O   UNK N   1      32.011  15.119   4.673  0.00  0.00    -0.356 OA
HETATM   32  C   UNK N   1      32.250  13.739   4.573  0.00  0.00     0.210 C 
HETATM   33  C   UNK N   1      33.669  13.512   4.064  0.00  0.00     0.098 C 
HETATM   34  C   UNK N   1      33.800  14.108   2.667  0.00  0.00     0.050 C 
HETATM   35  C   UNK N   1      34.641  14.174   5.070  0.00  0.00     0.146 C 
HETATM   36  C   UNK N   1      34.210  15.606   5.424  0.00  0.00     0.198 C 
BRANCH  33  37
HETATM   37  O   UNK N   1      33.909  12.140   3.998  0.00  0.00    -0.386 OA
HETATM   38  H   UNK N   1      34.700  11.578   4.026  0.00  0.00     0.210 HD
ENDBRANCH  33  37
BRANCH  35  39
HETATM   39  N   UNK N   1      36.018  14.159   4.589  0.00  0.00    -0.416 N 
HETATM   40  C   UNK N   1      36.795  13.318   5.483  0.00  0.00     0.140 C 
HETATM   41  H   UNK N   1      36.372  14.652   3.769  0.00  0.00     0.153 HD
ENDBRANCH  35  39
BRANCH  36  42
HETATM   42  O   UNK N   1      34.962  16.070   6.500  0.00  0.00    -0.388 OA
HETATM   43  H   UNK N   1      34.985  15.601   7.348  0.00  0.00     0.210 HD
ENDBRANCH  36  42
ENDBRANCH  29  30
ENDBRANCH   1  29
BRANCH   2  44
HETATM   44  N   UNK N   1      32.047  16.310   9.071  0.00  0.00    -0.352 N 
HETATM   45  C   UNK N   1      33.339  16.645   9.340  0.00  0.00     0.246 C 
HETATM   46  O   UNK N   1      33.803  17.706   8.949  0.00  0.00    -0.271 OA
HETATM   47  H   UNK N   1      31.710  15.458   9.432  0.00  0.00     0.163 HD
BRANCH  45  48
HETATM   48  C   UNK N   1      34.215  15.704  10.127  0.00  0.00     0.211 C 
BRANCH  48  49
HETATM   49  C   UNK N   1      35.433  16.407  10.724  0.00  0.00     0.060 C 
BRANCH  49  50
HETATM   50  C   UNK N   1      36.565  15.435  11.023  0.00  0.00     0.114 C 
BRANCH  50  51
HETATM   51  N   UNK N   1      36.411  14.903  12.364  0.00  0.00    -0.430 N 
HETATM   52  H   UNK N   1      37.224  14.677  12.936  0.00  0.00     0.149 HD
HETATM   53  H   UNK N   1      35.474  14.753  12.740  0.00  0.00     0.149 HD
ENDBRANCH  50  51
ENDBRANCH  49  50
ENDBRANCH  48  49
BRANCH  48  54
HETATM   54  O   UNK N   1      33.495  15.048  11.130  0.00  0.00    -0.386 OA
HETATM   55  H   UNK N   1      32.942  15.115  11.924  0.00  0.00     0.210 HD
ENDBRANCH  48  54
ENDBRANCH  45  48
ENDBRANCH   2  44
TORSDOF 21
ENDMDL
MODEL 2
REMARK VINA RESULT:      -6.1      2.873      8.659
REMARK  21 active torsions:
REMARK  status: ('A' for Active; 'I' for Inactive)
REMARK    1  A    between atoms: C_2  and  O_41 
REMARK    2  A    between atoms: C_5  and  O_11 
REMARK    3  A    between atoms: C_6  and  O_10 
REMARK    4  A    between atoms: C_7  and  N_8 
REMARK    5  A    between atoms: C_12  and  O_11 
REMARK    6  A    between atoms: C_13  and  N_33 
REMARK    7  A    between atoms: C_15  and  N_32 
REMARK    8  A    between atoms: C_16  and  O_19 
REMARK    9  A    between atoms: C_17  and  O_18 
REMARK   10  A    between atoms: C_20  and  O_19 
REMARK   11  A    between atoms: C_21  and  N_31 
REMARK   12  A    between atoms: C_24  and  C_26 
REMARK   13  A    between atoms: C_26  and  N_27 
REMARK   14  A    between atoms: N_27  and  C_28 
REMARK   15  A    between atoms: C_28  and  C_29 
REMARK   16  A    between atoms: C_29  and  O_30 
REMARK       I    between atoms: N_33  and  C_34 
REMARK   17  A    between atoms: C_34  and  C_36 
REMARK   18  A    between atoms: C_36  and  C_37 
REMARK   19  A    between atoms: C_36  and  O_40 
REMARK   20  A    between atoms: C_37  and  C_38 
REMARK   21  A    between atoms: C_38  and  N_39 
ROOT
HETATM    1  C   UNK N   1      27.015  18.372   3.857  0.00  0.00     0.178 C 
HETATM    2  C   UNK N   1      25.904  18.948   4.737  0.00  0.00     0.118 C 
HETATM    3  C   UNK N   1      26.461  19.838   5.837  0.00  0.00     0.055 C 
HETATM    4  C   UNK N   1      27.261  18.936   6.767  0.00  0.00     0.107 C 
HETATM    5  C   UNK N   1      28.509  18.381   6.074  0.00  0.00     0.178 C 
HETATM    6  C   UNK N   1      28.202  17.823   4.676  0.00  0.00     0.180 C 
ENDROOT
BRANCH   5   7
HETATM    7  O   UNK N   1      29.033  17.339   6.878  0.00  0.00    -0.349 OA
BRANCH   7   8
HETATM    8  C   UNK N   1      30.376  17.622   7.199  0.00  0.00     0.288 C 
HETATM    9  C   UNK N   1      30.849  16.777   8.377  0.00  0.00     0.133 C 
HETATM   10  C   UNK N   1      32.319  17.103   8.658  0.00  0.00     0.059 C 
HETATM   11  C   UNK N   1      33.136  17.152   7.390  0.00  0.00     0.009 C 
HETATM   12  C   UNK N   1      32.543  17.275   6.191  0.00  0.00     0.063 C 
HETATM   13  O   UNK N   1      31.187  17.360   6.100  0.00  0.00    -0.321 OA
BRANCH   9  14
HETATM   14  N   UNK N   1      30.053  17.059   9.558  0.00  0.00    -0.422 N 
HETATM   15  H   UNK N   1      29.364  17.801   9.670  0.00  0.00     0.150 HD
HETATM   16  H   UNK N   1      30.200  16.448  10.361  0.00  0.00     0.150 HD
ENDBRANCH   9  14
BRANCH  12  17
HETATM   17  C   UNK N   1      33.370  17.283   4.944  0.00  0.00     0.178 C 
BRANCH  17  18
HETATM   18  N   UNK N   1      32.511  17.257   3.768  0.00  0.00    -0.414 N 
HETATM   19  H   UNK N   1      31.781  17.931   3.538  0.00  0.00     0.153 HD
BRANCH  18  20
HETATM   20  C   UNK N   1      32.888  16.093   2.983  0.00  0.00     0.140 C 
BRANCH  20  21
HETATM   21  C   UNK N   1      31.898  14.966   3.208  0.00  0.00     0.183 C 
BRANCH  21  22
HETATM   22  O   UNK N   1      30.735  15.469   3.789  0.00  0.00    -0.399 OA
HETATM   23  H   UNK N   1      29.811  15.599   3.523  0.00  0.00     0.209 HD
ENDBRANCH  21  22
ENDBRANCH  20  21
ENDBRANCH  18  20
ENDBRANCH  17  18
ENDBRANCH  12  17
ENDBRANCH   7   8
ENDBRANCH   5   7
BRANCH   4  24
HETATM   24  N   UNK N   1      27.643  19.666   7.963  0.00  0.00    -0.423 N 
HETATM   25  H   UNK N   1      27.001  20.247   8.502  0.00  0.00     0.150 HD
HETATM   26  H   UNK N   1      28.609  19.594   8.283  0.00  0.00     0.150 HD
ENDBRANCH   4  24
BRANCH   6  27
HETATM   27  O   UNK N   1      29.359  17.971   3.907  0.00  0.00    -0.390 OA
HETATM   28  H   UNK N   1      29.636  17.919   2.978  0.00  0.00     0.210 HD
ENDBRANCH   6  27
BRANCH   1  29
HETATM   29  O   UNK N   1      26.461  17.338   3.067  0.00  0.00    -0.349 OA
BRANCH  29  30
HETATM   30  C   UNK N   1      26.641  16.121   3.743  0.00  0.00     0.291 C 
HETATM   31  O   UNK N   1      25.402  15.676   4.239  0.00  0.00    -0.356 OA
HETATM   32  C   UNK N   1      25.702  14.708   5.212  0.00  0.00     0.210 C 
HETATM   33  C   UNK N   1      26.165  13.431   4.521  0.00  0.00     0.098 C 
HETATM   34  C   UNK N   1      25.029  12.888   3.663  0.00  0.00     0.050 C 
HETATM   35  C   UNK N   1      27.415  13.778   3.677  0.00  0.00     0.146 C 
HETATM   36  C   UNK N   1      27.195  15.035   2.821  0.00  0.00     0.198 C 
BRANCH  33  37
HETATM   37  O   UNK N   1      26.491  12.486   5.495  0.00  0.00    -0.386 OA
HETATM   38  H   UNK N   1      25.986  11.899   6.079  0.00  0.00     0.210 HD
ENDBRANCH  33  37
BRANCH  35  39
HETATM   39  N   UNK N   1      27.838  12.659   2.843  0.00  0.00    -0.416 N 
HETATM   40  C   UNK N   1      29.146  12.227   3.305  0.00  0.00     0.140 C 
HETATM   41  H   UNK N   1      27.308  12.252   2.073  0.00  0.00     0.153 HD
ENDBRANCH  35  39
BRANCH  36  42
HETATM   42  O   UNK N   1      28.407  15.446   2.272  0.00  0.00    -0.388 OA
HETATM   43  H   UNK N   1      29.258  15.174   2.649  0.00  0.00     0.210 HD
ENDBRANCH  36  42
ENDBRANCH  29  30
ENDBRANCH   1  29
BRANCH   2  44
HETATM   44  N   UNK N   1      24.873  19.616   3.962  0.00  0.00    -0.352 N 
HETATM   45  C   UNK N   1      23.576  19.207   3.880  0.00  0.00     0.246 C 
HETATM   46  O   UNK N   1      23.188  18.235   4.511  0.00  0.00    -0.271 OA
HETATM   47  H   UNK N   1      25.130  20.422   3.458  0.00  0.00     0.163 HD
BRANCH  45  48
HETATM   48  C   UNK N   1      22.602  19.954   3.005  0.00  0.00     0.211 C 
BRANCH  48  49
HETATM   49  C   UNK N   1      21.156  19.788   3.472  0.00  0.00     0.060 C 
BRANCH  49  50
HETATM   50  C   UNK N   1      20.220  19.442   2.324  0.00  0.00     0.114 C 
BRANCH  50  51
HETATM   51  N   UNK N   1      20.394  20.398   1.247  0.00  0.00    -0.430 N 
HETATM   52  H   UNK N   1      20.262  20.122   0.274  0.00  0.00     0.149 HD
HETATM   53  H   UNK N   1      20.651  21.361   1.466  0.00  0.00     0.149 HD
ENDBRANCH  50  51
ENDBRANCH  49  50
ENDBRANCH  48  49
BRANCH  48  54
HETATM   54  O   UNK N   1      22.928  21.310   2.913  0.00  0.00    -0.386 OA
HETATM   55  H   UNK N   1      23.616  21.994   2.924  0.00  0.00     0.210 HD
ENDBRANCH  48  54
ENDBRANCH  45  48
ENDBRANCH   2  44
TORSDOF 21
ENDMDL
MODEL 3
REMARK VINA RESULT:      -6.0      2.370      2.958
REMARK  21 active torsions:
REMARK  status: ('A' for Active; 'I' for Inactive)
REMARK    1  A    between atoms: C_2  and  O_41 
REMARK    2  A    between atoms: C_5  and  O_11 
REMARK    3  A    between atoms: C_6  and  O_10 
REMARK    4  A    between atoms: C_7  and  N_8 
REMARK    5  A    between atoms: C_12  and  O_11 
REMARK    6  A    between atoms: C_13  and  N_33 
REMARK    7  A    between atoms: C_15  and  N_32 
REMARK    8  A    between atoms: C_16  and  O_19 
REMARK    9  A    between atoms: C_17  and  O_18 
REMARK   10  A    between atoms: C_20  and  O_19 
REMARK   11  A    between atoms: C_21  and  N_31 
REMARK   12  A    between atoms: C_24  and  C_26 
REMARK   13  A    between atoms: C_26  and  N_27 
REMARK   14  A    between atoms: N_27  and  C_28 
REMARK   15  A    between atoms: C_28  and  C_29 
REMARK   16  A    between atoms: C_29  and  O_30 
REMARK       I    between atoms: N_33  and  C_34 
REMARK   17  A    between atoms: C_34  and  C_36 
REMARK   18  A    between atoms: C_36  and  C_37 
REMARK   19  A    between atoms: C_36  and  O_40 
REMARK   20  A    between atoms: C_37  and  C_38 
REMARK   21  A    between atoms: C_38  and  N_39 
ROOT
HETATM    1  C   UNK N   1      31.276  16.785   6.853  0.00  0.00     0.178 C 
HETATM    2  C   UNK N   1      31.421  17.403   8.245  0.00  0.00     0.118 C 
HETATM    3  C   UNK N   1      30.107  17.385   9.010  0.00  0.00     0.055 C 
HETATM    4  C   UNK N   1      29.157  18.318   8.270  0.00  0.00     0.107 C 
HETATM    5  C   UNK N   1      28.789  17.766   6.890  0.00  0.00     0.178 C 
HETATM    6  C   UNK N   1      30.020  17.281   6.107  0.00  0.00     0.180 C 
ENDROOT
BRANCH   5   7
HETATM    7  O   UNK N   1      28.158  18.800   6.156  0.00  0.00    -0.349 OA
BRANCH   7   8
HETATM    8  C   UNK N   1      26.996  18.297   5.537  0.00  0.00     0.288 C 
HETATM    9  C   UNK N   1      27.098  18.390   4.019  0.00  0.00     0.133 C 
HETATM   10  C   UNK N   1      25.825  17.802   3.403  0.00  0.00     0.059 C 
HETATM   11  C   UNK N   1      25.438  16.496   4.052  0.00  0.00     0.009 C 
HETATM   12  C   UNK N   1      25.941  16.145   5.248  0.00  0.00     0.063 C 
HETATM   13  O   UNK N   1      26.810  16.966   5.897  0.00  0.00    -0.321 OA
BRANCH   9  14
HETATM   14  N   UNK N   1      27.246  19.773   3.602  0.00  0.00    -0.422 N 
HETATM   15  H   UNK N   1      26.624  20.550   3.823  0.00  0.00     0.150 HD
HETATM   16  H   UNK N   1      28.060  19.990   3.027  0.00  0.00     0.150 HD
ENDBRANCH   9  14
BRANCH  12  17
HETATM   17  C   UNK N   1      25.573  14.827   5.855  0.00  0.00     0.178 C 
BRANCH  17  18
HETATM   18  N   UNK N   1      25.587  14.920   7.309  0.00  0.00    -0.414 N 
HETATM   19  H   UNK N   1      26.072  15.624   7.865  0.00  0.00     0.153 HD
BRANCH  18  20
HETATM   20  C   UNK N   1      24.781  13.823   7.820  0.00  0.00     0.140 C 
BRANCH  20  21
HETATM   21  C   UNK N   1      25.181  13.497   9.246  0.00  0.00     0.183 C 
BRANCH  21  22
HETATM   22  O   UNK N   1      24.040  13.341  10.032  0.00  0.00    -0.399 OA
HETATM   23  H   UNK N   1      23.379  13.921  10.441  0.00  0.00     0.209 HD
ENDBRANCH  21  22
ENDBRANCH  20  21
ENDBRANCH  18  20
ENDBRANCH  17  18
ENDBRANCH  12  17
ENDBRANCH   7   8
ENDBRANCH   5   7
BRANCH   4  24
HETATM   24  N   UNK N   1      27.954  18.529   9.056  0.00  0.00    -0.423 N 
HETATM   25  H   UNK N   1      27.887  18.332  10.054  0.00  0.00     0.150 HD
HETATM   26  H   UNK N   1      27.129  18.895   8.582  0.00  0.00     0.150 HD
ENDBRANCH   4  24
BRANCH   6  27
HETATM   27  O   UNK N   1      29.593  16.256   5.258  0.00  0.00    -0.390 OA
HETATM   28  H   UNK N   1      29.555  15.287   5.237  0.00  0.00     0.210 HD
ENDBRANCH   6  27
BRANCH   1  29
HETATM   29  O   UNK N   1      32.433  17.106   6.105  0.00  0.00    -0.349 OA
BRANCH  29  30
HETATM   30  C   UNK N   1      33.057  15.908   5.720  0.00  0.00     0.291 C 
HETATM   31  O   UNK N   1      32.545  14.848   6.491  0.00  0.00    -0.356 OA
HETATM   32  C   UNK N   1      33.461  13.793   6.350  0.00  0.00     0.210 C 
HETATM   33  C   UNK N   1      33.312  13.183   4.961  0.00  0.00     0.098 C 
HETATM   34  C   UNK N   1      31.911  12.602   4.819  0.00  0.00     0.050 C 
HETATM   35  C   UNK N   1      33.585  14.300   3.925  0.00  0.00     0.146 C 
HETATM   36  C   UNK N   1      32.804  15.583   4.249  0.00  0.00     0.198 C 
BRANCH  33  37
HETATM   37  O   UNK N   1      34.247  12.157   4.819  0.00  0.00    -0.386 OA
HETATM   38  H   UNK N   1      34.945  11.781   5.378  0.00  0.00     0.210 HD
ENDBRANCH  33  37
BRANCH  35  39
HETATM   39  N   UNK N   1      33.304  13.860   2.563  0.00  0.00    -0.416 N 
HETATM   40  C   UNK N   1      34.561  13.827   1.836  0.00  0.00     0.140 C 
HETATM   41  H   UNK N   1      32.387  13.618   2.189  0.00  0.00     0.153 HD
ENDBRANCH  35  39
BRANCH  36  42
HETATM   42  O   UNK N   1      33.260  16.624   3.444  0.00  0.00    -0.388 OA
HETATM   43  H   UNK N   1      34.090  17.089   3.629  0.00  0.00     0.210 HD
ENDBRANCH  36  42
ENDBRANCH  29  30
ENDBRANCH   1  29
BRANCH   2  44
HETATM   44  N   UNK N   1      32.506  16.807   9.006  0.00  0.00    -0.352 N 
HETATM   45  C   UNK N   1      33.761  17.327   9.106  0.00  0.00     0.246 C 
HETATM   46  O   UNK N   1      34.042  18.387   8.567  0.00  0.00    -0.271 OA
HETATM   47  H   UNK N   1      32.320  15.966   9.483  0.00  0.00     0.163 HD
BRANCH  45  48
HETATM   48  C   UNK N   1      34.822  16.595   9.888  0.00  0.00     0.211 C 
BRANCH  48  49
HETATM   49  C   UNK N   1      35.431  15.438   9.098  0.00  0.00     0.060 C 
BRANCH  49  50
HETATM   50  C   UNK N   1      36.077  14.402  10.006  0.00  0.00     0.114 C 
BRANCH  50  51
HETATM   51  N   UNK N   1      37.272  14.960  10.610  0.00  0.00    -0.430 N 
HETATM   52  H   UNK N   1      37.576  14.667  11.539  0.00  0.00     0.149 HD
HETATM   53  H   UNK N   1      37.817  15.654  10.099  0.00  0.00     0.149 HD
ENDBRANCH  50  51
ENDBRANCH  49  50
ENDBRANCH  48  49
BRANCH  48  54
HETATM   54  O   UNK N   1      35.826  17.461  10.329  0.00  0.00    -0.386 OA
HETATM   55  H   UNK N   1      36.774  17.663  10.387  0.00  0.00     0.210 HD
ENDBRANCH  48  54
ENDBRANCH  45  48
ENDBRANCH   2  44
TORSDOF 21
ENDMDL
MODEL 4
REMARK VINA RESULT:      -5.9      3.449      9.779
REMARK  21 active torsions:
REMARK  status: ('A' for Active; 'I' for Inactive)
REMARK    1  A    between atoms: C_2  and  O_41 
REMARK    2  A    between atoms: C_5  and  O_11 
REMARK    3  A    between atoms: C_6  and  O_10 
REMARK    4  A    between atoms: C_7  and  N_8 
REMARK    5  A    between atoms: C_12  and  O_11 
REMARK    6  A    between atoms: C_13  and  N_33 
REMARK    7  A    between atoms: C_15  and  N_32 
REMARK    8  A    between atoms: C_16  and  O_19 
REMARK    9  A    between atoms: C_17  and  O_18 
REMARK   10  A    between atoms: C_20  and  O_19 
REMARK   11  A    between atoms: C_21  and  N_31 
REMARK   12  A    between atoms: C_24  and  C_26 
REMARK   13  A    between atoms: C_26  and  N_27 
REMARK   14  A    between atoms: N_27  and  C_28 
REMARK   15  A    between atoms: C_28  and  C_29 
REMARK   16  A    between atoms: C_29  and  O_30 
REMARK       I    between atoms: N_33  and  C_34 
REMARK   17  A    between atoms: C_34  and  C_36 
REMARK   18  A    between atoms: C_36  and  C_37 
REMARK   19  A    between atoms: C_36  and  O_40 
REMARK   20  A    between atoms: C_37  and  C_38 
REMARK   21  A    between atoms: C_38  and  N_39 
ROOT
HETATM    1  C   UNK N   1      25.562  17.758   4.372  0.00  0.00     0.178 C 
HETATM    2  C   UNK N   1      25.011  19.147   4.701  0.00  0.00     0.118 C 
HETATM    3  C   UNK N   1      26.125  20.169   4.872  0.00  0.00     0.055 C 
HETATM    4  C   UNK N   1      26.906  19.761   6.113  0.00  0.00     0.107 C 
HETATM    5  C   UNK N   1      27.648  18.439   5.900  0.00  0.00     0.178 C 
HETATM    6  C   UNK N   1      26.753  17.360   5.269  0.00  0.00     0.180 C 
ENDROOT
BRANCH   5   7
HETATM    7  O   UNK N   1      28.101  17.978   7.161  0.00  0.00    -0.349 OA
BRANCH   7   8
HETATM    8  C   UNK N   1      29.475  17.674   7.086  0.00  0.00     0.288 C 
HETATM    9  C   UNK N   1      30.099  17.604   8.475  0.00  0.00     0.133 C 
HETATM   10  C   UNK N   1      31.580  17.241   8.332  0.00  0.00     0.059 C 
HETATM   11  C   UNK N   1      31.790  16.111   7.355  0.00  0.00     0.009 C 
HETATM   12  C   UNK N   1      30.833  15.774   6.474  0.00  0.00     0.063 C 
HETATM   13  O   UNK N   1      29.653  16.451   6.448  0.00  0.00    -0.321 OA
BRANCH   9  14
HETATM   14  N   UNK N   1      29.974  18.881   9.155  0.00  0.00    -0.422 N 
HETATM   15  H   UNK N   1      29.615  19.751   8.764  0.00  0.00     0.150 HD
HETATM   16  H   UNK N   1      30.278  18.910  10.127  0.00  0.00     0.150 HD
ENDBRANCH   9  14
BRANCH  12  17
HETATM   17  C   UNK N   1      31.047  14.624   5.540  0.00  0.00     0.178 C 
BRANCH  17  18
HETATM   18  N   UNK N   1      29.830  14.351   4.788  0.00  0.00    -0.414 N 
HETATM   19  H   UNK N   1      28.907  14.159   5.180  0.00  0.00     0.153 HD
BRANCH  18  20
HETATM   20  C   UNK N   1      30.173  14.402   3.376  0.00  0.00     0.140 C 
BRANCH  20  21
HETATM   21  C   UNK N   1      28.998  13.944   2.533  0.00  0.00     0.183 C 
BRANCH  21  22
HETATM   22  O   UNK N   1      27.854  13.862   3.326  0.00  0.00    -0.399 OA
HETATM   23  H   UNK N   1      27.396  14.429   3.967  0.00  0.00     0.209 HD
ENDBRANCH  21  22
ENDBRANCH  20  21
ENDBRANCH  18  20
ENDBRANCH  17  18
ENDBRANCH  12  17
ENDBRANCH   7   8
ENDBRANCH   5   7
BRANCH   4  24
HETATM   24  N   UNK N   1      27.849  20.805   6.474  0.00  0.00    -0.423 N 
HETATM   25  H   UNK N   1      27.581  21.770   6.665  0.00  0.00     0.150 HD
HETATM   26  H   UNK N   1      28.837  20.559   6.541  0.00  0.00     0.150 HD
ENDBRANCH   4  24
BRANCH   6  27
HETATM   27  O   UNK N   1      27.582  16.512   4.531  0.00  0.00    -0.390 OA
HETATM   28  H   UNK N   1      28.143  15.732   4.666  0.00  0.00     0.210 HD
ENDBRANCH   6  27
BRANCH   1  29
HETATM   29  O   UNK N   1      24.515  16.820   4.526  0.00  0.00    -0.349 OA
BRANCH  29  30
HETATM   30  C   UNK N   1      24.260  16.234   3.276  0.00  0.00     0.291 C 
HETATM   31  O   UNK N   1      25.364  15.449   2.896  0.00  0.00    -0.356 OA
HETATM   32  C   UNK N   1      25.224  15.230   1.515  0.00  0.00     0.210 C 
HETATM   33  C   UNK N   1      24.109  14.218   1.280  0.00  0.00     0.098 C 
HETATM   34  C   UNK N   1      24.496  12.891   1.923  0.00  0.00     0.050 C 
HETATM   35  C   UNK N   1      22.809  14.799   1.887  0.00  0.00     0.146 C 
HETATM   36  C   UNK N   1      23.031  15.327   3.314  0.00  0.00     0.198 C 
BRANCH  33  37
HETATM   37  O   UNK N   1      23.954  14.030  -0.093  0.00  0.00    -0.386 OA
HETATM   38  H   UNK N   1      23.507  14.512  -0.807  0.00  0.00     0.210 HD
ENDBRANCH  33  37
BRANCH  35  39
HETATM   39  N   UNK N   1      21.716  13.833   1.863  0.00  0.00    -0.416 N 
HETATM   40  C   UNK N   1      20.676  14.358   0.996  0.00  0.00     0.140 C 
HETATM   41  H   UNK N   1      21.689  12.946   2.366  0.00  0.00     0.153 HD
ENDBRANCH  35  39
BRANCH  36  42
HETATM   42  O   UNK N   1      21.914  16.050   3.724  0.00  0.00    -0.388 OA
HETATM   43  H   UNK N   1      21.082  16.032   3.227  0.00  0.00     0.210 HD
ENDBRANCH  36  42
ENDBRANCH  29  30
ENDBRANCH   1  29
BRANCH   2  44
HETATM   44  N   UNK N   1      24.007  19.585   3.746  0.00  0.00    -0.352 N 
HETATM   45  C   UNK N   1      22.665  19.410   3.896  0.00  0.00     0.246 C 
HETATM   46  O   UNK N   1      22.213  18.884   4.902  0.00  0.00    -0.271 OA
HETATM   47  H   UNK N   1      24.321  20.041   2.931  0.00  0.00     0.163 HD
BRANCH  45  48
HETATM   48  C   UNK N   1      21.718  19.866   2.815  0.00  0.00     0.211 C 
BRANCH  48  49
HETATM   49  C   UNK N   1      20.275  19.446   3.092  0.00  0.00     0.060 C 
BRANCH  49  50
HETATM   50  C   UNK N   1      19.855  18.252   2.246  0.00  0.00     0.114 C 
BRANCH  50  51
HETATM   51  N   UNK N   1      19.260  17.238   3.096  0.00  0.00    -0.430 N 
HETATM   52  H   UNK N   1      19.590  17.092   4.050  0.00  0.00     0.149 HD
HETATM   53  H   UNK N   1      18.499  16.662   2.735  0.00  0.00     0.149 HD
ENDBRANCH  50  51
ENDBRANCH  49  50
ENDBRANCH  48  49
BRANCH  48  54
HETATM   54  O   UNK N   1      21.790  21.248   2.617  0.00  0.00    -0.386 OA
HETATM   55  H   UNK N   1      21.672  22.139   2.981  0.00  0.00     0.210 HD
ENDBRANCH  48  54
ENDBRANCH  45  48
ENDBRANCH   2  44
TORSDOF 21
ENDMDL
MODEL 5
REMARK VINA RESULT:      -5.8      4.196      7.943
REMARK  21 active torsions:
REMARK  status: ('A' for Active; 'I' for Inactive)
REMARK    1  A    between atoms: C_2  and  O_41 
REMARK    2  A    between atoms: C_5  and  O_11 
REMARK    3  A    between atoms: C_6  and  O_10 
REMARK    4  A    between atoms: C_7  and  N_8 
REMARK    5  A    between atoms: C_12  and  O_11 
REMARK    6  A    between atoms: C_13  and  N_33 
REMARK    7  A    between atoms: C_15  and  N_32 
REMARK    8  A    between atoms: C_16  and  O_19 
REMARK    9  A    between atoms: C_17  and  O_18 
REMARK   10  A    between atoms: C_20  and  O_19 
REMARK   11  A    between atoms: C_21  and  N_31 
REMARK   12  A    between atoms: C_24  and  C_26 
REMARK   13  A    between atoms: C_26  and  N_27 
REMARK   14  A    between atoms: N_27  and  C_28 
REMARK   15  A    between atoms: C_28  and  C_29 
REMARK   16  A    between atoms: C_29  and  O_30 
REMARK       I    between atoms: N_33  and  C_34 
REMARK   17  A    between atoms: C_34  and  C_36 
REMARK   18  A    between atoms: C_36  and  C_37 
REMARK   19  A    between atoms: C_36  and  O_40 
REMARK   20  A    between atoms: C_37  and  C_38 
REMARK   21  A    between atoms: C_38  and  N_39 
ROOT
HETATM    1  C   UNK N   1      35.790  13.524  10.838  0.00  0.00     0.178 C 
HETATM    2  C   UNK N   1      36.285  14.805  11.513  0.00  0.00     0.118 C 
HETATM    3  C   UNK N   1      35.313  15.958  11.317  0.00  0.00     0.055 C 
HETATM    4  C   UNK N   1      35.311  16.282   9.829  0.00  0.00     0.107 C 
HETATM    5  C   UNK N   1      34.703  15.142   9.007  0.00  0.00     0.178 C 
HETATM    6  C   UNK N   1      35.264  13.767   9.409  0.00  0.00     0.180 C 
ENDROOT
BRANCH   5   7
HETATM    7  O   UNK N   1      34.999  15.375   7.642  0.00  0.00    -0.349 OA
BRANCH   7   8
HETATM    8  C   UNK N   1      33.799  15.495   6.913  0.00  0.00     0.288 C 
HETATM    9  C   UNK N   1      33.218  14.125   6.584  0.00  0.00     0.133 C 
HETATM   10  C   UNK N   1      31.903  14.318   5.822  0.00  0.00     0.059 C 
HETATM   11  C   UNK N   1      31.032  15.371   6.462  0.00  0.00     0.009 C 
HETATM   12  C   UNK N   1      31.546  16.254   7.334  0.00  0.00     0.063 C 
HETATM   13  O   UNK N   1      32.868  16.215   7.655  0.00  0.00    -0.321 OA
BRANCH   9  14
HETATM   14  N   UNK N   1      34.145  13.361   5.769  0.00  0.00    -0.422 N 
HETATM   15  H   UNK N   1      34.117  12.359   5.583  0.00  0.00     0.150 HD
HETATM   16  H   UNK N   1      34.906  13.883   5.335  0.00  0.00     0.150 HD
ENDBRANCH   9  14
BRANCH  12  17
HETATM   17  C   UNK N   1      30.656  17.266   7.987  0.00  0.00     0.178 C 
BRANCH  17  18
HETATM   18  N   UNK N   1      30.812  17.216   9.434  0.00  0.00    -0.414 N 
HETATM   19  H   UNK N   1      31.693  17.180   9.947  0.00  0.00     0.153 HD
BRANCH  18  20
HETATM   20  C   UNK N   1      29.478  17.226  10.013  0.00  0.00     0.140 C 
BRANCH  20  21
HETATM   21  C   UNK N   1      28.441  17.484   8.936  0.00  0.00     0.183 C 
BRANCH  21  22
HETATM   22  O   UNK N   1      27.438  18.313   9.437  0.00  0.00    -0.399 OA
HETATM   23  H   UNK N   1      27.054  18.512  10.306  0.00  0.00     0.209 HD
ENDBRANCH  21  22
ENDBRANCH  20  21
ENDBRANCH  18  20
ENDBRANCH  17  18
ENDBRANCH  12  17
ENDBRANCH   7   8
ENDBRANCH   5   7
BRANCH   4  24
HETATM   24  N   UNK N   1      34.578  17.512   9.587  0.00  0.00    -0.423 N 
HETATM   25  H   UNK N   1      34.599  18.316  10.213  0.00  0.00     0.150 HD
HETATM   26  H   UNK N   1      34.011  17.574   8.742  0.00  0.00     0.150 HD
ENDBRANCH   4  24
BRANCH   6  27
HETATM   27  O   UNK N   1      34.266  12.822   9.152  0.00  0.00    -0.390 OA
HETATM   28  H   UNK N   1      34.033  12.166   8.477  0.00  0.00     0.210 HD
ENDBRANCH   6  27
BRANCH   1  29
HETATM   29  O   UNK N   1      36.862  12.602  10.802  0.00  0.00    -0.349 OA
BRANCH  29  30
HETATM   30  C   UNK N   1      36.463  11.435  11.474  0.00  0.00     0.291 C 
HETATM   31  O   UNK N   1      36.026  10.483  10.535  0.00  0.00    -0.356 OA
HETATM   32  C   UNK N   1      35.290   9.534  11.263  0.00  0.00     0.210 C 
HETATM   33  C   UNK N   1      36.250   8.665  12.068  0.00  0.00     0.098 C 
HETATM   34  C   UNK N   1      37.161   7.908  11.109  0.00  0.00     0.050 C 
HETATM   35  C   UNK N   1      37.048   9.596  13.012  0.00  0.00     0.146 C 
HETATM   36  C   UNK N   1      37.613  10.817  12.269  0.00  0.00     0.198 C 
BRANCH  33  37
HETATM   37  O   UNK N   1      35.509   7.747  12.812  0.00  0.00    -0.386 OA
HETATM   38  H   UNK N   1      35.082   7.755  13.684  0.00  0.00     0.210 HD
ENDBRANCH  33  37
BRANCH  35  39
HETATM   39  N   UNK N   1      38.114   8.883  13.708  0.00  0.00    -0.416 N 
HETATM   40  C   UNK N   1      37.819   8.917  15.130  0.00  0.00     0.140 C 
HETATM   41  H   UNK N   1      38.922   8.440  13.272  0.00  0.00     0.153 HD
ENDBRANCH  35  39
BRANCH  36  42
HETATM   42  O   UNK N   1      38.108  11.738  13.189  0.00  0.00    -0.388 OA
HETATM   43  H   UNK N   1      37.573  12.057  13.932  0.00  0.00     0.210 HD
ENDBRANCH  36  42
ENDBRANCH  29  30
ENDBRANCH   1  29
BRANCH   2  44
HETATM   44  N   UNK N   1      36.619  14.601  12.913  0.00  0.00    -0.352 N 
HETATM   45  C   UNK N   1      35.803  14.004  13.826  0.00  0.00     0.246 C 
HETATM   46  O   UNK N   1      34.716  13.557  13.492  0.00  0.00    -0.271 OA
HETATM   47  H   UNK N   1      37.497  14.919  13.223  0.00  0.00     0.163 HD
BRANCH  45  48
HETATM   48  C   UNK N   1      36.237  13.888  15.265  0.00  0.00     0.211 C 
BRANCH  48  49
HETATM   49  C   UNK N   1      36.042  12.477  15.818  0.00  0.00     0.060 C 
BRANCH  49  50
HETATM   50  C   UNK N   1      34.937  12.420  16.862  0.00  0.00     0.114 C 
BRANCH  50  51
HETATM   51  N   UNK N   1      35.310  13.223  18.012  0.00  0.00    -0.430 N 
HETATM   52  H   UNK N   1      35.669  12.788  18.862  0.00  0.00     0.149 HD
HETATM   53  H   UNK N   1      35.214  14.238  17.969  0.00  0.00     0.149 HD
ENDBRANCH  50  51
ENDBRANCH  49  50
ENDBRANCH  48  49
BRANCH  48  54
HETATM   54  O   UNK N   1      37.563  14.296  15.437  0.00  0.00    -0.386 OA
HETATM   55  H   UNK N   1      38.487  14.238  15.147  0.00  0.00     0.210 HD
ENDBRANCH  48  54
ENDBRANCH  45  48
ENDBRANCH   2  44
TORSDOF 21
ENDMDL
MODEL 6
REMARK VINA RESULT:      -5.7      4.666     10.678
REMARK  21 active torsions:
REMARK  status: ('A' for Active; 'I' for Inactive)
REMARK    1  A    between atoms: C_2  and  O_41 
REMARK    2  A    between atoms: C_5  and  O_11 
REMARK    3  A    between atoms: C_6  and  O_10 
REMARK    4  A    between atoms: C_7  and  N_8 
REMARK    5  A    between atoms: C_12  and  O_11 
REMARK    6  A    between atoms: C_13  and  N_33 
REMARK    7  A    between atoms: C_15  and  N_32 
REMARK    8  A    between atoms: C_16  and  O_19 
REMARK    9  A    between atoms: C_17  and  O_18 
REMARK   10  A    between atoms: C_20  and  O_19 
REMARK   11  A    between atoms: C_21  and  N_31 
REMARK   12  A    between atoms: C_24  and  C_26 
REMARK   13  A    between atoms: C_26  and  N_27 
REMARK   14  A    between atoms: N_27  and  C_28 
REMARK   15  A    between atoms: C_28  and  C_29 
REMARK   16  A    between atoms: C_29  and  O_30 
REMARK       I    between atoms: N_33  and  C_34 
REMARK   17  A    between atoms: C_34  and  C_36 
REMARK   18  A    between atoms: C_36  and  C_37 
REMARK   19  A    between atoms: C_36  and  O_40 
REMARK   20  A    between atoms: C_37  and  C_38 
REMARK   21  A    between atoms: C_38  and  N_39 
ROOT
HETATM    1  C   UNK N   1      23.799  17.453   4.815  0.00  0.00     0.178 C 
HETATM    2  C   UNK N   1      23.340  18.721   4.091  0.00  0.00     0.118 C 
HETATM    3  C   UNK N   1      24.475  19.368   3.313  0.00  0.00     0.055 C 
HETATM    4  C   UNK N   1      25.487  19.857   4.342  0.00  0.00     0.107 C 
HETATM    5  C   UNK N   1      26.157  18.688   5.069  0.00  0.00     0.178 C 
HETATM    6  C   UNK N   1      25.142  17.640   5.552  0.00  0.00     0.180 C 
ENDROOT
BRANCH   5   7
HETATM    7  O   UNK N   1      26.849  19.206   6.191  0.00  0.00    -0.349 OA
BRANCH   7   8
HETATM    8  C   UNK N   1      28.100  18.567   6.308  0.00  0.00     0.288 C 
HETATM    9  C   UNK N   1      28.240  17.876   7.660  0.00  0.00     0.133 C 
HETATM   10  C   UNK N   1      29.601  17.176   7.717  0.00  0.00     0.059 C 
HETATM   11  C   UNK N   1      29.895  16.414   6.449  0.00  0.00     0.009 C 
HETATM   12  C   UNK N   1      29.213  16.667   5.319  0.00  0.00     0.063 C 
HETATM   13  O   UNK N   1      28.242  17.620   5.300  0.00  0.00    -0.321 OA
BRANCH   9  14
HETATM   14  N   UNK N   1      28.144  18.844   8.739  0.00  0.00    -0.422 N 
HETATM   15  H   UNK N   1      27.910  18.655   9.713  0.00  0.00     0.150 HD
HETATM   16  H   UNK N   1      28.331  19.816   8.495  0.00  0.00     0.150 HD
ENDBRANCH   9  14
BRANCH  12  17
HETATM   17  C   UNK N   1      29.494  15.872   4.082  0.00  0.00     0.178 C 
BRANCH  17  18
HETATM   18  N   UNK N   1      28.331  15.071   3.722  0.00  0.00    -0.414 N 
HETATM   19  H   UNK N   1      27.773  14.497   4.353  0.00  0.00     0.153 HD
BRANCH  18  20
HETATM   20  C   UNK N   1      28.115  15.243   2.294  0.00  0.00     0.140 C 
BRANCH  20  21
HETATM   21  C   UNK N   1      26.631  15.210   1.980  0.00  0.00     0.183 C 
BRANCH  21  22
HETATM   22  O   UNK N   1      25.904  15.049   3.159  0.00  0.00    -0.399 OA
HETATM   23  H   UNK N   1      25.033  15.315   3.494  0.00  0.00     0.209 HD
ENDBRANCH  21  22
ENDBRANCH  20  21
ENDBRANCH  18  20
ENDBRANCH  17  18
ENDBRANCH  12  17
ENDBRANCH   7   8
ENDBRANCH   5   7
BRANCH   4  24
HETATM   24  N   UNK N   1      26.493  20.682   3.697  0.00  0.00    -0.423 N 
HETATM   25  H   UNK N   1      26.299  21.303   2.913  0.00  0.00     0.150 HD
HETATM   26  H   UNK N   1      27.449  20.637   4.051  0.00  0.00     0.150 HD
ENDBRANCH   4  24
BRANCH   6  27
HETATM   27  O   UNK N   1      25.797  16.405   5.569  0.00  0.00    -0.390 OA
HETATM   28  H   UNK N   1      25.640  15.494   5.862  0.00  0.00     0.210 HD
ENDBRANCH   6  27
BRANCH   1  29
HETATM   29  O   UNK N   1      22.795  17.085   5.740  0.00  0.00    -0.349 OA
BRANCH  29  30
HETATM   30  C   UNK N   1      22.671  15.685   5.723  0.00  0.00     0.291 C 
HETATM   31  O   UNK N   1      23.139  15.162   6.943  0.00  0.00    -0.356 OA
HETATM   32  C   UNK N   1      23.360  13.794   6.715  0.00  0.00     0.210 C 
HETATM   33  C   UNK N   1      22.018  13.076   6.636  0.00  0.00     0.098 C 
HETATM   34  C   UNK N   1      21.300  13.213   7.974  0.00  0.00     0.050 C 
HETATM   35  C   UNK N   1      21.212  13.711   5.478  0.00  0.00     0.146 C 
HETATM   36  C   UNK N   1      21.218  15.246   5.551  0.00  0.00     0.198 C 
BRANCH  33  37
HETATM   37  O   UNK N   1      22.246  11.724   6.378  0.00  0.00    -0.386 OA
HETATM   38  H   UNK N   1      22.930  11.220   5.910  0.00  0.00     0.210 HD
ENDBRANCH  33  37
BRANCH  35  39
HETATM   39  N   UNK N   1      19.844  13.207   5.426  0.00  0.00    -0.416 N 
HETATM   40  C   UNK N   1      19.691  12.456   4.191  0.00  0.00     0.140 C 
HETATM   41  H   UNK N   1      19.123  13.355   6.132  0.00  0.00     0.153 HD
ENDBRANCH  35  39
BRANCH  36  42
HETATM   42  O   UNK N   1      20.695  15.772   4.373  0.00  0.00    -0.388 OA
HETATM   43  H   UNK N   1      19.782  15.598   4.095  0.00  0.00     0.210 HD
ENDBRANCH  36  42
ENDBRANCH  29  30
ENDBRANCH   1  29
BRANCH   2  44
HETATM   44  N   UNK N   1      22.169  18.491   3.261  0.00  0.00    -0.352 N 
HETATM   45  C   UNK N   1      20.951  19.069   3.461  0.00  0.00     0.246 C 
HETATM   46  O   UNK N   1      20.784  19.873   4.365  0.00  0.00    -0.271 OA
HETATM   47  H   UNK N   1      22.262  17.873   2.501  0.00  0.00     0.163 HD
BRANCH  45  48
HETATM   48  C   UNK N   1      19.793  18.720   2.561  0.00  0.00     0.211 C 
BRANCH  48  49
HETATM   49  C   UNK N   1      20.251  18.253   1.180  0.00  0.00     0.060 C 
BRANCH  49  50
HETATM   50  C   UNK N   1      19.924  16.787   0.935  0.00  0.00     0.114 C 
BRANCH  50  51
HETATM   51  N   UNK N   1      18.667  16.681   0.218  0.00  0.00    -0.430 N 
HETATM   52  H   UNK N   1      18.553  17.096  -0.707  0.00  0.00     0.149 HD
HETATM   53  H   UNK N   1      17.886  16.183   0.645  0.00  0.00     0.149 HD
ENDBRANCH  50  51
ENDBRANCH  49  50
ENDBRANCH  48  49
BRANCH  48  54
HETATM   54  O   UNK N   1      18.959  17.762   3.144  0.00  0.00    -0.386 OA
HETATM   55  H   UNK N   1      18.580  17.382   3.952  0.00  0.00     0.210 HD
ENDBRANCH  48  54
ENDBRANCH  45  48
ENDBRANCH   2  44
TORSDOF 21
ENDMDL
MODEL 7
REMARK VINA RESULT:      -5.7      4.054      7.585
REMARK  21 active torsions:
REMARK  status: ('A' for Active; 'I' for Inactive)
REMARK    1  A    between atoms: C_2  and  O_41 
REMARK    2  A    between atoms: C_5  and  O_11 
REMARK    3  A    between atoms: C_6  and  O_10 
REMARK    4  A    between atoms: C_7  and  N_8 
REMARK    5  A    between atoms: C_12  and  O_11 
REMARK    6  A    between atoms: C_13  and  N_33 
REMARK    7  A    between atoms: C_15  and  N_32 
REMARK    8  A    between atoms: C_16  and  O_19 
REMARK    9  A    between atoms: C_17  and  O_18 
REMARK   10  A    between atoms: C_20  and  O_19 
REMARK   11  A    between atoms: C_21  and  N_31 
REMARK   12  A    between atoms: C_24  and  C_26 
REMARK   13  A    between atoms: C_26  and  N_27 
REMARK   14  A    between atoms: N_27  and  C_28 
REMARK   15  A    between atoms: C_28  and  C_29 
REMARK   16  A    between atoms: C_29  and  O_30 
REMARK       I    between atoms: N_33  and  C_34 
REMARK   17  A    between atoms: C_34  and  C_36 
REMARK   18  A    between atoms: C_36  and  C_37 
REMARK   19  A    between atoms: C_36  and  O_40 
REMARK   20  A    between atoms: C_37  and  C_38 
REMARK   21  A    between atoms: C_38  and  N_39 
ROOT
HETATM    1  C   UNK N   1      35.876  12.965  11.234  0.00  0.00     0.178 C 
HETATM    2  C   UNK N   1      36.477  14.072  12.104  0.00  0.00     0.118 C 
HETATM    3  C   UNK N   1      35.642  15.342  12.057  0.00  0.00     0.055 C 
HETATM    4  C   UNK N   1      35.737  15.876  10.634  0.00  0.00     0.107 C 
HETATM    5  C   UNK N   1      35.045  14.942   9.637  0.00  0.00     0.178 C 
HETATM    6  C   UNK N   1      35.438  13.470   9.844  0.00  0.00     0.180 C 
ENDROOT
BRANCH   5   7
HETATM    7  O   UNK N   1      35.421  15.337   8.330  0.00  0.00    -0.349 OA
BRANCH   7   8
HETATM    8  C   UNK N   1      34.280  15.762   7.620  0.00  0.00     0.288 C 
HETATM    9  C   UNK N   1      33.840  14.711   6.607  0.00  0.00     0.133 C 
HETATM   10  C   UNK N   1      32.582  15.214   5.892  0.00  0.00     0.059 C 
HETATM   11  C   UNK N   1      31.580  15.795   6.858  0.00  0.00     0.009 C 
HETATM   12  C   UNK N   1      31.947  16.155   8.099  0.00  0.00     0.063 C 
HETATM   13  O   UNK N   1      33.236  16.002   8.507  0.00  0.00    -0.321 OA
BRANCH   9  14
HETATM   14  N   UNK N   1      34.890  14.470   5.635  0.00  0.00    -0.422 N 
HETATM   15  H   UNK N   1      35.277  13.567   5.361  0.00  0.00     0.150 HD
HETATM   16  H   UNK N   1      35.283  15.291   5.176  0.00  0.00     0.150 HD
ENDBRANCH   9  14
BRANCH  12  17
HETATM   17  C   UNK N   1      30.928  16.693   9.054  0.00  0.00     0.178 C 
BRANCH  17  18
HETATM   18  N   UNK N   1      30.933  18.149   9.031  0.00  0.00    -0.414 N 
HETATM   19  H   UNK N   1      31.645  18.744   8.609  0.00  0.00     0.153 HD
BRANCH  18  20
HETATM   20  C   UNK N   1      29.734  18.596   9.722  0.00  0.00     0.140 C 
BRANCH  20  21
HETATM   21  C   UNK N   1      28.673  17.513   9.687  0.00  0.00     0.183 C 
BRANCH  21  22
HETATM   22  O   UNK N   1      27.452  18.062   9.297  0.00  0.00    -0.399 OA
HETATM   23  H   UNK N   1      26.537  17.752   9.197  0.00  0.00     0.209 HD
ENDBRANCH  21  22
ENDBRANCH  20  21
ENDBRANCH  18  20
ENDBRANCH  17  18
ENDBRANCH  12  17
ENDBRANCH   7   8
ENDBRANCH   5   7
BRANCH   4  24
HETATM   24  N   UNK N   1      35.150  17.202  10.560  0.00  0.00    -0.423 N 
HETATM   25  H   UNK N   1      34.147  17.381  10.600  0.00  0.00     0.150 HD
HETATM   26  H   UNK N   1      35.777  18.000  10.461  0.00  0.00     0.150 HD
ENDBRANCH   4  24
BRANCH   6  27
HETATM   27  O   UNK N   1      34.358  12.690   9.424  0.00  0.00    -0.390 OA
HETATM   28  H   UNK N   1      33.877  11.894   9.699  0.00  0.00     0.210 HD
ENDBRANCH   6  27
BRANCH   1  29
HETATM   29  O   UNK N   1      36.844  11.944  11.088  0.00  0.00    -0.349 OA
BRANCH  29  30
HETATM   30  C   UNK N   1      37.514  12.142   9.869  0.00  0.00     0.291 C 
HETATM   31  O   UNK N   1      38.805  12.639  10.123  0.00  0.00    -0.356 OA
HETATM   32  C   UNK N   1      39.255  13.178   8.907  0.00  0.00     0.210 C 
HETATM   33  C   UNK N   1      39.611  12.040   7.956  0.00  0.00     0.098 C 
HETATM   34  C   UNK N   1      40.754  11.229   8.555  0.00  0.00     0.050 C 
HETATM   35  C   UNK N   1      38.338  11.185   7.750  0.00  0.00     0.146 C 
HETATM   36  C   UNK N   1      37.658  10.839   9.084  0.00  0.00     0.198 C 
BRANCH  33  37
HETATM   37  O   UNK N   1      40.026  12.584   6.741  0.00  0.00    -0.386 OA
HETATM   38  H   UNK N   1      40.304  12.221   5.885  0.00  0.00     0.210 HD
ENDBRANCH  33  37
BRANCH  35  39
HETATM   39  N   UNK N   1      38.614   9.972   6.987  0.00  0.00    -0.416 N 
HETATM   40  C   UNK N   1      37.909  10.070   5.721  0.00  0.00     0.140 C 
HETATM   41  H   UNK N   1      39.200   9.194   7.290  0.00  0.00     0.153 HD
ENDBRANCH  35  39
BRANCH  36  42
HETATM   42  O   UNK N   1      36.404  10.285   8.841  0.00  0.00    -0.388 OA
HETATM   43  H   UNK N   1      35.661  10.819   8.521  0.00  0.00     0.210 HD
ENDBRANCH  36  42
ENDBRANCH  29  30
ENDBRANCH   1  29
BRANCH   2  44
HETATM   44  N   UNK N   1      36.728  13.631  13.466  0.00  0.00    -0.352 N 
HETATM   45  C   UNK N   1      35.767  13.218  14.338  0.00  0.00     0.246 C 
HETATM   46  O   UNK N   1      34.596  13.160  13.994  0.00  0.00    -0.271 OA
HETATM   47  H   UNK N   1      37.661  13.632  13.781  0.00  0.00     0.163 HD
BRANCH  45  48
HETATM   48  C   UNK N   1      36.141  12.826  15.745  0.00  0.00     0.211 C 
BRANCH  48  49
HETATM   49  C   UNK N   1      34.992  13.035  16.731  0.00  0.00     0.060 C 
BRANCH  49  50
HETATM   50  C   UNK N   1      35.354  14.025  17.829  0.00  0.00     0.114 C 
BRANCH  50  51
HETATM   51  N   UNK N   1      35.320  13.358  19.117  0.00  0.00    -0.430 N 
HETATM   52  H   UNK N   1      36.066  12.722  19.399  0.00  0.00     0.149 HD
HETATM   53  H   UNK N   1      34.539  13.529  19.751  0.00  0.00     0.149 HD
ENDBRANCH  50  51
ENDBRANCH  49  50
ENDBRANCH  48  49
BRANCH  48  54
HETATM   54  O   UNK N   1      36.597  11.506  15.807  0.00  0.00    -0.386 OA
HETATM   55  H   UNK N   1      36.523  10.628  16.212  0.00  0.00     0.210 HD
ENDBRANCH  48  54
ENDBRANCH  45  48
ENDBRANCH   2  44
TORSDOF 21
ENDMDL
MODEL 8
REMARK VINA RESULT:      -5.6      4.710     10.800
REMARK  21 active torsions:
REMARK  status: ('A' for Active; 'I' for Inactive)
REMARK    1  A    between atoms: C_2  and  O_41 
REMARK    2  A    between atoms: C_5  and  O_11 
REMARK    3  A    between atoms: C_6  and  O_10 
REMARK    4  A    between atoms: C_7  and  N_8 
REMARK    5  A    between atoms: C_12  and  O_11 
REMARK    6  A    between atoms: C_13  and  N_33 
REMARK    7  A    between atoms: C_15  and  N_32 
REMARK    8  A    between atoms: C_16  and  O_19 
REMARK    9  A    between atoms: C_17  and  O_18 
REMARK   10  A    between atoms: C_20  and  O_19 
REMARK   11  A    between atoms: C_21  and  N_31 
REMARK   12  A    between atoms: C_24  and  C_26 
REMARK   13  A    between atoms: C_26  and  N_27 
REMARK   14  A    between atoms: N_27  and  C_28 
REMARK   15  A    between atoms: C_28  and  C_29 
REMARK   16  A    between atoms: C_29  and  O_30 
REMARK       I    between atoms: N_33  and  C_34 
REMARK   17  A    between atoms: C_34  and  C_36 
REMARK   18  A    between atoms: C_36  and  C_37 
REMARK   19  A    between atoms: C_36  and  O_40 
REMARK   20  A    between atoms: C_37  and  C_38 
REMARK   21  A    between atoms: C_38  and  N_39 
ROOT
HETATM    1  C   UNK N   1      23.737  17.604   4.856  0.00  0.00     0.178 C 
HETATM    2  C   UNK N   1      23.276  18.838   4.076  0.00  0.00     0.118 C 
HETATM    3  C   UNK N   1      24.418  19.470   3.295  0.00  0.00     0.055 C 
HETATM    4  C   UNK N   1      25.405  20.010   4.322  0.00  0.00     0.107 C 
HETATM    5  C   UNK N   1      26.075  18.878   5.104  0.00  0.00     0.178 C 
HETATM    6  C   UNK N   1      25.064  17.835   5.608  0.00  0.00     0.180 C 
ENDROOT
BRANCH   5   7
HETATM    7  O   UNK N   1      26.741  19.445   6.218  0.00  0.00    -0.349 OA
BRANCH   7   8
HETATM    8  C   UNK N   1      28.043  18.914   6.309  0.00  0.00     0.288 C 
HETATM    9  C   UNK N   1      28.192  18.034   7.545  0.00  0.00     0.133 C 
HETATM   10  C   UNK N   1      29.613  17.462   7.574  0.00  0.00     0.059 C 
HETATM   11  C   UNK N   1      30.036  16.940   6.223  0.00  0.00     0.009 C 
HETATM   12  C   UNK N   1      29.383  17.304   5.108  0.00  0.00     0.063 C 
HETATM   13  O   UNK N   1      28.323  18.156   5.178  0.00  0.00    -0.321 OA
BRANCH   9  14
HETATM   14  N   UNK N   1      27.954  18.806   8.752  0.00  0.00    -0.422 N 
HETATM   15  H   UNK N   1      27.050  19.061   9.148  0.00  0.00     0.150 HD
HETATM   16  H   UNK N   1      28.779  19.127   9.257  0.00  0.00     0.150 HD
ENDBRANCH   9  14
BRANCH  12  17
HETATM   17  C   UNK N   1      29.795  16.744   3.782  0.00  0.00     0.178 C 
BRANCH  17  18
HETATM   18  N   UNK N   1      30.879  15.787   3.954  0.00  0.00    -0.414 N 
HETATM   19  H   UNK N   1      30.855  14.941   4.524  0.00  0.00     0.153 HD
BRANCH  18  20
HETATM   20  C   UNK N   1      32.003  16.261   3.163  0.00  0.00     0.140 C 
BRANCH  20  21
HETATM   21  C   UNK N   1      33.270  16.263   3.998  0.00  0.00     0.183 C 
BRANCH  21  22
HETATM   22  O   UNK N   1      33.167  15.310   5.011  0.00  0.00    -0.399 OA
HETATM   23  H   UNK N   1      32.458  14.925   5.551  0.00  0.00     0.209 HD
ENDBRANCH  21  22
ENDBRANCH  20  21
ENDBRANCH  18  20
ENDBRANCH  17  18
ENDBRANCH  12  17
ENDBRANCH   7   8
ENDBRANCH   5   7
BRANCH   4  24
HETATM   24  N   UNK N   1      26.413  20.822   3.665  0.00  0.00    -0.423 N 
HETATM   25  H   UNK N   1      27.409  20.771   3.877  0.00  0.00     0.150 HD
HETATM   26  H   UNK N   1      26.107  21.482   2.949  0.00  0.00     0.150 HD
ENDBRANCH   4  24
BRANCH   6  27
HETATM   27  O   UNK N   1      25.734  16.611   5.684  0.00  0.00    -0.390 OA
HETATM   28  H   UNK N   1      26.148  16.040   6.350  0.00  0.00     0.210 HD
ENDBRANCH   6  27
BRANCH   1  29
HETATM   29  O   UNK N   1      22.721  17.258   5.776  0.00  0.00    -0.349 OA
BRANCH  29  30
HETATM   30  C   UNK N   1      22.586  15.860   5.779  0.00  0.00     0.291 C 
HETATM   31  O   UNK N   1      23.029  15.353   7.015  0.00  0.00    -0.356 OA
HETATM   32  C   UNK N   1      23.243  13.979   6.812  0.00  0.00     0.210 C 
HETATM   33  C   UNK N   1      21.896  13.271   6.723  0.00  0.00     0.098 C 
HETATM   34  C   UNK N   1      21.157  13.435   8.046  0.00  0.00     0.050 C 
HETATM   35  C   UNK N   1      21.114  13.894   5.541  0.00  0.00     0.146 C 
HETATM   36  C   UNK N   1      21.132  15.430   5.590  0.00  0.00     0.198 C 
BRANCH  33  37
HETATM   37  O   UNK N   1      22.117  11.914   6.489  0.00  0.00    -0.386 OA
HETATM   38  H   UNK N   1      22.501  11.183   6.999  0.00  0.00     0.210 HD
ENDBRANCH  33  37
BRANCH  35  39
HETATM   39  N   UNK N   1      19.743  13.400   5.474  0.00  0.00    -0.416 N 
HETATM   40  C   UNK N   1      19.598  12.651   4.238  0.00  0.00     0.140 C 
HETATM   41  H   UNK N   1      19.016  13.554   6.172  0.00  0.00     0.153 HD
ENDBRANCH  35  39
BRANCH  36  42
HETATM   42  O   UNK N   1      20.633  15.942   4.395  0.00  0.00    -0.388 OA
HETATM   43  H   UNK N   1      20.281  15.366   3.698  0.00  0.00     0.210 HD
ENDBRANCH  36  42
ENDBRANCH  29  30
ENDBRANCH   1  29
BRANCH   2  44
HETATM   44  N   UNK N   1      22.123  18.563   3.236  0.00  0.00    -0.352 N 
HETATM   45  C   UNK N   1      20.914  19.181   3.351  0.00  0.00     0.246 C 
HETATM   46  O   UNK N   1      20.740  20.061   4.180  0.00  0.00    -0.271 OA
HETATM   47  H   UNK N   1      22.223  17.881   2.533  0.00  0.00     0.163 HD
BRANCH  45  48
HETATM   48  C   UNK N   1      19.773  18.780   2.451  0.00  0.00     0.211 C 
BRANCH  48  49
HETATM   49  C   UNK N   1      20.256  18.230   1.110  0.00  0.00     0.060 C 
BRANCH  49  50
HETATM   50  C   UNK N   1      19.893  16.763   0.930  0.00  0.00     0.114 C 
BRANCH  50  51
HETATM   51  N   UNK N   1      18.665  16.656   0.164  0.00  0.00    -0.430 N 
HETATM   52  H   UNK N   1      18.034  15.865   0.293  0.00  0.00     0.149 HD
HETATM   53  H   UNK N   1      18.428  17.382  -0.512  0.00  0.00     0.149 HD
ENDBRANCH  50  51
ENDBRANCH  49  50
ENDBRANCH  48  49
BRANCH  48  54
HETATM   54  O   UNK N   1      18.924  17.861   3.074  0.00  0.00    -0.386 OA
HETATM   55  H   UNK N   1      18.534  17.526   3.897  0.00  0.00     0.210 HD
ENDBRANCH  48  54
ENDBRANCH  45  48
ENDBRANCH   2  44
TORSDOF 21
ENDMDL
MODEL 9
REMARK VINA RESULT:      -5.6      2.165      2.773
REMARK  21 active torsions:
REMARK  status: ('A' for Active; 'I' for Inactive)
REMARK    1  A    between atoms: C_2  and  O_41 
REMARK    2  A    between atoms: C_5  and  O_11 
REMARK    3  A    between atoms: C_6  and  O_10 
REMARK    4  A    between atoms: C_7  and  N_8 
REMARK    5  A    between atoms: C_12  and  O_11 
REMARK    6  A    between atoms: C_13  and  N_33 
REMARK    7  A    between atoms: C_15  and  N_32 
REMARK    8  A    between atoms: C_16  and  O_19 
REMARK    9  A    between atoms: C_17  and  O_18 
REMARK   10  A    between atoms: C_20  and  O_19 
REMARK   11  A    between atoms: C_21  and  N_31 
REMARK   12  A    between atoms: C_24  and  C_26 
REMARK   13  A    between atoms: C_26  and  N_27 
REMARK   14  A    between atoms: N_27  and  C_28 
REMARK   15  A    between atoms: C_28  and  C_29 
REMARK   16  A    between atoms: C_29  and  O_30 
REMARK       I    between atoms: N_33  and  C_34 
REMARK   17  A    between atoms: C_34  and  C_36 
REMARK   18  A    between atoms: C_36  and  C_37 
REMARK   19  A    between atoms: C_36  and  O_40 
REMARK   20  A    between atoms: C_37  and  C_38 
REMARK   21  A    between atoms: C_38  and  N_39 
ROOT
HETATM    1  C   UNK N   1      32.474  15.299   7.527  0.00  0.00     0.178 C 
HETATM    2  C   UNK N   1      32.651  16.444   8.527  0.00  0.00     0.118 C 
HETATM    3  C   UNK N   1      31.314  16.992   8.999  0.00  0.00     0.055 C 
HETATM    4  C   UNK N   1      30.653  17.637   7.788  0.00  0.00     0.107 C 
HETATM    5  C   UNK N   1      30.273  16.594   6.734  0.00  0.00     0.178 C 
HETATM    6  C   UNK N   1      31.418  15.609   6.446  0.00  0.00     0.180 C 
ENDROOT
BRANCH   5   7
HETATM    7  O   UNK N   1      29.943  17.276   5.537  0.00  0.00    -0.349 OA
BRANCH   7   8
HETATM    8  C   UNK N   1      28.663  16.876   5.104  0.00  0.00     0.288 C 
HETATM    9  C   UNK N   1      28.072  17.890   4.131  0.00  0.00     0.133 C 
HETATM   10  C   UNK N   1      26.699  17.388   3.672  0.00  0.00     0.059 C 
HETATM   11  C   UNK N   1      26.728  15.924   3.309  0.00  0.00     0.009 C 
HETATM   12  C   UNK N   1      27.732  15.131   3.720  0.00  0.00     0.063 C 
HETATM   13  O   UNK N   1      28.744  15.639   4.475  0.00  0.00    -0.321 OA
BRANCH   9  14
HETATM   14  N   UNK N   1      27.928  19.185   4.770  0.00  0.00    -0.422 N 
HETATM   15  H   UNK N   1      27.904  19.377   5.771  0.00  0.00     0.150 HD
HETATM   16  H   UNK N   1      27.842  19.991   4.150  0.00  0.00     0.150 HD
ENDBRANCH   9  14
BRANCH  12  17
HETATM   17  C   UNK N   1      27.761  13.691   3.315  0.00  0.00     0.178 C 
BRANCH  17  18
HETATM   18  N   UNK N   1      29.037  13.090   3.678  0.00  0.00    -0.414 N 
HETATM   19  H   UNK N   1      29.319  12.784   4.609  0.00  0.00     0.153 HD
BRANCH  18  20
HETATM   20  C   UNK N   1      29.836  13.008   2.465  0.00  0.00     0.140 C 
BRANCH  20  21
HETATM   21  C   UNK N   1      31.249  13.489   2.734  0.00  0.00     0.183 C 
BRANCH  21  22
HETATM   22  O   UNK N   1      31.231  14.843   3.065  0.00  0.00    -0.399 OA
HETATM   23  H   UNK N   1      30.636  15.448   3.535  0.00  0.00     0.209 HD
ENDBRANCH  21  22
ENDBRANCH  20  21
ENDBRANCH  18  20
ENDBRANCH  17  18
ENDBRANCH  12  17
ENDBRANCH   7   8
ENDBRANCH   5   7
BRANCH   4  24
HETATM   24  N   UNK N   1      29.473  18.378   8.200  0.00  0.00    -0.423 N 
HETATM   25  H   UNK N   1      29.040  18.288   9.118  0.00  0.00     0.150 HD
HETATM   26  H   UNK N   1      29.055  19.025   7.532  0.00  0.00     0.150 HD
ENDBRANCH   4  24
BRANCH   6  27
HETATM   27  O   UNK N   1      30.836  14.400   6.056  0.00  0.00    -0.390 OA
HETATM   28  H   UNK N   1      31.058  13.613   5.535  0.00  0.00     0.210 HD
ENDBRANCH   6  27
BRANCH   1  29
HETATM   29  O   UNK N   1      33.724  15.051   6.914  0.00  0.00    -0.349 OA
BRANCH  29  30
HETATM   30  C   UNK N   1      34.063  13.705   7.133  0.00  0.00     0.291 C 
HETATM   31  O   UNK N   1      33.632  12.933   6.039  0.00  0.00    -0.356 OA
HETATM   32  C   UNK N   1      33.634  11.600   6.485  0.00  0.00     0.210 C 
HETATM   33  C   UNK N   1      35.073  11.108   6.583  0.00  0.00     0.098 C 
HETATM   34  C   UNK N   1      35.705  11.134   5.196  0.00  0.00     0.050 C 
HETATM   35  C   UNK N   1      35.819  12.029   7.578  0.00  0.00     0.146 C 
HETATM   36  C   UNK N   1      35.573  13.516   7.275  0.00  0.00     0.198 C 
BRANCH  33  37
HETATM   37  O   UNK N   1      35.068   9.796   7.056  0.00  0.00    -0.386 OA
HETATM   38  H   UNK N   1      34.793   8.937   6.697  0.00  0.00     0.210 HD
ENDBRANCH  33  37
BRANCH  35  39
HETATM   39  N   UNK N   1      37.249  11.745   7.616  0.00  0.00    -0.416 N 
HETATM   40  C   UNK N   1      37.575  11.271   8.949  0.00  0.00     0.140 C 
HETATM   41  H   UNK N   1      37.904  11.860   6.842  0.00  0.00     0.153 HD
ENDBRANCH  35  39
BRANCH  36  42
HETATM   42  O   UNK N   1      36.056  14.293   8.324  0.00  0.00    -0.388 OA
HETATM   43  H   UNK N   1      36.022  13.990   9.244  0.00  0.00     0.210 HD
ENDBRANCH  36  42
ENDBRANCH  29  30
ENDBRANCH   1  29
BRANCH   2  44
HETATM   44  N   UNK N   1      33.518  16.082   9.636  0.00  0.00    -0.352 N 
HETATM   45  C   UNK N   1      34.662  16.739   9.973  0.00  0.00     0.246 C 
HETATM   46  O   UNK N   1      35.016  17.732   9.356  0.00  0.00    -0.271 OA
HETATM   47  H   UNK N   1      33.259  15.305  10.182  0.00  0.00     0.163 HD
BRANCH  45  48
HETATM   48  C   UNK N   1      35.508  16.243  11.119  0.00  0.00     0.211 C 
BRANCH  48  49
HETATM   49  C   UNK N   1      34.997  14.920  11.688  0.00  0.00     0.060 C 
BRANCH  49  50
HETATM   50  C   UNK N   1      36.128  13.936  11.951  0.00  0.00     0.114 C 
BRANCH  50  51
HETATM   51  N   UNK N   1      36.810  14.294  13.181  0.00  0.00    -0.430 N 
HETATM   52  H   UNK N   1      37.809  14.126  13.295  0.00  0.00     0.149 HD
HETATM   53  H   UNK N   1      36.282  14.721  13.942  0.00  0.00     0.149 HD
ENDBRANCH  50  51
ENDBRANCH  49  50
ENDBRANCH  48  49
BRANCH  48  54
HETATM   54  O   UNK N   1      36.852  16.126  10.754  0.00  0.00    -0.386 OA
HETATM   55  H   UNK N   1      37.732  15.772  10.956  0.00  0.00     0.210 HD
ENDBRANCH  48  54
ENDBRANCH  45  48
ENDBRANCH   2  44
TORSDOF 21
ENDMDL
