MODEL 1
REMARK VINA RESULT:      -8.0      0.000      0.000
REMARK  17 active torsions:
REMARK  status: ('A' for Active; 'I' for Inactive)
REMARK    1  A    between atoms: S_2  and  N_5 
REMARK    2  A    between atoms: N_5  and  C_6 
REMARK    3  A    between atoms: C_9  and  C_17 
REMARK    4  A    between atoms: C_11  and  O_12 
REMARK    5  A    between atoms: O_12  and  C_13 
REMARK    6  A    between atoms: C_13  and  C_14 
REMARK    7  A    between atoms: C_17  and  O_19 
REMARK    8  A    between atoms: C_20  and  O_19 
REMARK    9  A    between atoms: C_20  and  C_21 
REMARK   10  A    between atoms: C_20  and  C_32 
REMARK   11  A    between atoms: C_21  and  C_22 
REMARK   12  A    between atoms: N_25  and  O_29 
REMARK   13  A    between atoms: C_35  and  O_43 
REMARK   14  A    between atoms: C_36  and  O_38 
REMARK   15  A    between atoms: O_38  and  C_39 
REMARK   16  A    between atoms: C_39  and  C_40 
REMARK   17  A    between atoms: O_43  and  C_44 
ROOT
HETATM    1  C   UNK N   1      22.592  16.781   4.826  0.00  0.00     0.169 C 
ENDROOT
BRANCH   1   2
HETATM    2  O   UNK N   1      23.976  16.814   4.641  0.00  0.00    -0.307 OA
BRANCH   2   3
HETATM    3  C   UNK N   1      24.617  16.138   3.638  0.00  0.00     0.294 C 
HETATM    4  O   UNK N   1      23.983  15.439   2.855  0.00  0.00    -0.259 OA
BRANCH   3   5
HETATM    5  C   UNK N   1      26.063  16.261   3.444  0.00  0.00     0.042 A 
HETATM    6  C   UNK N   1      26.777  15.369   2.644  0.00  0.00     0.020 A 
HETATM    7  C   UNK N   1      28.143  15.580   2.427  0.00  0.00     0.034 A 
HETATM    8  C   UNK N   1      28.818  16.650   3.038  0.00  0.00     0.075 A 
HETATM    9  C   UNK N   1      28.099  17.509   3.906  0.00  0.00     0.097 A 
HETATM   10  C   UNK N   1      26.725  17.315   4.068  0.00  0.00     0.056 A 
BRANCH   8  11
HETATM   11  N   UNK N   1      30.209  16.795   2.769  0.00  0.00    -0.282 N 
HETATM   12  H   UNK N   1      30.465  17.457   2.087  0.00  0.00     0.178 HD
BRANCH  11  13
HETATM   13  S   UNK N   1      31.513  15.901   3.542  0.00  0.00     0.227 S 
HETATM   14  C   UNK N   1      31.313  14.113   3.778  0.00  0.00     0.186 C 
HETATM   15  O   UNK N   1      31.842  16.681   4.826  0.00  0.00    -0.206 OA
HETATM   16  O   UNK N   1      32.736  16.216   2.670  0.00  0.00    -0.206 OA
ENDBRANCH  11  13
ENDBRANCH   8  11
BRANCH   9  17
HETATM   17  O   UNK N   1      28.723  18.490   4.600  0.00  0.00    -0.348 OA
BRANCH  17  18
HETATM   18  C   UNK N   1      28.158  19.127   5.688  0.00  0.00     0.180 C 
BRANCH  18  19
HETATM   19  C   UNK N   1      27.553  20.448   5.238  0.00  0.00     0.010 A 
HETATM   20  C   UNK N   1      27.720  21.482   6.330  0.00  0.00     0.007 A 
HETATM   21  C   UNK N   1      26.382  20.800   6.132  0.00  0.00     0.007 A 
ENDBRANCH  18  19
ENDBRANCH  17  18
ENDBRANCH   9  17
ENDBRANCH   3   5
ENDBRANCH   2   3
ENDBRANCH   1   2
BRANCH   1  22
HETATM   22  C   UNK N   1      22.099  18.224   5.030  0.00  0.00     0.079 C 
BRANCH  22  23
HETATM   23  C   UNK N   1      21.704  18.783   3.688  0.00  0.00    -0.009 A 
HETATM   24  C   UNK N   1      20.484  18.421   3.085  0.00  0.00     0.060 A 
HETATM   25  C   UNK N   1      20.111  19.018   1.879  0.00  0.00     0.146 A 
HETATM   26 Cl   UNK N   1      19.395  17.243   3.801  0.00  0.00    -0.082 Cl
HETATM   27  N   UNK N   1      20.922  19.930   1.283  0.00  0.00    -0.244 N 
HETATM   28  C   UNK N   1      22.119  20.273   1.825  0.00  0.00     0.146 A 
HETATM   29  C   UNK N   1      22.536  19.710   3.033  0.00  0.00     0.060 A 
HETATM   30 Cl   UNK N   1      24.094  20.183   3.697  0.00  0.00    -0.082 Cl
BRANCH  27  31
HETATM   31  O   UNK N   1      20.534  20.498   0.143  0.00  0.00    -0.284 OA
ATOM     32  HO  UNK N   1      20.700  21.424   0.006  1.00  0.00     0.245 HD
ENDBRANCH  27  31
ENDBRANCH  22  23
ENDBRANCH   1  22
BRANCH   1  33
HETATM   33  C   UNK N   1      22.192  15.831   5.952  0.00  0.00    -0.026 A 
HETATM   34  C   UNK N   1      22.920  14.665   6.218  0.00  0.00     0.012 A 
HETATM   35  C   UNK N   1      22.450  13.745   7.168  0.00  0.00     0.040 A 
HETATM   36  C   UNK N   1      21.231  13.969   7.842  0.00  0.00     0.108 A 
HETATM   37  C   UNK N   1      20.510  15.153   7.582  0.00  0.00     0.102 A 
HETATM   38  C   UNK N   1      21.015  16.071   6.676  0.00  0.00     0.049 A 
BRANCH  36  39
HETATM   39  O   UNK N   1      20.741  13.077   8.740  0.00  0.00    -0.287 OA
BRANCH  39  40
HETATM   40  C   UNK N   1      21.066  13.040  10.075  0.00  0.00     0.505 C 
HETATM   41  F   UNK N   1      19.925  12.900  10.843  0.00  0.00    -0.184 F 
HETATM   42  F   UNK N   1      21.894  11.955  10.299  0.00  0.00    -0.184 F 
ENDBRANCH  39  40
ENDBRANCH  36  39
BRANCH  37  43
HETATM   43  O   UNK N   1      19.299  15.412   8.134  0.00  0.00    -0.348 OA
BRANCH  43  44
HETATM   44  C   UNK N   1      19.162  16.220   9.240  0.00  0.00     0.180 C 
BRANCH  44  45
HETATM   45  C   UNK N   1      18.399  17.480   8.906  0.00  0.00     0.010 A 
HETATM   46  C   UNK N   1      17.393  17.718  10.013  0.00  0.00     0.007 A 
HETATM   47  C   UNK N   1      16.939  17.152   8.683  0.00  0.00     0.007 A 
ENDBRANCH  44  45
ENDBRANCH  43  44
ENDBRANCH  37  43
ENDBRANCH   1  33
TORSDOF 17
ENDMDL
MODEL 2
REMARK VINA RESULT:      -7.8      3.893      6.857
REMARK  17 active torsions:
REMARK  status: ('A' for Active; 'I' for Inactive)
REMARK    1  A    between atoms: S_2  and  N_5 
REMARK    2  A    between atoms: N_5  and  C_6 
REMARK    3  A    between atoms: C_9  and  C_17 
REMARK    4  A    between atoms: C_11  and  O_12 
REMARK    5  A    between atoms: O_12  and  C_13 
REMARK    6  A    between atoms: C_13  and  C_14 
REMARK    7  A    between atoms: C_17  and  O_19 
REMARK    8  A    between atoms: C_20  and  O_19 
REMARK    9  A    between atoms: C_20  and  C_21 
REMARK   10  A    between atoms: C_20  and  C_32 
REMARK   11  A    between atoms: C_21  and  C_22 
REMARK   12  A    between atoms: N_25  and  O_29 
REMARK   13  A    between atoms: C_35  and  O_43 
REMARK   14  A    between atoms: C_36  and  O_38 
REMARK   15  A    between atoms: O_38  and  C_39 
REMARK   16  A    between atoms: C_39  and  C_40 
REMARK   17  A    between atoms: O_43  and  C_44 
ROOT
HETATM    1  C   UNK N   1      23.091  15.134   6.714  0.00  0.00     0.169 C 
ENDROOT
BRANCH   1   2
HETATM    2  O   UNK N   1      24.229  14.614   6.094  0.00  0.00    -0.307 OA
BRANCH   2   3
HETATM    3  C   UNK N   1      25.457  14.559   6.698  0.00  0.00     0.294 C 
HETATM    4  O   UNK N   1      25.566  14.146   7.847  0.00  0.00    -0.259 OA
BRANCH   3   5
HETATM    5  C   UNK N   1      26.672  14.950   5.982  0.00  0.00     0.042 A 
HETATM    6  C   UNK N   1      27.174  14.199   4.919  0.00  0.00     0.020 A 
HETATM    7  C   UNK N   1      28.292  14.660   4.216  0.00  0.00     0.034 A 
HETATM    8  C   UNK N   1      28.945  15.846   4.591  0.00  0.00     0.075 A 
HETATM    9  C   UNK N   1      28.471  16.566   5.716  0.00  0.00     0.097 A 
HETATM   10  C   UNK N   1      27.321  16.117   6.372  0.00  0.00     0.056 A 
BRANCH   8  11
HETATM   11  N   UNK N   1      30.078  16.247   3.827  0.00  0.00    -0.282 N 
HETATM   12  H   UNK N   1      29.902  16.677   2.959  0.00  0.00     0.178 HD
BRANCH  11  13
HETATM   13  S   UNK N   1      31.765  16.046   4.290  0.00  0.00     0.227 S 
HETATM   14  C   UNK N   1      32.929  15.408   3.053  0.00  0.00     0.186 C 
HETATM   15  O   UNK N   1      31.738  15.257   5.610  0.00  0.00    -0.206 OA
HETATM   16  O   UNK N   1      32.177  17.443   4.776  0.00  0.00    -0.206 OA
ENDBRANCH  11  13
ENDBRANCH   8  11
BRANCH   9  17
HETATM   17  O   UNK N   1      29.127  17.655   6.181  0.00  0.00    -0.348 OA
BRANCH  17  18
HETATM   18  C   UNK N   1      29.761  17.692   7.408  0.00  0.00     0.180 C 
BRANCH  18  19
HETATM   19  C   UNK N   1      29.029  18.660   8.324  0.00  0.00     0.010 A 
HETATM   20  C   UNK N   1      29.659  18.635   9.699  0.00  0.00     0.007 A 
HETATM   21  C   UNK N   1      28.364  17.891   9.447  0.00  0.00     0.007 A 
ENDBRANCH  18  19
ENDBRANCH  17  18
ENDBRANCH   9  17
ENDBRANCH   3   5
ENDBRANCH   2   3
ENDBRANCH   1   2
BRANCH   1  22
HETATM   22  C   UNK N   1      22.001  14.049   6.709  0.00  0.00     0.079 C 
BRANCH  22  23
HETATM   23  C   UNK N   1      22.095  13.278   8.000  0.00  0.00    -0.009 A 
HETATM   24  C   UNK N   1      22.847  12.090   8.079  0.00  0.00     0.060 A 
HETATM   25  C   UNK N   1      22.979  11.443   9.309  0.00  0.00     0.146 A 
HETATM   26 Cl   UNK N   1      23.643  11.387   6.680  0.00  0.00    -0.082 Cl
HETATM   27  N   UNK N   1      22.378  11.944  10.419  0.00  0.00    -0.244 N 
HETATM   28  C   UNK N   1      21.620  13.069  10.365  0.00  0.00     0.146 A 
HETATM   29  C   UNK N   1      21.460  13.758   9.160  0.00  0.00     0.060 A 
HETATM   30 Cl   UNK N   1      20.468  15.209   9.138  0.00  0.00    -0.082 Cl
BRANCH  27  31
HETATM   31  O   UNK N   1      22.536  11.317  11.584  0.00  0.00    -0.284 OA
ATOM     32  HO  UNK N   1      23.330  11.463  12.085  1.00  0.00     0.245 HD
ENDBRANCH  27  31
ENDBRANCH  22  23
ENDBRANCH   1  22
BRANCH   1  33
HETATM   33  C   UNK N   1      22.650  16.450   6.079  0.00  0.00    -0.026 A 
HETATM   34  C   UNK N   1      21.329  16.904   6.182  0.00  0.00     0.012 A 
HETATM   35  C   UNK N   1      20.923  18.046   5.474  0.00  0.00     0.040 A 
HETATM   36  C   UNK N   1      21.827  18.731   4.635  0.00  0.00     0.108 A 
HETATM   37  C   UNK N   1      23.160  18.278   4.548  0.00  0.00     0.102 A 
HETATM   38  C   UNK N   1      23.554  17.177   5.291  0.00  0.00     0.049 A 
BRANCH  36  39
HETATM   39  O   UNK N   1      21.447  19.817   3.917  0.00  0.00    -0.287 OA
BRANCH  39  40
HETATM   40  C   UNK N   1      20.941  19.782   2.638  0.00  0.00     0.505 C 
HETATM   41  F   UNK N   1      21.828  20.370   1.755  0.00  0.00    -0.184 F 
HETATM   42  F   UNK N   1      20.753  18.461   2.273  0.00  0.00    -0.184 F 
ENDBRANCH  39  40
ENDBRANCH  36  39
BRANCH  37  43
HETATM   43  O   UNK N   1      24.072  18.836   3.715  0.00  0.00    -0.348 OA
BRANCH  43  44
HETATM   44  C   UNK N   1      25.421  18.805   3.988  0.00  0.00     0.180 C 
BRANCH  44  45
HETATM   45  C   UNK N   1      25.928  20.168   4.395  0.00  0.00     0.010 A 
HETATM   46  C   UNK N   1      27.442  20.108   4.424  0.00  0.00     0.007 A 
HETATM   47  C   UNK N   1      26.656  20.070   5.719  0.00  0.00     0.007 A 
ENDBRANCH  44  45
ENDBRANCH  43  44
ENDBRANCH  37  43
ENDBRANCH   1  33
TORSDOF 17
ENDMDL
MODEL 3
REMARK VINA RESULT:      -7.7      3.909      7.204
REMARK  17 active torsions:
REMARK  status: ('A' for Active; 'I' for Inactive)
REMARK    1  A    between atoms: S_2  and  N_5 
REMARK    2  A    between atoms: N_5  and  C_6 
REMARK    3  A    between atoms: C_9  and  C_17 
REMARK    4  A    between atoms: C_11  and  O_12 
REMARK    5  A    between atoms: O_12  and  C_13 
REMARK    6  A    between atoms: C_13  and  C_14 
REMARK    7  A    between atoms: C_17  and  O_19 
REMARK    8  A    between atoms: C_20  and  O_19 
REMARK    9  A    between atoms: C_20  and  C_21 
REMARK   10  A    between atoms: C_20  and  C_32 
REMARK   11  A    between atoms: C_21  and  C_22 
REMARK   12  A    between atoms: N_25  and  O_29 
REMARK   13  A    between atoms: C_35  and  O_43 
REMARK   14  A    between atoms: C_36  and  O_38 
REMARK   15  A    between atoms: O_38  and  C_39 
REMARK   16  A    between atoms: C_39  and  C_40 
REMARK   17  A    between atoms: O_43  and  C_44 
ROOT
HETATM    1  C   UNK N   1      23.486  15.653   6.439  0.00  0.00     0.169 C 
ENDROOT
BRANCH   1   2
HETATM    2  O   UNK N   1      24.735  15.193   6.016  0.00  0.00    -0.307 OA
BRANCH   2   3
HETATM    3  C   UNK N   1      25.878  15.326   6.758  0.00  0.00     0.294 C 
HETATM    4  O   UNK N   1      25.949  14.843   7.882  0.00  0.00    -0.259 OA
BRANCH   3   5
HETATM    5  C   UNK N   1      27.056  16.008   6.220  0.00  0.00     0.042 A 
HETATM    6  C   UNK N   1      27.812  16.891   6.991  0.00  0.00     0.020 A 
HETATM    7  C   UNK N   1      28.975  17.452   6.454  0.00  0.00     0.034 A 
HETATM    8  C   UNK N   1      29.371  17.177   5.134  0.00  0.00     0.075 A 
HETATM    9  C   UNK N   1      28.558  16.336   4.334  0.00  0.00     0.097 A 
HETATM   10  C   UNK N   1      27.430  15.741   4.906  0.00  0.00     0.056 A 
BRANCH   8  11
HETATM   11  N   UNK N   1      30.566  17.790   4.660  0.00  0.00    -0.282 N 
HETATM   12  H   UNK N   1      30.526  18.755   4.465  0.00  0.00     0.178 HD
BRANCH  11  13
HETATM   13  S   UNK N   1      32.107  16.985   4.390  0.00  0.00     0.227 S 
HETATM   14  C   UNK N   1      32.306  15.280   4.978  0.00  0.00     0.186 C 
HETATM   15  O   UNK N   1      33.178  17.965   4.899  0.00  0.00    -0.206 OA
HETATM   16  O   UNK N   1      32.304  17.078   2.870  0.00  0.00    -0.206 OA
ENDBRANCH  11  13
ENDBRANCH   8  11
BRANCH   9  17
HETATM   17  O   UNK N   1      28.838  16.123   3.027  0.00  0.00    -0.348 OA
BRANCH  17  18
HETATM   18  C   UNK N   1      29.438  14.970   2.558  0.00  0.00     0.180 C 
BRANCH  18  19
HETATM   19  C   UNK N   1      28.532  14.317   1.525  0.00  0.00     0.010 A 
HETATM   20  C   UNK N   1      27.680  13.259   2.190  0.00  0.00     0.007 A 
HETATM   21  C   UNK N   1      28.896  12.854   1.383  0.00  0.00     0.007 A 
ENDBRANCH  18  19
ENDBRANCH  17  18
ENDBRANCH   9  17
ENDBRANCH   3   5
ENDBRANCH   2   3
ENDBRANCH   1   2
BRANCH   1  22
HETATM   22  C   UNK N   1      22.478  14.498   6.313  0.00  0.00     0.079 C 
BRANCH  22  23
HETATM   23  C   UNK N   1      22.475  13.729   7.609  0.00  0.00    -0.009 A 
HETATM   24  C   UNK N   1      21.715  14.172   8.709  0.00  0.00     0.060 A 
HETATM   25  C   UNK N   1      21.670  13.395   9.868  0.00  0.00     0.146 A 
HETATM   26 Cl   UNK N   1      20.806  15.675   8.680  0.00  0.00    -0.082 Cl
HETATM   27  N   UNK N   1      22.362  12.229   9.942  0.00  0.00    -0.244 N 
HETATM   28  C   UNK N   1      23.128  11.794   8.908  0.00  0.00     0.146 A 
HETATM   29  C   UNK N   1      23.203  12.531   7.724  0.00  0.00     0.060 A 
HETATM   30 Cl   UNK N   1      24.209  11.931   6.413  0.00  0.00    -0.082 Cl
BRANCH  27  31
HETATM   31  O   UNK N   1      22.286  11.496  11.052  0.00  0.00    -0.284 OA
ATOM     32  HO  UNK N   1      22.183  11.932  11.890  1.00  0.00     0.245 HD
ENDBRANCH  27  31
ENDBRANCH  22  23
ENDBRANCH   1  22
BRANCH   1  33
HETATM   33  C   UNK N   1      23.065  16.919   5.697  0.00  0.00    -0.026 A 
HETATM   34  C   UNK N   1      21.729  17.336   5.663  0.00  0.00     0.012 A 
HETATM   35  C   UNK N   1      21.354  18.425   4.861  0.00  0.00     0.040 A 
HETATM   36  C   UNK N   1      22.308  19.092   4.064  0.00  0.00     0.108 A 
HETATM   37  C   UNK N   1      23.655  18.678   4.114  0.00  0.00     0.102 A 
HETATM   38  C   UNK N   1      24.013  17.631   4.948  0.00  0.00     0.049 A 
BRANCH  36  39
HETATM   39  O   UNK N   1      21.962  20.126   3.256  0.00  0.00    -0.287 OA
BRANCH  39  40
HETATM   40  C   UNK N   1      20.784  20.219   2.552  0.00  0.00     0.505 C 
HETATM   41  F   UNK N   1      20.752  21.394   1.824  0.00  0.00    -0.184 F 
HETATM   42  F   UNK N   1      20.703  19.148   1.681  0.00  0.00    -0.184 F 
ENDBRANCH  39  40
ENDBRANCH  36  39
BRANCH  37  43
HETATM   43  O   UNK N   1      24.620  19.218   3.331  0.00  0.00    -0.348 OA
BRANCH  43  44
HETATM   44  C   UNK N   1      25.941  19.245   3.717  0.00  0.00     0.180 C 
BRANCH  44  45
HETATM   45  C   UNK N   1      26.278  20.535   4.426  0.00  0.00     0.010 A 
HETATM   46  C   UNK N   1      27.718  20.447   4.886  0.00  0.00     0.007 A 
HETATM   47  C   UNK N   1      26.592  20.254   5.880  0.00  0.00     0.007 A 
ENDBRANCH  44  45
ENDBRANCH  43  44
ENDBRANCH  37  43
ENDBRANCH   1  33
TORSDOF 17
ENDMDL
MODEL 4
REMARK VINA RESULT:      -7.6      3.084      4.083
REMARK  17 active torsions:
REMARK  status: ('A' for Active; 'I' for Inactive)
REMARK    1  A    between atoms: S_2  and  N_5 
REMARK    2  A    between atoms: N_5  and  C_6 
REMARK    3  A    between atoms: C_9  and  C_17 
REMARK    4  A    between atoms: C_11  and  O_12 
REMARK    5  A    between atoms: O_12  and  C_13 
REMARK    6  A    between atoms: C_13  and  C_14 
REMARK    7  A    between atoms: C_17  and  O_19 
REMARK    8  A    between atoms: C_20  and  O_19 
REMARK    9  A    between atoms: C_20  and  C_21 
REMARK   10  A    between atoms: C_20  and  C_32 
REMARK   11  A    between atoms: C_21  and  C_22 
REMARK   12  A    between atoms: N_25  and  O_29 
REMARK   13  A    between atoms: C_35  and  O_43 
REMARK   14  A    between atoms: C_36  and  O_38 
REMARK   15  A    between atoms: O_38  and  C_39 
REMARK   16  A    between atoms: C_39  and  C_40 
REMARK   17  A    between atoms: O_43  and  C_44 
ROOT
HETATM    1  C   UNK N   1      23.568  15.517   5.279  0.00  0.00     0.169 C 
ENDROOT
BRANCH   1   2
HETATM    2  O   UNK N   1      24.762  15.831   5.933  0.00  0.00    -0.307 OA
BRANCH   2   3
HETATM    3  C   UNK N   1      25.858  15.012   5.934  0.00  0.00     0.294 C 
HETATM    4  O   UNK N   1      25.726  13.797   5.847  0.00  0.00    -0.259 OA
BRANCH   3   5
HETATM    5  C   UNK N   1      27.214  15.560   5.996  0.00  0.00     0.042 A 
HETATM    6  C   UNK N   1      28.308  14.882   5.459  0.00  0.00     0.020 A 
HETATM    7  C   UNK N   1      29.569  15.487   5.473  0.00  0.00     0.034 A 
HETATM    8  C   UNK N   1      29.761  16.749   6.059  0.00  0.00     0.075 A 
HETATM    9  C   UNK N   1      28.658  17.400   6.665  0.00  0.00     0.097 A 
HETATM   10  C   UNK N   1      27.396  16.804   6.594  0.00  0.00     0.056 A 
BRANCH   8  11
HETATM   11  N   UNK N   1      31.075  17.297   6.035  0.00  0.00    -0.282 N 
HETATM   12  H   UNK N   1      31.286  17.982   6.710  0.00  0.00     0.178 HD
BRANCH  11  13
HETATM   13  S   UNK N   1      32.359  16.863   4.911  0.00  0.00     0.227 S 
HETATM   14  C   UNK N   1      31.997  16.893   3.133  0.00  0.00     0.186 C 
HETATM   15  O   UNK N   1      32.923  15.528   5.426  0.00  0.00    -0.206 OA
HETATM   16  O   UNK N   1      33.495  17.832   5.266  0.00  0.00    -0.206 OA
ENDBRANCH  11  13
ENDBRANCH   8  11
BRANCH   9  17
HETATM   17  O   UNK N   1      28.811  18.568   7.334  0.00  0.00    -0.348 OA
BRANCH  17  18
HETATM   18  C   UNK N   1      27.836  19.545   7.386  0.00  0.00     0.180 C 
BRANCH  18  19
HETATM   19  C   UNK N   1      27.808  20.298   6.064  0.00  0.00     0.010 A 
HETATM   20  C   UNK N   1      27.064  21.603   6.238  0.00  0.00     0.007 A 
HETATM   21  C   UNK N   1      26.378  20.424   5.582  0.00  0.00     0.007 A 
ENDBRANCH  18  19
ENDBRANCH  17  18
ENDBRANCH   9  17
ENDBRANCH   3   5
ENDBRANCH   2   3
ENDBRANCH   1   2
BRANCH   1  22
HETATM   22  C   UNK N   1      23.522  16.302   3.957  0.00  0.00     0.079 C 
BRANCH  22  23
HETATM   23  C   UNK N   1      23.493  15.314   2.820  0.00  0.00    -0.009 A 
HETATM   24  C   UNK N   1      22.284  14.716   2.414  0.00  0.00     0.060 A 
HETATM   25  C   UNK N   1      22.278  13.866   1.306  0.00  0.00     0.146 A 
HETATM   26 Cl   UNK N   1      20.765  15.006   3.247  0.00  0.00    -0.082 Cl
HETATM   27  N   UNK N   1      23.428  13.605   0.633  0.00  0.00    -0.244 N 
HETATM   28  C   UNK N   1      24.613  14.142   1.023  0.00  0.00     0.146 A 
HETATM   29  C   UNK N   1      24.673  15.004   2.120  0.00  0.00     0.060 A 
HETATM   30 Cl   UNK N   1      26.229  15.674   2.590  0.00  0.00    -0.082 Cl
BRANCH  27  31
HETATM   31  O   UNK N   1      23.392  12.806  -0.432  0.00  0.00    -0.284 OA
ATOM     32  HO  UNK N   1      23.058  13.144  -1.255  1.00  0.00     0.245 HD
ENDBRANCH  27  31
ENDBRANCH  22  23
ENDBRANCH   1  22
BRANCH   1  33
HETATM   33  C   UNK N   1      22.352  15.747   6.173  0.00  0.00    -0.026 A 
HETATM   34  C   UNK N   1      21.735  17.000   6.258  0.00  0.00     0.012 A 
HETATM   35  C   UNK N   1      20.707  17.214   7.189  0.00  0.00     0.040 A 
HETATM   36  C   UNK N   1      20.304  16.183   8.064  0.00  0.00     0.108 A 
HETATM   37  C   UNK N   1      20.918  14.918   7.962  0.00  0.00     0.102 A 
HETATM   38  C   UNK N   1      21.898  14.713   7.005  0.00  0.00     0.049 A 
BRANCH  36  39
HETATM   39  O   UNK N   1      19.335  16.377   8.993  0.00  0.00    -0.287 OA
BRANCH  39  40
HETATM   40  C   UNK N   1      18.591  17.526   9.132  0.00  0.00     0.505 C 
HETATM   41  F   UNK N   1      17.412  17.255   9.800  0.00  0.00    -0.184 F 
HETATM   42  F   UNK N   1      19.323  18.441   9.865  0.00  0.00    -0.184 F 
ENDBRANCH  39  40
ENDBRANCH  36  39
BRANCH  37  43
HETATM   43  O   UNK N   1      20.639  13.895   8.808  0.00  0.00    -0.348 OA
BRANCH  43  44
HETATM   44  C   UNK N   1      21.291  13.748  10.011  0.00  0.00     0.180 C 
BRANCH  44  45
HETATM   45  C   UNK N   1      21.563  12.293  10.311  0.00  0.00     0.010 A 
HETATM   46  C   UNK N   1      22.840  12.220  11.122  0.00  0.00     0.007 A 
HETATM   47  C   UNK N   1      22.855  11.866   9.649  0.00  0.00     0.007 A 
ENDBRANCH  44  45
ENDBRANCH  43  44
ENDBRANCH  37  43
ENDBRANCH   1  33
TORSDOF 17
ENDMDL
MODEL 5
REMARK VINA RESULT:      -7.6      4.459      8.844
REMARK  17 active torsions:
REMARK  status: ('A' for Active; 'I' for Inactive)
REMARK    1  A    between atoms: S_2  and  N_5 
REMARK    2  A    between atoms: N_5  and  C_6 
REMARK    3  A    between atoms: C_9  and  C_17 
REMARK    4  A    between atoms: C_11  and  O_12 
REMARK    5  A    between atoms: O_12  and  C_13 
REMARK    6  A    between atoms: C_13  and  C_14 
REMARK    7  A    between atoms: C_17  and  O_19 
REMARK    8  A    between atoms: C_20  and  O_19 
REMARK    9  A    between atoms: C_20  and  C_21 
REMARK   10  A    between atoms: C_20  and  C_32 
REMARK   11  A    between atoms: C_21  and  C_22 
REMARK   12  A    between atoms: N_25  and  O_29 
REMARK   13  A    between atoms: C_35  and  O_43 
REMARK   14  A    between atoms: C_36  and  O_38 
REMARK   15  A    between atoms: O_38  and  C_39 
REMARK   16  A    between atoms: C_39  and  C_40 
REMARK   17  A    between atoms: O_43  and  C_44 
ROOT
HETATM    1  C   UNK N   1      21.574  13.509   6.969  0.00  0.00     0.169 C 
ENDROOT
BRANCH   1   2
HETATM    2  O   UNK N   1      20.280  13.986   6.753  0.00  0.00    -0.307 OA
BRANCH   2   3
HETATM    3  C   UNK N   1      19.936  15.306   6.864  0.00  0.00     0.294 C 
HETATM    4  O   UNK N   1      19.191  15.681   7.762  0.00  0.00    -0.259 OA
BRANCH   3   5
HETATM    5  C   UNK N   1      20.477  16.310   5.946  0.00  0.00     0.042 A 
HETATM    6  C   UNK N   1      21.202  17.410   6.402  0.00  0.00     0.020 A 
HETATM    7  C   UNK N   1      21.766  18.295   5.477  0.00  0.00     0.034 A 
HETATM    8  C   UNK N   1      21.577  18.120   4.097  0.00  0.00     0.075 A 
HETATM    9  C   UNK N   1      20.779  17.039   3.644  0.00  0.00     0.097 A 
HETATM   10  C   UNK N   1      20.269  16.135   4.581  0.00  0.00     0.056 A 
BRANCH   8  11
HETATM   11  N   UNK N   1      22.181  19.065   3.220  0.00  0.00    -0.282 N 
HETATM   12  H   UNK N   1      23.096  18.868   2.913  0.00  0.00     0.178 HD
BRANCH  11  13
HETATM   13  S   UNK N   1      21.446  20.553   2.633  0.00  0.00     0.227 S 
HETATM   14  C   UNK N   1      20.765  20.575   0.952  0.00  0.00     0.186 C 
HETATM   15  O   UNK N   1      22.473  21.661   2.922  0.00  0.00    -0.206 OA
HETATM   16  O   UNK N   1      20.364  20.859   3.678  0.00  0.00    -0.206 OA
ENDBRANCH  11  13
ENDBRANCH   8  11
BRANCH   9  17
HETATM   17  O   UNK N   1      20.479  16.886   2.333  0.00  0.00    -0.348 OA
BRANCH  17  18
HETATM   18  C   UNK N   1      19.978  15.714   1.801  0.00  0.00     0.180 C 
BRANCH  18  19
HETATM   19  C   UNK N   1      20.983  14.593   2.021  0.00  0.00     0.010 A 
HETATM   20  C   UNK N   1      21.993  14.587   0.896  0.00  0.00     0.007 A 
HETATM   21  C   UNK N   1      20.864  13.578   0.903  0.00  0.00     0.007 A 
ENDBRANCH  18  19
ENDBRANCH  17  18
ENDBRANCH   9  17
ENDBRANCH   3   5
ENDBRANCH   2   3
ENDBRANCH   1   2
BRANCH   1  22
HETATM   22  C   UNK N   1      22.278  14.455   7.957  0.00  0.00     0.079 C 
BRANCH  22  23
HETATM   23  C   UNK N   1      22.852  13.627   9.078  0.00  0.00    -0.009 A 
HETATM   24  C   UNK N   1      24.215  13.271   9.089  0.00  0.00     0.060 A 
HETATM   25  C   UNK N   1      24.732  12.572  10.181  0.00  0.00     0.146 A 
HETATM   26 Cl   UNK N   1      25.303  13.683   7.773  0.00  0.00    -0.082 Cl
HETATM   27  N   UNK N   1      23.929  12.225  11.219  0.00  0.00    -0.244 N 
HETATM   28  C   UNK N   1      22.604  12.527  11.220  0.00  0.00     0.146 A 
HETATM   29  C   UNK N   1      22.038  13.230  10.155  0.00  0.00     0.060 A 
HETATM   30 Cl   UNK N   1      20.319  13.597  10.198  0.00  0.00    -0.082 Cl
BRANCH  27  31
HETATM   31  O   UNK N   1      24.452  11.576  12.258  0.00  0.00    -0.284 OA
ATOM     32  HO  UNK N   1      23.985  11.572  13.086  1.00  0.00     0.245 HD
ENDBRANCH  27  31
ENDBRANCH  22  23
ENDBRANCH   1  22
BRANCH   1  33
HETATM   33  C   UNK N   1      22.334  13.313   5.660  0.00  0.00    -0.026 A 
HETATM   34  C   UNK N   1      22.345  12.079   4.999  0.00  0.00     0.012 A 
HETATM   35  C   UNK N   1      23.162  11.893   3.873  0.00  0.00     0.040 A 
HETATM   36  C   UNK N   1      23.998  12.933   3.412  0.00  0.00     0.108 A 
HETATM   37  C   UNK N   1      23.970  14.179   4.073  0.00  0.00     0.102 A 
HETATM   38  C   UNK N   1      23.122  14.357   5.153  0.00  0.00     0.049 A 
BRANCH  36  39
HETATM   39  O   UNK N   1      24.820  12.765   2.346  0.00  0.00    -0.287 OA
BRANCH  39  40
HETATM   40  C   UNK N   1      24.799  11.685   1.494  0.00  0.00     0.505 C 
HETATM   41  F   UNK N   1      24.051  11.977   0.369  0.00  0.00    -0.184 F 
HETATM   42  F   UNK N   1      26.096  11.400   1.110  0.00  0.00    -0.184 F 
ENDBRANCH  39  40
ENDBRANCH  36  39
BRANCH  37  43
HETATM   43  O   UNK N   1      24.790  15.206   3.738  0.00  0.00    -0.348 OA
BRANCH  43  44
HETATM   44  C   UNK N   1      25.784  15.648   4.581  0.00  0.00     0.180 C 
BRANCH  44  45
HETATM   45  C   UNK N   1      26.352  16.966   4.113  0.00  0.00     0.010 A 
HETATM   46  C   UNK N   1      26.881  17.699   5.329  0.00  0.00     0.007 A 
HETATM   47  C   UNK N   1      25.559  18.108   4.713  0.00  0.00     0.007 A 
ENDBRANCH  44  45
ENDBRANCH  43  44
ENDBRANCH  37  43
ENDBRANCH   1  33
TORSDOF 17
ENDMDL
MODEL 6
REMARK VINA RESULT:      -7.6      1.542      2.339
REMARK  17 active torsions:
REMARK  status: ('A' for Active; 'I' for Inactive)
REMARK    1  A    between atoms: S_2  and  N_5 
REMARK    2  A    between atoms: N_5  and  C_6 
REMARK    3  A    between atoms: C_9  and  C_17 
REMARK    4  A    between atoms: C_11  and  O_12 
REMARK    5  A    between atoms: O_12  and  C_13 
REMARK    6  A    between atoms: C_13  and  C_14 
REMARK    7  A    between atoms: C_17  and  O_19 
REMARK    8  A    between atoms: C_20  and  O_19 
REMARK    9  A    between atoms: C_20  and  C_21 
REMARK   10  A    between atoms: C_20  and  C_32 
REMARK   11  A    between atoms: C_21  and  C_22 
REMARK   12  A    between atoms: N_25  and  O_29 
REMARK   13  A    between atoms: C_35  and  O_43 
REMARK   14  A    between atoms: C_36  and  O_38 
REMARK   15  A    between atoms: O_38  and  C_39 
REMARK   16  A    between atoms: C_39  and  C_40 
REMARK   17  A    between atoms: O_43  and  C_44 
ROOT
HETATM    1  C   UNK N   1      23.153  16.614   5.271  0.00  0.00     0.169 C 
ENDROOT
BRANCH   1   2
HETATM    2  O   UNK N   1      24.526  16.855   5.187  0.00  0.00    -0.307 OA
BRANCH   2   3
HETATM    3  C   UNK N   1      25.294  16.468   4.121  0.00  0.00     0.294 C 
HETATM    4  O   UNK N   1      24.774  15.973   3.128  0.00  0.00    -0.259 OA
BRANCH   3   5
HETATM    5  C   UNK N   1      26.744  16.671   4.119  0.00  0.00     0.042 A 
HETATM    6  C   UNK N   1      27.541  16.272   3.046  0.00  0.00     0.020 A 
HETATM    7  C   UNK N   1      28.909  16.563   3.059  0.00  0.00     0.034 A 
HETATM    8  C   UNK N   1      29.503  17.211   4.154  0.00  0.00     0.075 A 
HETATM    9  C   UNK N   1      28.698  17.549   5.271  0.00  0.00     0.097 A 
HETATM   10  C   UNK N   1      27.324  17.299   5.217  0.00  0.00     0.056 A 
BRANCH   8  11
HETATM   11  N   UNK N   1      30.902  17.469   4.092  0.00  0.00    -0.282 N 
HETATM   12  H   UNK N   1      31.178  18.368   3.799  0.00  0.00     0.178 HD
BRANCH  11  13
HETATM   13  S   UNK N   1      32.185  16.331   4.490  0.00  0.00     0.227 S 
HETATM   14  C   UNK N   1      33.590  16.924   5.475  0.00  0.00     0.186 C 
HETATM   15  O   UNK N   1      32.573  15.666   3.159  0.00  0.00    -0.206 OA
HETATM   16  O   UNK N   1      31.448  15.187   5.201  0.00  0.00    -0.206 OA
ENDBRANCH  11  13
ENDBRANCH   8  11
BRANCH   9  17
HETATM   17  O   UNK N   1      29.239  18.079   6.393  0.00  0.00    -0.348 OA
BRANCH  17  18
HETATM   18  C   UNK N   1      29.778  17.314   7.409  0.00  0.00     0.180 C 
BRANCH  18  19
HETATM   19  C   UNK N   1      28.860  17.371   8.621  0.00  0.00     0.010 A 
HETATM   20  C   UNK N   1      28.317  18.773   8.783  0.00  0.00     0.007 A 
HETATM   21  C   UNK N   1      29.453  18.296   9.664  0.00  0.00     0.007 A 
ENDBRANCH  18  19
ENDBRANCH  17  18
ENDBRANCH   9  17
ENDBRANCH   3   5
ENDBRANCH   2   3
ENDBRANCH   1   2
BRANCH   1  22
HETATM   22  C   UNK N   1      22.447  17.949   5.561  0.00  0.00     0.079 C 
BRANCH  22  23
HETATM   23  C   UNK N   1      21.932  18.506   4.258  0.00  0.00    -0.009 A 
HETATM   24  C   UNK N   1      22.700  19.419   3.510  0.00  0.00     0.060 A 
HETATM   25  C   UNK N   1      22.230  19.854   2.269  0.00  0.00     0.146 A 
HETATM   26 Cl   UNK N   1      24.245  20.034   4.076  0.00  0.00    -0.082 Cl
HETATM   27  N   UNK N   1      21.039  19.413   1.790  0.00  0.00    -0.244 N 
HETATM   28  C   UNK N   1      20.263  18.557   2.506  0.00  0.00     0.146 A 
HETATM   29  C   UNK N   1      20.689  18.087   3.750  0.00  0.00     0.060 A 
HETATM   30 Cl   UNK N   1      19.651  16.982   4.641  0.00  0.00    -0.082 Cl
BRANCH  27  31
HETATM   31  O   UNK N   1      20.623  19.828   0.595  0.00  0.00    -0.284 OA
ATOM     32  HO  UNK N   1      21.221  20.312   0.038  1.00  0.00     0.245 HD
ENDBRANCH  27  31
ENDBRANCH  22  23
ENDBRANCH   1  22
BRANCH   1  33
HETATM   33  C   UNK N   1      22.829  15.517   6.281  0.00  0.00    -0.026 A 
HETATM   34  C   UNK N   1      23.674  14.414   6.458  0.00  0.00     0.012 A 
HETATM   35  C   UNK N   1      23.281  13.356   7.293  0.00  0.00     0.040 A 
HETATM   36  C   UNK N   1      22.027  13.379   7.939  0.00  0.00     0.108 A 
HETATM   37  C   UNK N   1      21.188  14.499   7.770  0.00  0.00     0.102 A 
HETATM   38  C   UNK N   1      21.614  15.554   6.979  0.00  0.00     0.049 A 
BRANCH  36  39
HETATM   39  O   UNK N   1      21.614  12.353   8.725  0.00  0.00    -0.287 OA
BRANCH  39  40
HETATM   40  C   UNK N   1      22.008  12.144  10.026  0.00  0.00     0.505 C 
HETATM   41  F   UNK N   1      23.116  11.319  10.064  0.00  0.00    -0.184 F 
HETATM   42  F   UNK N   1      22.337  13.364  10.589  0.00  0.00    -0.184 F 
ENDBRANCH  39  40
ENDBRANCH  36  39
BRANCH  37  43
HETATM   43  O   UNK N   1      19.942  14.570   8.299  0.00  0.00    -0.348 OA
BRANCH  43  44
HETATM   44  C   UNK N   1      19.582  15.561   9.184  0.00  0.00     0.180 C 
BRANCH  44  45
HETATM   45  C   UNK N   1      18.891  16.702   8.477  0.00  0.00     0.010 A 
HETATM   46  C   UNK N   1      19.379  17.995   9.099  0.00  0.00     0.007 A 
HETATM   47  C   UNK N   1      18.009  17.452   9.451  0.00  0.00     0.007 A 
ENDBRANCH  44  45
ENDBRANCH  43  44
ENDBRANCH  37  43
ENDBRANCH   1  33
TORSDOF 17
ENDMDL
MODEL 7
REMARK VINA RESULT:      -7.4      3.228      5.052
REMARK  17 active torsions:
REMARK  status: ('A' for Active; 'I' for Inactive)
REMARK    1  A    between atoms: S_2  and  N_5 
REMARK    2  A    between atoms: N_5  and  C_6 
REMARK    3  A    between atoms: C_9  and  C_17 
REMARK    4  A    between atoms: C_11  and  O_12 
REMARK    5  A    between atoms: O_12  and  C_13 
REMARK    6  A    between atoms: C_13  and  C_14 
REMARK    7  A    between atoms: C_17  and  O_19 
REMARK    8  A    between atoms: C_20  and  O_19 
REMARK    9  A    between atoms: C_20  and  C_21 
REMARK   10  A    between atoms: C_20  and  C_32 
REMARK   11  A    between atoms: C_21  and  C_22 
REMARK   12  A    between atoms: N_25  and  O_29 
REMARK   13  A    between atoms: C_35  and  O_43 
REMARK   14  A    between atoms: C_36  and  O_38 
REMARK   15  A    between atoms: O_38  and  C_39 
REMARK   16  A    between atoms: C_39  and  C_40 
REMARK   17  A    between atoms: O_43  and  C_44 
ROOT
HETATM    1  C   UNK N   1      23.526  15.351   5.192  0.00  0.00     0.169 C 
ENDROOT
BRANCH   1   2
HETATM    2  O   UNK N   1      23.600  16.307   4.177  0.00  0.00    -0.307 OA
BRANCH   2   3
HETATM    3  C   UNK N   1      24.241  17.508   4.320  0.00  0.00     0.294 C 
HETATM    4  O   UNK N   1      23.599  18.542   4.463  0.00  0.00    -0.259 OA
BRANCH   3   5
HETATM    5  C   UNK N   1      25.702  17.588   4.349  0.00  0.00     0.042 A 
HETATM    6  C   UNK N   1      26.485  17.143   3.283  0.00  0.00     0.020 A 
HETATM    7  C   UNK N   1      27.873  17.317   3.328  0.00  0.00     0.034 A 
HETATM    8  C   UNK N   1      28.496  17.893   4.447  0.00  0.00     0.075 A 
HETATM    9  C   UNK N   1      27.700  18.277   5.555  0.00  0.00     0.097 A 
HETATM   10  C   UNK N   1      26.311  18.145   5.470  0.00  0.00     0.056 A 
BRANCH   8  11
HETATM   11  N   UNK N   1      29.913  18.033   4.417  0.00  0.00    -0.282 N 
HETATM   12  H   UNK N   1      30.269  18.913   4.154  0.00  0.00     0.178 HD
BRANCH  11  13
HETATM   13  S   UNK N   1      31.087  16.781   4.805  0.00  0.00     0.227 S 
HETATM   14  C   UNK N   1      32.623  17.266   5.641  0.00  0.00     0.186 C 
HETATM   15  O   UNK N   1      31.292  15.991   3.501  0.00  0.00    -0.206 OA
HETATM   16  O   UNK N   1      30.285  15.779   5.647  0.00  0.00    -0.206 OA
ENDBRANCH  11  13
ENDBRANCH   8  11
BRANCH   9  17
HETATM   17  O   UNK N   1      28.260  18.739   6.698  0.00  0.00    -0.348 OA
BRANCH  17  18
HETATM   18  C   UNK N   1      28.080  18.137   7.928  0.00  0.00     0.180 C 
BRANCH  18  19
HETATM   19  C   UNK N   1      29.435  17.743   8.497  0.00  0.00     0.010 A 
HETATM   20  C   UNK N   1      29.268  17.264   9.922  0.00  0.00     0.007 A 
HETATM   21  C   UNK N   1      29.786  18.661   9.650  0.00  0.00     0.007 A 
ENDBRANCH  18  19
ENDBRANCH  17  18
ENDBRANCH   9  17
ENDBRANCH   3   5
ENDBRANCH   2   3
ENDBRANCH   1   2
BRANCH   1  22
HETATM   22  C   UNK N   1      23.782  13.967   4.570  0.00  0.00     0.079 C 
BRANCH  22  23
HETATM   23  C   UNK N   1      25.255  13.845   4.278  0.00  0.00    -0.009 A 
HETATM   24  C   UNK N   1      25.720  13.710   2.955  0.00  0.00     0.060 A 
HETATM   25  C   UNK N   1      27.095  13.680   2.712  0.00  0.00     0.146 A 
HETATM   26 Cl   UNK N   1      24.630  13.587   1.583  0.00  0.00    -0.082 Cl
HETATM   27  N   UNK N   1      27.978  13.766   3.740  0.00  0.00    -0.244 N 
HETATM   28  C   UNK N   1      27.557  13.863   5.027  0.00  0.00     0.146 A 
HETATM   29  C   UNK N   1      26.193  13.904   5.325  0.00  0.00     0.060 A 
HETATM   30 Cl   UNK N   1      25.694  14.029   7.006  0.00  0.00    -0.082 Cl
BRANCH  27  31
HETATM   31  O   UNK N   1      29.284  13.754   3.479  0.00  0.00    -0.284 OA
ATOM     32  HO  UNK N   1      29.776  14.565   3.536  1.00  0.00     0.245 HD
ENDBRANCH  27  31
ENDBRANCH  22  23
ENDBRANCH   1  22
BRANCH   1  33
HETATM   33  C   UNK N   1      22.212  15.442   5.964  0.00  0.00    -0.026 A 
HETATM   34  C   UNK N   1      21.070  16.021   5.398  0.00  0.00     0.012 A 
HETATM   35  C   UNK N   1      19.920  16.214   6.179  0.00  0.00     0.040 A 
HETATM   36  C   UNK N   1      19.910  15.854   7.543  0.00  0.00     0.108 A 
HETATM   37  C   UNK N   1      21.057  15.256   8.104  0.00  0.00     0.102 A 
HETATM   38  C   UNK N   1      22.166  15.032   7.304  0.00  0.00     0.049 A 
BRANCH  36  39
HETATM   39  O   UNK N   1      18.820  16.061   8.324  0.00  0.00    -0.287 OA
BRANCH  39  40
HETATM   40  C   UNK N   1      18.569  17.207   9.042  0.00  0.00     0.505 C 
HETATM   41  F   UNK N   1      19.506  18.177   8.739  0.00  0.00    -0.184 F 
HETATM   42  F   UNK N   1      17.312  17.675   8.704  0.00  0.00    -0.184 F 
ENDBRANCH  39  40
ENDBRANCH  36  39
BRANCH  37  43
HETATM   43  O   UNK N   1      21.155  14.944   9.419  0.00  0.00    -0.348 OA
BRANCH  43  44
HETATM   44  C   UNK N   1      21.115  13.642   9.863  0.00  0.00     0.180 C 
BRANCH  44  45
HETATM   45  C   UNK N   1      22.479  13.175  10.312  0.00  0.00     0.010 A 
HETATM   46  C   UNK N   1      22.645  11.736   9.867  0.00  0.00     0.007 A 
HETATM   47  C   UNK N   1      22.332  12.052  11.316  0.00  0.00     0.007 A 
ENDBRANCH  44  45
ENDBRANCH  43  44
ENDBRANCH  37  43
ENDBRANCH   1  33
TORSDOF 17
ENDMDL
MODEL 8
REMARK VINA RESULT:      -7.4      1.580      3.257
REMARK  17 active torsions:
REMARK  status: ('A' for Active; 'I' for Inactive)
REMARK    1  A    between atoms: S_2  and  N_5 
REMARK    2  A    between atoms: N_5  and  C_6 
REMARK    3  A    between atoms: C_9  and  C_17 
REMARK    4  A    between atoms: C_11  and  O_12 
REMARK    5  A    between atoms: O_12  and  C_13 
REMARK    6  A    between atoms: C_13  and  C_14 
REMARK    7  A    between atoms: C_17  and  O_19 
REMARK    8  A    between atoms: C_20  and  O_19 
REMARK    9  A    between atoms: C_20  and  C_21 
REMARK   10  A    between atoms: C_20  and  C_32 
REMARK   11  A    between atoms: C_21  and  C_22 
REMARK   12  A    between atoms: N_25  and  O_29 
REMARK   13  A    between atoms: C_35  and  O_43 
REMARK   14  A    between atoms: C_36  and  O_38 
REMARK   15  A    between atoms: O_38  and  C_39 
REMARK   16  A    between atoms: C_39  and  C_40 
REMARK   17  A    between atoms: O_43  and  C_44 
ROOT
HETATM    1  C   UNK N   1      22.404  16.435   5.158  0.00  0.00     0.169 C 
ENDROOT
BRANCH   1   2
HETATM    2  O   UNK N   1      23.781  16.241   5.029  0.00  0.00    -0.307 OA
BRANCH   2   3
HETATM    3  C   UNK N   1      24.380  15.851   3.861  0.00  0.00     0.294 C 
HETATM    4  O   UNK N   1      23.717  15.346   2.961  0.00  0.00    -0.259 OA
BRANCH   3   5
HETATM    5  C   UNK N   1      25.810  16.062   3.635  0.00  0.00     0.042 A 
HETATM    6  C   UNK N   1      26.549  15.245   2.779  0.00  0.00     0.020 A 
HETATM    7  C   UNK N   1      27.895  15.540   2.537  0.00  0.00     0.034 A 
HETATM    8  C   UNK N   1      28.528  16.619   3.175  0.00  0.00     0.075 A 
HETATM    9  C   UNK N   1      27.788  17.400   4.098  0.00  0.00     0.097 A 
HETATM   10  C   UNK N   1      26.431  17.123   4.286  0.00  0.00     0.056 A 
BRANCH   8  11
HETATM   11  N   UNK N   1      29.901  16.851   2.877  0.00  0.00    -0.282 N 
HETATM   12  H   UNK N   1      30.102  17.312   2.030  0.00  0.00     0.178 HD
BRANCH  11  13
HETATM   13  S   UNK N   1      31.272  16.394   3.882  0.00  0.00     0.227 S 
HETATM   14  C   UNK N   1      32.738  15.693   3.074  0.00  0.00     0.186 C 
HETATM   15  O   UNK N   1      30.686  15.524   5.007  0.00  0.00    -0.206 OA
HETATM   16  O   UNK N   1      31.614  17.685   4.639  0.00  0.00    -0.206 OA
ENDBRANCH  11  13
ENDBRANCH   8  11
BRANCH   9  17
HETATM   17  O   UNK N   1      28.378  18.385   4.817  0.00  0.00    -0.348 OA
BRANCH  17  18
HETATM   18  C   UNK N   1      28.008  18.705   6.109  0.00  0.00     0.180 C 
BRANCH  18  19
HETATM   19  C   UNK N   1      28.921  17.982   7.087  0.00  0.00     0.010 A 
HETATM   20  C   UNK N   1      28.092  17.319   8.164  0.00  0.00     0.007 A 
HETATM   21  C   UNK N   1      28.807  18.622   8.455  0.00  0.00     0.007 A 
ENDBRANCH  18  19
ENDBRANCH  17  18
ENDBRANCH   9  17
ENDBRANCH   3   5
ENDBRANCH   2   3
ENDBRANCH   1   2
BRANCH   1  22
HETATM   22  C   UNK N   1      22.146  17.936   5.370  0.00  0.00     0.079 C 
BRANCH  22  23
HETATM   23  C   UNK N   1      21.769  18.544   4.044  0.00  0.00    -0.009 A 
HETATM   24  C   UNK N   1      20.539  18.233   3.431  0.00  0.00     0.060 A 
HETATM   25  C   UNK N   1      20.185  18.874   2.242  0.00  0.00     0.146 A 
HETATM   26 Cl   UNK N   1      19.418  17.066   4.113  0.00  0.00    -0.082 Cl
HETATM   27  N   UNK N   1      21.021  19.780   1.672  0.00  0.00    -0.244 N 
HETATM   28  C   UNK N   1      22.227  20.074   2.225  0.00  0.00     0.146 A 
HETATM   29  C   UNK N   1      22.627  19.465   3.417  0.00  0.00     0.060 A 
HETATM   30 Cl   UNK N   1      24.197  19.876   4.094  0.00  0.00    -0.082 Cl
BRANCH  27  31
HETATM   31  O   UNK N   1      20.651  20.391   0.549  0.00  0.00    -0.284 OA
ATOM     32  HO  UNK N   1      20.347  21.291   0.589  1.00  0.00     0.245 HD
ENDBRANCH  27  31
ENDBRANCH  22  23
ENDBRANCH   1  22
BRANCH   1  33
HETATM   33  C   UNK N   1      21.805  15.549   6.248  0.00  0.00    -0.026 A 
HETATM   34  C   UNK N   1      21.287  16.094   7.429  0.00  0.00     0.012 A 
HETATM   35  C   UNK N   1      20.870  15.247   8.468  0.00  0.00     0.040 A 
HETATM   36  C   UNK N   1      20.991  13.847   8.346  0.00  0.00     0.108 A 
HETATM   37  C   UNK N   1      21.498  13.304   7.147  0.00  0.00     0.102 A 
HETATM   38  C   UNK N   1      21.861  14.154   6.116  0.00  0.00     0.049 A 
BRANCH  36  39
HETATM   39  O   UNK N   1      20.624  13.011   9.350  0.00  0.00    -0.287 OA
BRANCH  39  40
HETATM   40  C   UNK N   1      21.389  12.720  10.455  0.00  0.00     0.505 C 
HETATM   41  F   UNK N   1      20.578  12.394  11.526  0.00  0.00    -0.184 F 
HETATM   42  F   UNK N   1      22.200  11.640  10.160  0.00  0.00    -0.184 F 
ENDBRANCH  39  40
ENDBRANCH  36  39
BRANCH  37  43
HETATM   43  O   UNK N   1      21.710  11.976   6.974  0.00  0.00    -0.348 OA
BRANCH  43  44
HETATM   44  C   UNK N   1      22.978  11.445   6.903  0.00  0.00     0.180 C 
BRANCH  44  45
HETATM   45  C   UNK N   1      22.947  10.016   6.418  0.00  0.00     0.010 A 
HETATM   46  C   UNK N   1      23.836   9.198   7.331  0.00  0.00     0.007 A 
HETATM   47  C   UNK N   1      24.326   9.600   5.956  0.00  0.00     0.007 A 
ENDBRANCH  44  45
ENDBRANCH  43  44
ENDBRANCH  37  43
ENDBRANCH   1  33
TORSDOF 17
ENDMDL
MODEL 9
REMARK VINA RESULT:      -7.4      2.535      3.614
REMARK  17 active torsions:
REMARK  status: ('A' for Active; 'I' for Inactive)
REMARK    1  A    between atoms: S_2  and  N_5 
REMARK    2  A    between atoms: N_5  and  C_6 
REMARK    3  A    between atoms: C_9  and  C_17 
REMARK    4  A    between atoms: C_11  and  O_12 
REMARK    5  A    between atoms: O_12  and  C_13 
REMARK    6  A    between atoms: C_13  and  C_14 
REMARK    7  A    between atoms: C_17  and  O_19 
REMARK    8  A    between atoms: C_20  and  O_19 
REMARK    9  A    between atoms: C_20  and  C_21 
REMARK   10  A    between atoms: C_20  and  C_32 
REMARK   11  A    between atoms: C_21  and  C_22 
REMARK   12  A    between atoms: N_25  and  O_29 
REMARK   13  A    between atoms: C_35  and  O_43 
REMARK   14  A    between atoms: C_36  and  O_38 
REMARK   15  A    between atoms: O_38  and  C_39 
REMARK   16  A    between atoms: C_39  and  C_40 
REMARK   17  A    between atoms: O_43  and  C_44 
ROOT
HETATM    1  C   UNK N   1      22.954  15.960   5.033  0.00  0.00     0.169 C 
ENDROOT
BRANCH   1   2
HETATM    2  O   UNK N   1      24.203  15.793   5.635  0.00  0.00    -0.307 OA
BRANCH   2   3
HETATM    3  C   UNK N   1      25.216  15.060   5.077  0.00  0.00     0.294 C 
HETATM    4  O   UNK N   1      24.965  14.091   4.370  0.00  0.00    -0.259 OA
BRANCH   3   5
HETATM    5  C   UNK N   1      26.617  15.434   5.271  0.00  0.00     0.042 A 
HETATM    6  C   UNK N   1      27.639  14.484   5.278  0.00  0.00     0.020 A 
HETATM    7  C   UNK N   1      28.969  14.902   5.386  0.00  0.00     0.034 A 
HETATM    8  C   UNK N   1      29.292  16.261   5.533  0.00  0.00     0.075 A 
HETATM    9  C   UNK N   1      28.244  17.214   5.597  0.00  0.00     0.097 A 
HETATM   10  C   UNK N   1      26.925  16.781   5.433  0.00  0.00     0.056 A 
BRANCH   8  11
HETATM   11  N   UNK N   1      30.669  16.607   5.639  0.00  0.00    -0.282 N 
HETATM   12  H   UNK N   1      31.123  16.892   4.813  0.00  0.00     0.178 HD
BRANCH  11  13
HETATM   13  S   UNK N   1      31.636  16.572   7.110  0.00  0.00     0.227 S 
HETATM   14  C   UNK N   1      33.047  17.706   7.242  0.00  0.00     0.186 C 
HETATM   15  O   UNK N   1      31.983  15.092   7.339  0.00  0.00    -0.206 OA
HETATM   16  O   UNK N   1      30.611  16.823   8.224  0.00  0.00    -0.206 OA
ENDBRANCH  11  13
ENDBRANCH   8  11
BRANCH   9  17
HETATM   17  O   UNK N   1      28.495  18.521   5.842  0.00  0.00    -0.348 OA
BRANCH  17  18
HETATM   18  C   UNK N   1      27.821  19.257   6.797  0.00  0.00     0.180 C 
BRANCH  18  19
HETATM   19  C   UNK N   1      26.892  20.244   6.108  0.00  0.00     0.010 A 
HETATM   20  C   UNK N   1      27.461  21.641   6.219  0.00  0.00     0.007 A 
HETATM   21  C   UNK N   1      26.331  21.211   7.131  0.00  0.00     0.007 A 
ENDBRANCH  18  19
ENDBRANCH  17  18
ENDBRANCH   9  17
ENDBRANCH   3   5
ENDBRANCH   2   3
ENDBRANCH   1   2
BRANCH   1  22
HETATM   22  C   UNK N   1      23.079  17.055   3.960  0.00  0.00     0.079 C 
BRANCH  22  23
HETATM   23  C   UNK N   1      21.872  16.977   3.061  0.00  0.00    -0.009 A 
HETATM   24  C   UNK N   1      21.028  18.091   2.887  0.00  0.00     0.060 A 
HETATM   25  C   UNK N   1      19.964  18.011   1.986  0.00  0.00     0.146 A 
HETATM   26 Cl   UNK N   1      21.267  19.596   3.760  0.00  0.00    -0.082 Cl
HETATM   27  N   UNK N   1      19.735  16.867   1.292  0.00  0.00    -0.244 N 
HETATM   28  C   UNK N   1      20.513  15.767   1.464  0.00  0.00     0.146 A 
HETATM   29  C   UNK N   1      21.594  15.796   2.349  0.00  0.00     0.060 A 
HETATM   30 Cl   UNK N   1      22.572  14.348   2.541  0.00  0.00    -0.082 Cl
BRANCH  27  31
HETATM   31  O   UNK N   1      18.725  16.823   0.424  0.00  0.00    -0.284 OA
ATOM     32  HO  UNK N   1      18.876  16.472  -0.446  1.00  0.00     0.245 HD
ENDBRANCH  27  31
ENDBRANCH  22  23
ENDBRANCH   1  22
BRANCH   1  33
HETATM   33  C   UNK N   1      21.859  16.231   6.061  0.00  0.00    -0.026 A 
HETATM   34  C   UNK N   1      21.490  17.536   6.409  0.00  0.00     0.012 A 
HETATM   35  C   UNK N   1      20.578  17.752   7.454  0.00  0.00     0.040 A 
HETATM   36  C   UNK N   1      20.046  16.665   8.179  0.00  0.00     0.108 A 
HETATM   37  C   UNK N   1      20.409  15.353   7.814  0.00  0.00     0.102 A 
HETATM   38  C   UNK N   1      21.274  15.158   6.749  0.00  0.00     0.049 A 
BRANCH  36  39
HETATM   39  O   UNK N   1      19.188  16.853   9.214  0.00  0.00    -0.287 OA
BRANCH  39  40
HETATM   40  C   UNK N   1      18.500  18.016   9.469  0.00  0.00     0.505 C 
HETATM   41  F   UNK N   1      17.373  17.750  10.224  0.00  0.00    -0.184 F 
HETATM   42  F   UNK N   1      19.325  18.871  10.178  0.00  0.00    -0.184 F 
ENDBRANCH  39  40
ENDBRANCH  36  39
BRANCH  37  43
HETATM   43  O   UNK N   1      19.998  14.259   8.501  0.00  0.00    -0.348 OA
BRANCH  43  44
HETATM   44  C   UNK N   1      20.546  13.914   9.715  0.00  0.00     0.180 C 
BRANCH  44  45
HETATM   45  C   UNK N   1      21.446  12.708   9.587  0.00  0.00     0.010 A 
HETATM   46  C   UNK N   1      21.848  12.281  10.984  0.00  0.00     0.007 A 
HETATM   47  C   UNK N   1      22.826  13.040  10.111  0.00  0.00     0.007 A 
ENDBRANCH  44  45
ENDBRANCH  43  44
ENDBRANCH  37  43
ENDBRANCH   1  33
TORSDOF 17
ENDMDL
