MODEL 1
REMARK VINA RESULT:      -5.2      0.000      0.000
REMARK  27 active torsions:
REMARK  status: ('A' for Active; 'I' for Inactive)
REMARK    1  A    between atoms: C_5  and  C_3 
REMARK    2  A    between atoms: C_6  and  C_4 
REMARK    3  A    between atoms: C_7  and  C_5 
REMARK    4  A    between atoms: C_8  and  C_6 
REMARK    5  A    between atoms: C_9  and  C_7 
REMARK    6  A    between atoms: C_10  and  C_8 
REMARK    7  A    between atoms: C_15  and  C_9 
REMARK    8  A    between atoms: C_16  and  C_10 
REMARK    9  A    between atoms: C_12  and  C_11 
REMARK   10  A    between atoms: C_13  and  C_11 
REMARK   11  A    between atoms: C_14  and  C_12 
REMARK   12  A    between atoms: C_17  and  C_13 
REMARK   13  A    between atoms: C_18  and  C_14 
REMARK   14  A    between atoms: C_19  and  C_15 
REMARK   15  A    between atoms: C_20  and  C_16 
REMARK   16  A    between atoms: C_21  and  C_17 
REMARK   17  A    between atoms: C_22  and  C_18 
REMARK   18  A    between atoms: C_27  and  C_19 
REMARK   19  A    between atoms: C_28  and  C_20 
REMARK   20  A    between atoms: C_29  and  C_21 
REMARK   21  A    between atoms: C_30  and  C_22 
REMARK   22  A    between atoms: N_37  and  C_27 
REMARK   23  A    between atoms: N_39  and  C_28 
REMARK   24  A    between atoms: N_41  and  C_29 
REMARK   25  A    between atoms: N_42  and  C_30 
REMARK   26  A    between atoms: N_37  and  C_35 
REMARK   27  A    between atoms: N_39  and  C_36 
ROOT
HETATM    1  C   UNK N   1      21.148  14.316   9.135  0.00  0.00     0.000 C 
ENDROOT
BRANCH   1   2
HETATM    2  C   UNK N   1      20.831  13.822   7.735  0.00  0.00     0.000 C 
BRANCH   2   3
HETATM    3  C   UNK N   1      21.400  14.764   6.688  0.00  0.00     0.000 C 
BRANCH   3   4
HETATM    4  C   UNK N   1      21.562  16.153   7.285  0.00  0.00     0.002 C 
BRANCH   4   5
HETATM    5  C   UNK N   1      21.029  17.212   6.334  0.00  0.00     0.020 C 
BRANCH   5   6
HETATM    6  C   UNK N   1      21.495  16.905   4.918  0.00  0.00     0.128 C 
BRANCH   6   7
HETATM    7  N   UNK N   1      22.672  17.682   4.563  0.00  0.00    -0.366 N 
HETATM    8  C   UNK N   1      23.914  17.205   4.872  0.00  0.00     0.092 A 
HETATM    9  C   UNK N   1      25.061  17.906   4.487  0.00  0.00     0.046 A 
HETATM   10  C   UNK N   1      24.936  19.104   3.772  0.00  0.00     0.030 A 
HETATM   11  C   UNK N   1      23.642  19.575   3.473  0.00  0.00     0.046 A 
HETATM   12  C   UNK N   1      22.526  18.848   3.873  0.00  0.00     0.092 A 
BRANCH  10  13
HETATM   13  N   UNK N   1      25.985  19.739   3.390  0.00  0.00    -0.390 N 
ATOM     14  HN  UNK N   1      25.899  20.444   2.657  1.00  0.00     0.159 HD
BRANCH  13  15
HETATM   15  C   UNK N   1      27.286  19.480   3.971  0.00  0.00     0.119 C 
BRANCH  15  16
HETATM   16  C   UNK N   1      27.663  20.511   5.014  0.00  0.00     0.020 C 
BRANCH  16  17
HETATM   17  C   UNK N   1      27.628  19.801   6.354  0.00  0.00     0.002 C 
BRANCH  17  18
HETATM   18  C   UNK N   1      28.199  18.400   6.281  0.00  0.00     0.000 C 
BRANCH  18  19
HETATM   19  C   UNK N   1      28.439  17.937   7.704  0.00  0.00     0.000 C 
BRANCH  19  20
HETATM   20  C   UNK N   1      29.765  17.219   7.844  0.00  0.00    -0.000 C 
BRANCH  20  21
HETATM   21  C   UNK N   1      30.613  17.988   8.838  0.00  0.00    -0.005 C 
HETATM   22  C   UNK N   1      29.735  18.653   9.875  0.00  0.00     0.005 C 
ENDBRANCH  20  21
ENDBRANCH  19  20
ENDBRANCH  18  19
ENDBRANCH  17  18
ENDBRANCH  16  17
ENDBRANCH  15  16
ENDBRANCH  13  15
ENDBRANCH  10  13
ENDBRANCH   6   7
ENDBRANCH   5   6
ENDBRANCH   4   5
ENDBRANCH   3   4
ENDBRANCH   2   3
ENDBRANCH   1   2
BRANCH   1  23
HETATM   23  C   UNK N   1      20.398  13.505  10.177  0.00  0.00     0.000 C 
BRANCH  23  24
HETATM   24  C   UNK N   1      21.256  12.339  10.648  0.00  0.00     0.002 C 
BRANCH  24  25
HETATM   25  C   UNK N   1      22.716  12.744  10.771  0.00  0.00     0.020 C 
BRANCH  25  26
HETATM   26  C   UNK N   1      23.600  11.746  10.036  0.00  0.00     0.128 C 
BRANCH  26  27
HETATM   27  N   UNK N   1      24.187  12.344   8.846  0.00  0.00    -0.366 N 
HETATM   28  C   UNK N   1      23.991  11.742   7.640  0.00  0.00     0.092 A 
HETATM   29  C   UNK N   1      24.515  12.308   6.478  0.00  0.00     0.046 A 
HETATM   30  C   UNK N   1      25.243  13.506   6.556  0.00  0.00     0.030 A 
HETATM   31  C   UNK N   1      25.434  14.102   7.802  0.00  0.00     0.046 A 
HETATM   32  C   UNK N   1      24.892  13.507   8.942  0.00  0.00     0.092 A 
BRANCH  30  33
HETATM   33  N   UNK N   1      25.725  14.077   5.507  0.00  0.00    -0.390 N 
ATOM     34  HN  UNK N   1      25.213  13.987   4.629  1.00  0.00     0.159 HD
BRANCH  33  35
HETATM   35  C   UNK N   1      26.954  14.839   5.508  0.00  0.00     0.119 C 
BRANCH  35  36
HETATM   36  C   UNK N   1      27.549  14.882   4.106  0.00  0.00     0.020 C 
BRANCH  36  37
HETATM   37  C   UNK N   1      28.884  15.611   4.083  0.00  0.00     0.002 C 
BRANCH  37  38
HETATM   38  C   UNK N   1      30.027  14.610   4.081  0.00  0.00     0.000 C 
BRANCH  38  39
HETATM   39  C   UNK N   1      31.327  15.295   4.444  0.00  0.00     0.000 C 
BRANCH  39  40
HETATM   40  C   UNK N   1      31.039  16.751   4.747  0.00  0.00    -0.000 C 
BRANCH  40  41
HETATM   41  C   UNK N   1      32.083  17.632   4.094  0.00  0.00    -0.005 C 
HETATM   42  C   UNK N   1      32.767  16.858   2.987  0.00  0.00     0.005 C 
ENDBRANCH  40  41
ENDBRANCH  39  40
ENDBRANCH  38  39
ENDBRANCH  37  38
ENDBRANCH  36  37
ENDBRANCH  35  36
ENDBRANCH  33  35
ENDBRANCH  30  33
ENDBRANCH  26  27
ENDBRANCH  25  26
ENDBRANCH  24  25
ENDBRANCH  23  24
ENDBRANCH   1  23
TORSDOF 27
ENDMDL
MODEL 2
REMARK VINA RESULT:      -5.2     13.094     16.560
REMARK  27 active torsions:
REMARK  status: ('A' for Active; 'I' for Inactive)
REMARK    1  A    between atoms: C_5  and  C_3 
REMARK    2  A    between atoms: C_6  and  C_4 
REMARK    3  A    between atoms: C_7  and  C_5 
REMARK    4  A    between atoms: C_8  and  C_6 
REMARK    5  A    between atoms: C_9  and  C_7 
REMARK    6  A    between atoms: C_10  and  C_8 
REMARK    7  A    between atoms: C_15  and  C_9 
REMARK    8  A    between atoms: C_16  and  C_10 
REMARK    9  A    between atoms: C_12  and  C_11 
REMARK   10  A    between atoms: C_13  and  C_11 
REMARK   11  A    between atoms: C_14  and  C_12 
REMARK   12  A    between atoms: C_17  and  C_13 
REMARK   13  A    between atoms: C_18  and  C_14 
REMARK   14  A    between atoms: C_19  and  C_15 
REMARK   15  A    between atoms: C_20  and  C_16 
REMARK   16  A    between atoms: C_21  and  C_17 
REMARK   17  A    between atoms: C_22  and  C_18 
REMARK   18  A    between atoms: C_27  and  C_19 
REMARK   19  A    between atoms: C_28  and  C_20 
REMARK   20  A    between atoms: C_29  and  C_21 
REMARK   21  A    between atoms: C_30  and  C_22 
REMARK   22  A    between atoms: N_37  and  C_27 
REMARK   23  A    between atoms: N_39  and  C_28 
REMARK   24  A    between atoms: N_41  and  C_29 
REMARK   25  A    between atoms: N_42  and  C_30 
REMARK   26  A    between atoms: N_37  and  C_35 
REMARK   27  A    between atoms: N_39  and  C_36 
ROOT
HETATM    1  C   UNK N   1      27.972  28.801  -6.993  0.00  0.00     0.000 C 
ENDROOT
BRANCH   1   2
HETATM    2  C   UNK N   1      29.182  29.711  -6.876  0.00  0.00     0.000 C 
BRANCH   2   3
HETATM    3  C   UNK N   1      29.085  30.581  -5.634  0.00  0.00     0.000 C 
BRANCH   3   4
HETATM    4  C   UNK N   1      27.683  30.485  -5.052  0.00  0.00     0.002 C 
BRANCH   4   5
HETATM    5  C   UNK N   1      27.697  29.711  -3.744  0.00  0.00     0.020 C 
BRANCH   5   6
HETATM    6  C   UNK N   1      26.282  29.271  -3.397  0.00  0.00     0.128 C 
BRANCH   6   7
HETATM    7  N   UNK N   1      25.977  27.963  -3.957  0.00  0.00    -0.366 N 
HETATM    8  C   UNK N   1      25.151  27.869  -5.040  0.00  0.00     0.092 A 
HETATM    9  C   UNK N   1      24.893  26.628  -5.632  0.00  0.00     0.046 A 
HETATM   10  C   UNK N   1      25.493  25.474  -5.114  0.00  0.00     0.030 A 
HETATM   11  C   UNK N   1      26.336  25.601  -3.992  0.00  0.00     0.046 A 
HETATM   12  C   UNK N   1      26.568  26.853  -3.433  0.00  0.00     0.092 A 
BRANCH  10  13
HETATM   13  N   UNK N   1      25.284  24.335  -5.669  0.00  0.00    -0.390 N 
ATOM     14  HN  UNK N   1      24.373  24.146  -6.088  1.00  0.00     0.159 HD
BRANCH  13  15
HETATM   15  C   UNK N   1      26.307  23.311  -5.716  0.00  0.00     0.119 C 
BRANCH  15  16
HETATM   16  C   UNK N   1      26.406  22.662  -7.080  0.00  0.00     0.020 C 
BRANCH  16  17
HETATM   17  C   UNK N   1      27.115  23.655  -7.980  0.00  0.00     0.002 C 
BRANCH  17  18
HETATM   18  C   UNK N   1      26.875  23.377  -9.450  0.00  0.00     0.000 C 
BRANCH  18  19
HETATM   19  C   UNK N   1      25.795  24.333  -9.917  0.00  0.00     0.000 C 
BRANCH  19  20
HETATM   20  C   UNK N   1      26.019  25.734  -9.387  0.00  0.00    -0.000 C 
BRANCH  20  21
HETATM   21  C   UNK N   1      26.432  26.616 -10.549  0.00  0.00    -0.005 C 
HETATM   22  C   UNK N   1      27.899  26.971 -10.444  0.00  0.00     0.005 C 
ENDBRANCH  20  21
ENDBRANCH  19  20
ENDBRANCH  18  19
ENDBRANCH  17  18
ENDBRANCH  16  17
ENDBRANCH  15  16
ENDBRANCH  13  15
ENDBRANCH  10  13
ENDBRANCH   6   7
ENDBRANCH   5   6
ENDBRANCH   4   5
ENDBRANCH   3   4
ENDBRANCH   2   3
ENDBRANCH   1   2
BRANCH   1  23
HETATM   23  C   UNK N   1      28.370  27.347  -6.804  0.00  0.00     0.000 C 
BRANCH  23  24
HETATM   24  C   UNK N   1      29.705  27.261  -6.078  0.00  0.00     0.002 C 
BRANCH  24  25
HETATM   25  C   UNK N   1      30.090  25.816  -5.800  0.00  0.00     0.020 C 
BRANCH  25  26
HETATM   26  C   UNK N   1      29.931  25.506  -4.318  0.00  0.00     0.128 C 
BRANCH  26  27
HETATM   27  N   UNK N   1      30.673  24.310  -3.951  0.00  0.00    -0.366 N 
HETATM   28  C   UNK N   1      31.810  24.003  -4.635  0.00  0.00     0.092 A 
HETATM   29  C   UNK N   1      32.559  22.880  -4.285  0.00  0.00     0.046 A 
HETATM   30  C   UNK N   1      32.139  22.069  -3.220  0.00  0.00     0.030 A 
HETATM   31  C   UNK N   1      30.970  22.401  -2.536  0.00  0.00     0.046 A 
HETATM   32  C   UNK N   1      30.248  23.533  -2.914  0.00  0.00     0.092 A 
BRANCH  30  33
HETATM   33  N   UNK N   1      32.812  21.035  -2.847  0.00  0.00    -0.390 N 
ATOM     34  HN  UNK N   1      32.407  20.427  -2.134  1.00  0.00     0.159 HD
BRANCH  33  35
HETATM   35  C   UNK N   1      34.108  20.690  -3.385  0.00  0.00     0.119 C 
BRANCH  35  36
HETATM   36  C   UNK N   1      34.070  19.298  -4.002  0.00  0.00     0.020 C 
BRANCH  36  37
HETATM   37  C   UNK N   1      32.939  19.161  -5.011  0.00  0.00     0.002 C 
BRANCH  37  38
HETATM   38  C   UNK N   1      33.317  19.841  -6.316  0.00  0.00     0.000 C 
BRANCH  38  39
HETATM   39  C   UNK N   1      32.087  20.411  -6.987  0.00  0.00     0.000 C 
BRANCH  39  40
HETATM   40  C   UNK N   1      30.895  20.198  -6.077  0.00  0.00    -0.000 C 
BRANCH  40  41
HETATM   41  C   UNK N   1      29.675  20.884  -6.653  0.00  0.00    -0.005 C 
HETATM   42  C   UNK N   1      29.096  20.027  -7.759  0.00  0.00     0.005 C 
ENDBRANCH  40  41
ENDBRANCH  39  40
ENDBRANCH  38  39
ENDBRANCH  37  38
ENDBRANCH  36  37
ENDBRANCH  35  36
ENDBRANCH  33  35
ENDBRANCH  30  33
ENDBRANCH  26  27
ENDBRANCH  25  26
ENDBRANCH  24  25
ENDBRANCH  23  24
ENDBRANCH   1  23
TORSDOF 27
ENDMDL
MODEL 3
REMARK VINA RESULT:      -5.1      3.707      6.820
REMARK  27 active torsions:
REMARK  status: ('A' for Active; 'I' for Inactive)
REMARK    1  A    between atoms: C_5  and  C_3 
REMARK    2  A    between atoms: C_6  and  C_4 
REMARK    3  A    between atoms: C_7  and  C_5 
REMARK    4  A    between atoms: C_8  and  C_6 
REMARK    5  A    between atoms: C_9  and  C_7 
REMARK    6  A    between atoms: C_10  and  C_8 
REMARK    7  A    between atoms: C_15  and  C_9 
REMARK    8  A    between atoms: C_16  and  C_10 
REMARK    9  A    between atoms: C_12  and  C_11 
REMARK   10  A    between atoms: C_13  and  C_11 
REMARK   11  A    between atoms: C_14  and  C_12 
REMARK   12  A    between atoms: C_17  and  C_13 
REMARK   13  A    between atoms: C_18  and  C_14 
REMARK   14  A    between atoms: C_19  and  C_15 
REMARK   15  A    between atoms: C_20  and  C_16 
REMARK   16  A    between atoms: C_21  and  C_17 
REMARK   17  A    between atoms: C_22  and  C_18 
REMARK   18  A    between atoms: C_27  and  C_19 
REMARK   19  A    between atoms: C_28  and  C_20 
REMARK   20  A    between atoms: C_29  and  C_21 
REMARK   21  A    between atoms: C_30  and  C_22 
REMARK   22  A    between atoms: N_37  and  C_27 
REMARK   23  A    between atoms: N_39  and  C_28 
REMARK   24  A    between atoms: N_41  and  C_29 
REMARK   25  A    between atoms: N_42  and  C_30 
REMARK   26  A    between atoms: N_37  and  C_35 
REMARK   27  A    between atoms: N_39  and  C_36 
ROOT
HETATM    1  C   UNK N   1      23.661  13.385   0.129  0.00  0.00     0.000 C 
ENDROOT
BRANCH   1   2
HETATM    2  C   UNK N   1      24.309  14.576   0.812  0.00  0.00     0.000 C 
BRANCH   2   3
HETATM    3  C   UNK N   1      25.223  14.121   1.938  0.00  0.00     0.000 C 
BRANCH   3   4
HETATM    4  C   UNK N   1      26.127  15.269   2.358  0.00  0.00     0.002 C 
BRANCH   4   5
HETATM    5  C   UNK N   1      26.423  15.203   3.847  0.00  0.00     0.020 C 
BRANCH   5   6
HETATM    6  C   UNK N   1      27.606  14.277   4.090  0.00  0.00     0.128 C 
BRANCH   6   7
HETATM    7  N   UNK N   1      28.869  14.993   4.003  0.00  0.00    -0.366 N 
HETATM    8  C   UNK N   1      29.878  14.489   3.234  0.00  0.00     0.092 A 
HETATM    9  C   UNK N   1      31.080  15.191   3.087  0.00  0.00     0.046 A 
HETATM   10  C   UNK N   1      31.246  16.424   3.729  0.00  0.00     0.030 A 
HETATM   11  C   UNK N   1      30.190  16.916   4.521  0.00  0.00     0.046 A 
HETATM   12  C   UNK N   1      29.011  16.189   4.641  0.00  0.00     0.092 A 
BRANCH  10  13
HETATM   13  N   UNK N   1      32.335  17.088   3.576  0.00  0.00    -0.390 N 
ATOM     14  HN  UNK N   1      32.636  17.338   2.634  1.00  0.00     0.159 HD
BRANCH  13  15
HETATM   15  C   UNK N   1      33.146  17.491   4.706  0.00  0.00     0.119 C 
BRANCH  15  16
HETATM   16  C   UNK N   1      33.895  16.327   5.319  0.00  0.00     0.020 C 
BRANCH  16  17
HETATM   17  C   UNK N   1      34.142  16.689   6.771  0.00  0.00     0.002 C 
BRANCH  17  18
HETATM   18  C   UNK N   1      33.321  17.881   7.217  0.00  0.00     0.000 C 
BRANCH  18  19
HETATM   19  C   UNK N   1      32.739  17.543   8.575  0.00  0.00     0.000 C 
BRANCH  19  20
HETATM   20  C   UNK N   1      31.480  16.711   8.454  0.00  0.00    -0.000 C 
BRANCH  20  21
HETATM   21  C   UNK N   1      30.333  17.642   8.111  0.00  0.00    -0.005 C 
HETATM   22  C   UNK N   1      30.209  18.731   9.154  0.00  0.00     0.005 C 
ENDBRANCH  20  21
ENDBRANCH  19  20
ENDBRANCH  18  19
ENDBRANCH  17  18
ENDBRANCH  16  17
ENDBRANCH  15  16
ENDBRANCH  13  15
ENDBRANCH  10  13
ENDBRANCH   6   7
ENDBRANCH   5   6
ENDBRANCH   4   5
ENDBRANCH   3   4
ENDBRANCH   2   3
ENDBRANCH   1   2
BRANCH   1  23
HETATM   23  C   UNK N   1      22.971  12.489   1.144  0.00  0.00     0.000 C 
BRANCH  23  24
HETATM   24  C   UNK N   1      21.483  12.402   0.837  0.00  0.00     0.002 C 
BRANCH  24  25
HETATM   25  C   UNK N   1      20.857  13.784   0.739  0.00  0.00     0.020 C 
BRANCH  25  26
HETATM   26  C   UNK N   1      20.172  14.143   2.050  0.00  0.00     0.128 C 
BRANCH  26  27
HETATM   27  N   UNK N   1      20.707  15.379   2.600  0.00  0.00    -0.366 N 
HETATM   28  C   UNK N   1      21.823  15.325   3.379  0.00  0.00     0.092 A 
HETATM   29  C   UNK N   1      22.377  16.497   3.895  0.00  0.00     0.046 A 
HETATM   30  C   UNK N   1      21.783  17.734   3.603  0.00  0.00     0.030 A 
HETATM   31  C   UNK N   1      20.638  17.764   2.806  0.00  0.00     0.046 A 
HETATM   32  C   UNK N   1      20.114  16.571   2.307  0.00  0.00     0.092 A 
BRANCH  30  33
HETATM   33  N   UNK N   1      22.273  18.843   4.038  0.00  0.00    -0.390 N 
ATOM     34  HN  UNK N   1      21.625  19.581   4.315  1.00  0.00     0.159 HD
BRANCH  33  35
HETATM   35  C   UNK N   1      23.691  19.097   4.155  0.00  0.00     0.119 C 
BRANCH  35  36
HETATM   36  C   UNK N   1      24.103  20.228   3.221  0.00  0.00     0.020 C 
BRANCH  36  37
HETATM   37  C   UNK N   1      25.550  20.087   2.770  0.00  0.00     0.002 C 
BRANCH  37  38
HETATM   38  C   UNK N   1      26.325  19.230   3.756  0.00  0.00     0.000 C 
BRANCH  38  39
HETATM   39  C   UNK N   1      27.653  19.876   4.084  0.00  0.00     0.000 C 
BRANCH  39  40
HETATM   40  C   UNK N   1      27.948  19.659   5.554  0.00  0.00    -0.000 C 
BRANCH  40  41
HETATM   41  C   UNK N   1      26.842  20.258   6.397  0.00  0.00    -0.005 C 
HETATM   42  C   UNK N   1      26.954  21.767   6.368  0.00  0.00     0.005 C 
ENDBRANCH  40  41
ENDBRANCH  39  40
ENDBRANCH  38  39
ENDBRANCH  37  38
ENDBRANCH  36  37
ENDBRANCH  35  36
ENDBRANCH  33  35
ENDBRANCH  30  33
ENDBRANCH  26  27
ENDBRANCH  25  26
ENDBRANCH  24  25
ENDBRANCH  23  24
ENDBRANCH   1  23
TORSDOF 27
ENDMDL
MODEL 4
REMARK VINA RESULT:      -5.1      5.844      9.977
REMARK  27 active torsions:
REMARK  status: ('A' for Active; 'I' for Inactive)
REMARK    1  A    between atoms: C_5  and  C_3 
REMARK    2  A    between atoms: C_6  and  C_4 
REMARK    3  A    between atoms: C_7  and  C_5 
REMARK    4  A    between atoms: C_8  and  C_6 
REMARK    5  A    between atoms: C_9  and  C_7 
REMARK    6  A    between atoms: C_10  and  C_8 
REMARK    7  A    between atoms: C_15  and  C_9 
REMARK    8  A    between atoms: C_16  and  C_10 
REMARK    9  A    between atoms: C_12  and  C_11 
REMARK   10  A    between atoms: C_13  and  C_11 
REMARK   11  A    between atoms: C_14  and  C_12 
REMARK   12  A    between atoms: C_17  and  C_13 
REMARK   13  A    between atoms: C_18  and  C_14 
REMARK   14  A    between atoms: C_19  and  C_15 
REMARK   15  A    between atoms: C_20  and  C_16 
REMARK   16  A    between atoms: C_21  and  C_17 
REMARK   17  A    between atoms: C_22  and  C_18 
REMARK   18  A    between atoms: C_27  and  C_19 
REMARK   19  A    between atoms: C_28  and  C_20 
REMARK   20  A    between atoms: C_29  and  C_21 
REMARK   21  A    between atoms: C_30  and  C_22 
REMARK   22  A    between atoms: N_37  and  C_27 
REMARK   23  A    between atoms: N_39  and  C_28 
REMARK   24  A    between atoms: N_41  and  C_29 
REMARK   25  A    between atoms: N_42  and  C_30 
REMARK   26  A    between atoms: N_37  and  C_35 
REMARK   27  A    between atoms: N_39  and  C_36 
ROOT
HETATM    1  C   UNK N   1      31.364  17.461   5.645  0.00  0.00     0.000 C 
ENDROOT
BRANCH   1   2
HETATM    2  C   UNK N   1      31.976  17.397   4.257  0.00  0.00     0.000 C 
BRANCH   2   3
HETATM    3  C   UNK N   1      33.135  16.415   4.222  0.00  0.00     0.000 C 
BRANCH   3   4
HETATM    4  C   UNK N   1      32.607  15.010   3.982  0.00  0.00     0.002 C 
BRANCH   4   5
HETATM    5  C   UNK N   1      31.427  15.037   3.025  0.00  0.00     0.020 C 
BRANCH   5   6
HETATM    6  C   UNK N   1      30.302  14.175   3.579  0.00  0.00     0.128 C 
BRANCH   6   7
HETATM    7  N   UNK N   1      29.212  14.988   4.095  0.00  0.00    -0.366 N 
HETATM    8  C   UNK N   1      28.550  15.839   3.257  0.00  0.00     0.092 A 
HETATM    9  C   UNK N   1      27.460  16.585   3.716  0.00  0.00     0.046 A 
HETATM   10  C   UNK N   1      27.038  16.453   5.045  0.00  0.00     0.030 A 
HETATM   11  C   UNK N   1      27.743  15.571   5.888  0.00  0.00     0.046 A 
HETATM   12  C   UNK N   1      28.822  14.847   5.393  0.00  0.00     0.092 A 
BRANCH  10  13
HETATM   13  N   UNK N   1      26.020  17.113   5.467  0.00  0.00    -0.390 N 
ATOM     14  HN  UNK N   1      26.119  17.702   6.294  1.00  0.00     0.159 HD
BRANCH  13  15
HETATM   15  C   UNK N   1      24.737  17.041   4.800  0.00  0.00     0.119 C 
BRANCH  15  16
HETATM   16  C   UNK N   1      24.061  18.393   4.711  0.00  0.00     0.020 C 
BRANCH  16  17
HETATM   17  C   UNK N   1      24.814  19.183   3.656  0.00  0.00     0.002 C 
BRANCH  17  18
HETATM   18  C   UNK N   1      25.637  20.306   4.253  0.00  0.00     0.000 C 
BRANCH  18  19
HETATM   19  C   UNK N   1      27.024  20.216   3.648  0.00  0.00     0.000 C 
BRANCH  19  20
HETATM   20  C   UNK N   1      28.093  20.098   4.714  0.00  0.00    -0.000 C 
BRANCH  20  21
HETATM   21  C   UNK N   1      27.491  20.535   6.035  0.00  0.00    -0.005 C 
HETATM   22  C   UNK N   1      27.906  19.589   7.140  0.00  0.00     0.005 C 
ENDBRANCH  20  21
ENDBRANCH  19  20
ENDBRANCH  18  19
ENDBRANCH  17  18
ENDBRANCH  16  17
ENDBRANCH  15  16
ENDBRANCH  13  15
ENDBRANCH  10  13
ENDBRANCH   6   7
ENDBRANCH   5   6
ENDBRANCH   4   5
ENDBRANCH   3   4
ENDBRANCH   2   3
ENDBRANCH   1   2
BRANCH   1  23
HETATM   23  C   UNK N   1      32.438  17.348   6.714  0.00  0.00     0.000 C 
BRANCH  23  24
HETATM   24  C   UNK N   1      32.071  16.254   7.708  0.00  0.00     0.002 C 
BRANCH  24  25
HETATM   25  C   UNK N   1      33.205  15.253   7.869  0.00  0.00     0.020 C 
BRANCH  25  26
HETATM   26  C   UNK N   1      34.508  15.980   8.171  0.00  0.00     0.128 C 
BRANCH  26  27
HETATM   27  N   UNK N   1      35.120  15.474   9.390  0.00  0.00    -0.366 N 
HETATM   28  C   UNK N   1      35.191  16.288  10.479  0.00  0.00     0.092 A 
HETATM   29  C   UNK N   1      35.745  15.820  11.671  0.00  0.00     0.046 A 
HETATM   30  C   UNK N   1      36.224  14.503  11.744  0.00  0.00     0.030 A 
HETATM   31  C   UNK N   1      36.144  13.689  10.615  0.00  0.00     0.046 A 
HETATM   32  C   UNK N   1      35.582  14.192   9.441  0.00  0.00     0.092 A 
BRANCH  30  33
HETATM   33  N   UNK N   1      36.722  14.021  12.830  0.00  0.00    -0.390 N 
ATOM     34  HN  UNK N   1      37.716  13.793  12.846  1.00  0.00     0.159 HD
BRANCH  33  35
HETATM   35  C   UNK N   1      35.947  13.786  14.028  0.00  0.00     0.119 C 
BRANCH  35  36
HETATM   36  C   UNK N   1      36.857  13.345  15.167  0.00  0.00     0.020 C 
BRANCH  36  37
HETATM   37  C   UNK N   1      36.771  11.845  15.408  0.00  0.00     0.002 C 
BRANCH  37  38
HETATM   38  C   UNK N   1      35.349  11.454  15.774  0.00  0.00     0.000 C 
BRANCH  38  39
HETATM   39  C   UNK N   1      34.899  10.270  14.947  0.00  0.00     0.000 C 
BRANCH  39  40
HETATM   40  C   UNK N   1      33.765  10.711  14.045  0.00  0.00    -0.000 C 
BRANCH  40  41
HETATM   41  C   UNK N   1      34.254  10.827  12.617  0.00  0.00    -0.005 C 
HETATM   42  C   UNK N   1      33.886   9.570  11.860  0.00  0.00     0.005 C 
ENDBRANCH  40  41
ENDBRANCH  39  40
ENDBRANCH  38  39
ENDBRANCH  37  38
ENDBRANCH  36  37
ENDBRANCH  35  36
ENDBRANCH  33  35
ENDBRANCH  30  33
ENDBRANCH  26  27
ENDBRANCH  25  26
ENDBRANCH  24  25
ENDBRANCH  23  24
ENDBRANCH   1  23
TORSDOF 27
ENDMDL
MODEL 5
REMARK VINA RESULT:      -5.1     13.472     17.101
REMARK  27 active torsions:
REMARK  status: ('A' for Active; 'I' for Inactive)
REMARK    1  A    between atoms: C_5  and  C_3 
REMARK    2  A    between atoms: C_6  and  C_4 
REMARK    3  A    between atoms: C_7  and  C_5 
REMARK    4  A    between atoms: C_8  and  C_6 
REMARK    5  A    between atoms: C_9  and  C_7 
REMARK    6  A    between atoms: C_10  and  C_8 
REMARK    7  A    between atoms: C_15  and  C_9 
REMARK    8  A    between atoms: C_16  and  C_10 
REMARK    9  A    between atoms: C_12  and  C_11 
REMARK   10  A    between atoms: C_13  and  C_11 
REMARK   11  A    between atoms: C_14  and  C_12 
REMARK   12  A    between atoms: C_17  and  C_13 
REMARK   13  A    between atoms: C_18  and  C_14 
REMARK   14  A    between atoms: C_19  and  C_15 
REMARK   15  A    between atoms: C_20  and  C_16 
REMARK   16  A    between atoms: C_21  and  C_17 
REMARK   17  A    between atoms: C_22  and  C_18 
REMARK   18  A    between atoms: C_27  and  C_19 
REMARK   19  A    between atoms: C_28  and  C_20 
REMARK   20  A    between atoms: C_29  and  C_21 
REMARK   21  A    between atoms: C_30  and  C_22 
REMARK   22  A    between atoms: N_37  and  C_27 
REMARK   23  A    between atoms: N_39  and  C_28 
REMARK   24  A    between atoms: N_41  and  C_29 
REMARK   25  A    between atoms: N_42  and  C_30 
REMARK   26  A    between atoms: N_37  and  C_35 
REMARK   27  A    between atoms: N_39  and  C_36 
ROOT
HETATM    1  C   UNK N   1      26.040  28.708  -4.083  0.00  0.00     0.000 C 
ENDROOT
BRANCH   1   2
HETATM    2  C   UNK N   1      26.151  27.702  -2.952  0.00  0.00     0.000 C 
BRANCH   2   3
HETATM    3  C   UNK N   1      26.341  26.296  -3.497  0.00  0.00     0.000 C 
BRANCH   3   4
HETATM    4  C   UNK N   1      27.767  26.130  -3.996  0.00  0.00     0.002 C 
BRANCH   4   5
HETATM    5  C   UNK N   1      28.069  24.669  -4.283  0.00  0.00     0.020 C 
BRANCH   5   6
HETATM    6  C   UNK N   1      26.787  23.953  -4.684  0.00  0.00     0.128 C 
BRANCH   6   7
HETATM    7  N   UNK N   1      26.882  23.400  -6.026  0.00  0.00    -0.366 N 
HETATM    8  C   UNK N   1      25.760  22.921  -6.638  0.00  0.00     0.092 A 
HETATM    9  C   UNK N   1      25.816  22.441  -7.951  0.00  0.00     0.046 A 
HETATM   10  C   UNK N   1      27.032  22.459  -8.646  0.00  0.00     0.030 A 
HETATM   11  C   UNK N   1      28.174  22.955  -7.987  0.00  0.00     0.046 A 
HETATM   12  C   UNK N   1      28.076  23.424  -6.681  0.00  0.00     0.092 A 
BRANCH  10  13
HETATM   13  N   UNK N   1      27.086  22.047  -9.861  0.00  0.00    -0.390 N 
ATOM     14  HN  UNK N   1      27.606  21.196 -10.074  1.00  0.00     0.159 HD
BRANCH  13  15
HETATM   15  C   UNK N   1      26.428  22.760 -10.937  0.00  0.00     0.119 C 
BRANCH  15  16
HETATM   16  C   UNK N   1      27.366  23.704 -11.657  0.00  0.00     0.020 C 
BRANCH  16  17
HETATM   17  C   UNK N   1      26.983  25.106 -11.225  0.00  0.00     0.002 C 
BRANCH  17  18
HETATM   18  C   UNK N   1      25.551  25.189 -10.735  0.00  0.00     0.000 C 
BRANCH  18  19
HETATM   19  C   UNK N   1      25.561  26.000  -9.455  0.00  0.00     0.000 C 
BRANCH  19  20
HETATM   20  C   UNK N   1      26.966  26.198  -8.926  0.00  0.00    -0.000 C 
BRANCH  20  21
HETATM   21  C   UNK N   1      26.867  26.850  -7.561  0.00  0.00    -0.005 C 
HETATM   22  C   UNK N   1      25.498  26.612  -6.962  0.00  0.00     0.005 C 
ENDBRANCH  20  21
ENDBRANCH  19  20
ENDBRANCH  18  19
ENDBRANCH  17  18
ENDBRANCH  16  17
ENDBRANCH  15  16
ENDBRANCH  13  15
ENDBRANCH  10  13
ENDBRANCH   6   7
ENDBRANCH   5   6
ENDBRANCH   4   5
ENDBRANCH   3   4
ENDBRANCH   2   3
ENDBRANCH   1   2
BRANCH   1  23
HETATM   23  C   UNK N   1      26.454  30.093  -3.617  0.00  0.00     0.000 C 
BRANCH  23  24
HETATM   24  C   UNK N   1      27.369  30.739  -4.647  0.00  0.00     0.002 C 
BRANCH  24  25
HETATM   25  C   UNK N   1      27.894  29.713  -5.639  0.00  0.00     0.020 C 
BRANCH  25  26
HETATM   26  C   UNK N   1      29.390  29.900  -5.845  0.00  0.00     0.128 C 
BRANCH  26  27
HETATM   27  N   UNK N   1      30.124  28.698  -5.478  0.00  0.00    -0.366 N 
HETATM   28  C   UNK N   1      30.592  28.574  -4.206  0.00  0.00     0.092 A 
HETATM   29  C   UNK N   1      31.271  27.419  -3.816  0.00  0.00     0.046 A 
HETATM   30  C   UNK N   1      31.467  26.383  -4.741  0.00  0.00     0.030 A 
HETATM   31  C   UNK N   1      30.982  26.534  -6.040  0.00  0.00     0.046 A 
HETATM   32  C   UNK N   1      30.305  27.702  -6.392  0.00  0.00     0.092 A 
BRANCH  30  33
HETATM   33  N   UNK N   1      32.068  25.290  -4.420  0.00  0.00    -0.390 N 
ATOM     34  HN  UNK N   1      32.944  25.355  -3.901  1.00  0.00     0.159 HD
BRANCH  33  35
HETATM   35  C   UNK N   1      31.568  23.975  -4.756  0.00  0.00     0.119 C 
BRANCH  35  36
HETATM   36  C   UNK N   1      31.250  23.192  -3.488  0.00  0.00     0.020 C 
BRANCH  36  37
HETATM   37  C   UNK N   1      31.989  21.863  -3.448  0.00  0.00     0.002 C 
BRANCH  37  38
HETATM   38  C   UNK N   1      31.071  20.739  -3.897  0.00  0.00     0.000 C 
BRANCH  38  39
HETATM   39  C   UNK N   1      31.486  20.233  -5.261  0.00  0.00     0.000 C 
BRANCH  39  40
HETATM   40  C   UNK N   1      30.357  20.490  -6.237  0.00  0.00    -0.000 C 
BRANCH  40  41
HETATM   41  C   UNK N   1      30.266  19.355  -7.234  0.00  0.00    -0.005 C 
HETATM   42  C   UNK N   1      28.890  19.353  -7.865  0.00  0.00     0.005 C 
ENDBRANCH  40  41
ENDBRANCH  39  40
ENDBRANCH  38  39
ENDBRANCH  37  38
ENDBRANCH  36  37
ENDBRANCH  35  36
ENDBRANCH  33  35
ENDBRANCH  30  33
ENDBRANCH  26  27
ENDBRANCH  25  26
ENDBRANCH  24  25
ENDBRANCH  23  24
ENDBRANCH   1  23
TORSDOF 27
ENDMDL
MODEL 6
REMARK VINA RESULT:      -5.0      2.311      5.261
REMARK  27 active torsions:
REMARK  status: ('A' for Active; 'I' for Inactive)
REMARK    1  A    between atoms: C_5  and  C_3 
REMARK    2  A    between atoms: C_6  and  C_4 
REMARK    3  A    between atoms: C_7  and  C_5 
REMARK    4  A    between atoms: C_8  and  C_6 
REMARK    5  A    between atoms: C_9  and  C_7 
REMARK    6  A    between atoms: C_10  and  C_8 
REMARK    7  A    between atoms: C_15  and  C_9 
REMARK    8  A    between atoms: C_16  and  C_10 
REMARK    9  A    between atoms: C_12  and  C_11 
REMARK   10  A    between atoms: C_13  and  C_11 
REMARK   11  A    between atoms: C_14  and  C_12 
REMARK   12  A    between atoms: C_17  and  C_13 
REMARK   13  A    between atoms: C_18  and  C_14 
REMARK   14  A    between atoms: C_19  and  C_15 
REMARK   15  A    between atoms: C_20  and  C_16 
REMARK   16  A    between atoms: C_21  and  C_17 
REMARK   17  A    between atoms: C_22  and  C_18 
REMARK   18  A    between atoms: C_27  and  C_19 
REMARK   19  A    between atoms: C_28  and  C_20 
REMARK   20  A    between atoms: C_29  and  C_21 
REMARK   21  A    between atoms: C_30  and  C_22 
REMARK   22  A    between atoms: N_37  and  C_27 
REMARK   23  A    between atoms: N_39  and  C_28 
REMARK   24  A    between atoms: N_41  and  C_29 
REMARK   25  A    between atoms: N_42  and  C_30 
REMARK   26  A    between atoms: N_37  and  C_35 
REMARK   27  A    between atoms: N_39  and  C_36 
ROOT
HETATM    1  C   UNK N   1      24.019  11.693   9.619  0.00  0.00     0.000 C 
ENDROOT
BRANCH   1   2
HETATM    2  C   UNK N   1      23.729  11.047   8.276  0.00  0.00     0.000 C 
BRANCH   2   3
HETATM    3  C   UNK N   1      23.978  12.025   7.141  0.00  0.00     0.000 C 
BRANCH   3   4
HETATM    4  C   UNK N   1      24.364  13.381   7.712  0.00  0.00     0.002 C 
BRANCH   4   5
HETATM    5  C   UNK N   1      25.537  13.971   6.947  0.00  0.00     0.020 C 
BRANCH   5   6
HETATM    6  C   UNK N   1      25.210  14.007   5.461  0.00  0.00     0.128 C 
BRANCH   6   7
HETATM    7  N   UNK N   1      25.331  15.352   4.920  0.00  0.00    -0.366 N 
HETATM    8  C   UNK N   1      26.267  15.611   3.961  0.00  0.00     0.092 A 
HETATM    9  C   UNK N   1      26.361  16.882   3.383  0.00  0.00     0.046 A 
HETATM   10  C   UNK N   1      25.481  17.894   3.786  0.00  0.00     0.030 A 
HETATM   11  C   UNK N   1      24.529  17.599   4.782  0.00  0.00     0.046 A 
HETATM   12  C   UNK N   1      24.468  16.323   5.331  0.00  0.00     0.092 A 
BRANCH  10  13
HETATM   13  N   UNK N   1      25.541  19.055   3.240  0.00  0.00    -0.390 N 
ATOM     14  HN  UNK N   1      25.353  19.144   2.242  1.00  0.00     0.159 HD
BRANCH  13  15
HETATM   15  C   UNK N   1      25.869  20.240   4.005  0.00  0.00     0.119 C 
BRANCH  15  16
HETATM   16  C   UNK N   1      27.264  20.177   4.590  0.00  0.00     0.020 C 
BRANCH  16  17
HETATM   17  C   UNK N   1      27.101  20.204   6.098  0.00  0.00     0.002 C 
BRANCH  17  18
HETATM   18  C   UNK N   1      28.131  19.347   6.806  0.00  0.00     0.000 C 
BRANCH  18  19
HETATM   19  C   UNK N   1      27.671  17.907   6.694  0.00  0.00     0.000 C 
BRANCH  19  20
HETATM   20  C   UNK N   1      28.833  16.964   6.464  0.00  0.00    -0.000 C 
BRANCH  20  21
HETATM   21  C   UNK N   1      30.003  17.446   7.299  0.00  0.00    -0.005 C 
HETATM   22  C   UNK N   1      31.305  16.924   6.732  0.00  0.00     0.005 C 
ENDBRANCH  20  21
ENDBRANCH  19  20
ENDBRANCH  18  19
ENDBRANCH  17  18
ENDBRANCH  16  17
ENDBRANCH  15  16
ENDBRANCH  13  15
ENDBRANCH  10  13
ENDBRANCH   6   7
ENDBRANCH   5   6
ENDBRANCH   4   5
ENDBRANCH   3   4
ENDBRANCH   2   3
ENDBRANCH   1   2
BRANCH   1  23
HETATM   23  C   UNK N   1      22.856  11.496  10.576  0.00  0.00     0.000 C 
BRANCH  23  24
HETATM   24  C   UNK N   1      22.073  12.793  10.720  0.00  0.00     0.002 C 
BRANCH  24  25
HETATM   25  C   UNK N   1      21.079  12.967   9.581  0.00  0.00     0.020 C 
BRANCH  25  26
HETATM   26  C   UNK N   1      20.417  14.335   9.668  0.00  0.00     0.128 C 
BRANCH  26  27
HETATM   27  N   UNK N   1      20.519  15.047   8.403  0.00  0.00    -0.366 N 
HETATM   28  C   UNK N   1      20.490  16.408   8.409  0.00  0.00     0.092 A 
HETATM   29  C   UNK N   1      20.617  17.119   7.215  0.00  0.00     0.046 A 
HETATM   30  C   UNK N   1      20.780  16.425   6.007  0.00  0.00     0.030 A 
HETATM   31  C   UNK N   1      20.803  15.031   6.025  0.00  0.00     0.046 A 
HETATM   32  C   UNK N   1      20.675  14.355   7.239  0.00  0.00     0.092 A 
BRANCH  30  33
HETATM   33  N   UNK N   1      20.924  17.040   4.884  0.00  0.00    -0.390 N 
ATOM     34  HN  UNK N   1      21.631  17.772   4.822  1.00  0.00     0.159 HD
BRANCH  33  35
HETATM   35  C   UNK N   1      20.136  16.747   3.708  0.00  0.00     0.119 C 
BRANCH  35  36
HETATM   36  C   UNK N   1      21.041  16.313   2.562  0.00  0.00     0.020 C 
BRANCH  36  37
HETATM   37  C   UNK N   1      20.436  15.163   1.770  0.00  0.00     0.002 C 
BRANCH  37  38
HETATM   38  C   UNK N   1      20.755  13.839   2.443  0.00  0.00     0.000 C 
BRANCH  38  39
HETATM   39  C   UNK N   1      21.094  12.790   1.406  0.00  0.00     0.000 C 
BRANCH  39  40
HETATM   40  C   UNK N   1      22.096  13.377   0.433  0.00  0.00    -0.000 C 
BRANCH  40  41
HETATM   41  C   UNK N   1      23.505  13.101   0.911  0.00  0.00    -0.005 C 
HETATM   42  C   UNK N   1      24.278  14.402   0.963  0.00  0.00     0.005 C 
ENDBRANCH  40  41
ENDBRANCH  39  40
ENDBRANCH  38  39
ENDBRANCH  37  38
ENDBRANCH  36  37
ENDBRANCH  35  36
ENDBRANCH  33  35
ENDBRANCH  30  33
ENDBRANCH  26  27
ENDBRANCH  25  26
ENDBRANCH  24  25
ENDBRANCH  23  24
ENDBRANCH   1  23
TORSDOF 27
ENDMDL
MODEL 7
REMARK VINA RESULT:      -5.0      2.474      4.080
REMARK  27 active torsions:
REMARK  status: ('A' for Active; 'I' for Inactive)
REMARK    1  A    between atoms: C_5  and  C_3 
REMARK    2  A    between atoms: C_6  and  C_4 
REMARK    3  A    between atoms: C_7  and  C_5 
REMARK    4  A    between atoms: C_8  and  C_6 
REMARK    5  A    between atoms: C_9  and  C_7 
REMARK    6  A    between atoms: C_10  and  C_8 
REMARK    7  A    between atoms: C_15  and  C_9 
REMARK    8  A    between atoms: C_16  and  C_10 
REMARK    9  A    between atoms: C_12  and  C_11 
REMARK   10  A    between atoms: C_13  and  C_11 
REMARK   11  A    between atoms: C_14  and  C_12 
REMARK   12  A    between atoms: C_17  and  C_13 
REMARK   13  A    between atoms: C_18  and  C_14 
REMARK   14  A    between atoms: C_19  and  C_15 
REMARK   15  A    between atoms: C_20  and  C_16 
REMARK   16  A    between atoms: C_21  and  C_17 
REMARK   17  A    between atoms: C_22  and  C_18 
REMARK   18  A    between atoms: C_27  and  C_19 
REMARK   19  A    between atoms: C_28  and  C_20 
REMARK   20  A    between atoms: C_29  and  C_21 
REMARK   21  A    between atoms: C_30  and  C_22 
REMARK   22  A    between atoms: N_37  and  C_27 
REMARK   23  A    between atoms: N_39  and  C_28 
REMARK   24  A    between atoms: N_41  and  C_29 
REMARK   25  A    between atoms: N_42  and  C_30 
REMARK   26  A    between atoms: N_37  and  C_35 
REMARK   27  A    between atoms: N_39  and  C_36 
ROOT
HETATM    1  C   UNK N   1      20.768  14.757   8.997  0.00  0.00     0.000 C 
ENDROOT
BRANCH   1   2
HETATM    2  C   UNK N   1      20.979  14.038   7.677  0.00  0.00     0.000 C 
BRANCH   2   3
HETATM    3  C   UNK N   1      21.621  14.962   6.655  0.00  0.00     0.000 C 
BRANCH   3   4
HETATM    4  C   UNK N   1      21.531  16.400   7.141  0.00  0.00     0.002 C 
BRANCH   4   5
HETATM    5  C   UNK N   1      21.142  17.328   6.002  0.00  0.00     0.020 C 
BRANCH   5   6
HETATM    6  C   UNK N   1      21.832  16.880   4.722  0.00  0.00     0.128 C 
BRANCH   6   7
HETATM    7  N   UNK N   1      22.950  17.748   4.387  0.00  0.00    -0.366 N 
HETATM    8  C   UNK N   1      22.718  18.928   3.740  0.00  0.00     0.092 A 
HETATM    9  C   UNK N   1      23.771  19.807   3.463  0.00  0.00     0.046 A 
HETATM   10  C   UNK N   1      25.073  19.477   3.859  0.00  0.00     0.030 A 
HETATM   11  C   UNK N   1      25.283  18.251   4.520  0.00  0.00     0.046 A 
HETATM   12  C   UNK N   1      24.210  17.405   4.778  0.00  0.00     0.092 A 
BRANCH  10  13
HETATM   13  N   UNK N   1      26.041  20.291   3.634  0.00  0.00    -0.390 N 
ATOM     14  HN  UNK N   1      26.037  20.840   2.774  1.00  0.00     0.159 HD
BRANCH  13  15
HETATM   15  C   UNK N   1      27.136  20.450   4.568  0.00  0.00     0.119 C 
BRANCH  15  16
HETATM   16  C   UNK N   1      26.788  21.389   5.704  0.00  0.00     0.020 C 
BRANCH  16  17
HETATM   17  C   UNK N   1      27.063  20.633   6.989  0.00  0.00     0.002 C 
BRANCH  17  18
HETATM   18  C   UNK N   1      28.006  19.465   6.782  0.00  0.00     0.000 C 
BRANCH  18  19
HETATM   19  C   UNK N   1      28.139  18.753   8.114  0.00  0.00     0.000 C 
BRANCH  19  20
HETATM   20  C   UNK N   1      28.456  17.283   7.935  0.00  0.00    -0.000 C 
BRANCH  20  21
HETATM   21  C   UNK N   1      28.541  16.998   6.448  0.00  0.00    -0.005 C 
HETATM   22  C   UNK N   1      27.621  15.855   6.079  0.00  0.00     0.005 C 
ENDBRANCH  20  21
ENDBRANCH  19  20
ENDBRANCH  18  19
ENDBRANCH  17  18
ENDBRANCH  16  17
ENDBRANCH  15  16
ENDBRANCH  13  15
ENDBRANCH  10  13
ENDBRANCH   6   7
ENDBRANCH   5   6
ENDBRANCH   4   5
ENDBRANCH   3   4
ENDBRANCH   2   3
ENDBRANCH   1   2
BRANCH   1  23
HETATM   23  C   UNK N   1      20.398  13.774  10.095  0.00  0.00     0.000 C 
BRANCH  23  24
HETATM   24  C   UNK N   1      21.273  12.532  10.000  0.00  0.00     0.002 C 
BRANCH  24  25
HETATM   25  C   UNK N   1      22.428  12.594  10.987  0.00  0.00     0.020 C 
BRANCH  25  26
HETATM   26  C   UNK N   1      23.584  11.735  10.496  0.00  0.00     0.128 C 
BRANCH  26  27
HETATM   27  N   UNK N   1      24.001  12.131   9.159  0.00  0.00    -0.366 N 
HETATM   28  C   UNK N   1      23.655  11.346   8.101  0.00  0.00     0.092 A 
HETATM   29  C   UNK N   1      24.013  11.717   6.804  0.00  0.00     0.046 A 
HETATM   30  C   UNK N   1      24.728  12.906   6.594  0.00  0.00     0.030 A 
HETATM   31  C   UNK N   1      25.074  13.691   7.693  0.00  0.00     0.046 A 
HETATM   32  C   UNK N   1      24.696  13.289   8.974  0.00  0.00     0.092 A 
BRANCH  30  33
HETATM   33  N   UNK N   1      25.060  13.299   5.413  0.00  0.00    -0.390 N 
ATOM     34  HN  UNK N   1      25.957  13.770   5.295  1.00  0.00     0.159 HD
BRANCH  33  35
HETATM   35  C   UNK N   1      24.229  13.107   4.245  0.00  0.00     0.119 C 
BRANCH  35  36
HETATM   36  C   UNK N   1      24.478  14.218   3.233  0.00  0.00     0.020 C 
BRANCH  36  37
HETATM   37  C   UNK N   1      23.419  14.230   2.140  0.00  0.00     0.002 C 
BRANCH  37  38
HETATM   38  C   UNK N   1      24.078  14.221   0.771  0.00  0.00     0.000 C 
BRANCH  38  39
HETATM   39  C   UNK N   1      23.526  13.092  -0.071  0.00  0.00     0.000 C 
BRANCH  39  40
HETATM   40  C   UNK N   1      22.471  12.359   0.732  0.00  0.00    -0.000 C 
BRANCH  40  41
HETATM   41  C   UNK N   1      22.345  10.932   0.241  0.00  0.00    -0.005 C 
HETATM   42  C   UNK N   1      23.596  10.556  -0.525  0.00  0.00     0.005 C 
ENDBRANCH  40  41
ENDBRANCH  39  40
ENDBRANCH  38  39
ENDBRANCH  37  38
ENDBRANCH  36  37
ENDBRANCH  35  36
ENDBRANCH  33  35
ENDBRANCH  30  33
ENDBRANCH  26  27
ENDBRANCH  25  26
ENDBRANCH  24  25
ENDBRANCH  23  24
ENDBRANCH   1  23
TORSDOF 27
ENDMDL
MODEL 8
REMARK VINA RESULT:      -5.0      4.431      8.752
REMARK  27 active torsions:
REMARK  status: ('A' for Active; 'I' for Inactive)
REMARK    1  A    between atoms: C_5  and  C_3 
REMARK    2  A    between atoms: C_6  and  C_4 
REMARK    3  A    between atoms: C_7  and  C_5 
REMARK    4  A    between atoms: C_8  and  C_6 
REMARK    5  A    between atoms: C_9  and  C_7 
REMARK    6  A    between atoms: C_10  and  C_8 
REMARK    7  A    between atoms: C_15  and  C_9 
REMARK    8  A    between atoms: C_16  and  C_10 
REMARK    9  A    between atoms: C_12  and  C_11 
REMARK   10  A    between atoms: C_13  and  C_11 
REMARK   11  A    between atoms: C_14  and  C_12 
REMARK   12  A    between atoms: C_17  and  C_13 
REMARK   13  A    between atoms: C_18  and  C_14 
REMARK   14  A    between atoms: C_19  and  C_15 
REMARK   15  A    between atoms: C_20  and  C_16 
REMARK   16  A    between atoms: C_21  and  C_17 
REMARK   17  A    between atoms: C_22  and  C_18 
REMARK   18  A    between atoms: C_27  and  C_19 
REMARK   19  A    between atoms: C_28  and  C_20 
REMARK   20  A    between atoms: C_29  and  C_21 
REMARK   21  A    between atoms: C_30  and  C_22 
REMARK   22  A    between atoms: N_37  and  C_27 
REMARK   23  A    between atoms: N_39  and  C_28 
REMARK   24  A    between atoms: N_41  and  C_29 
REMARK   25  A    between atoms: N_42  and  C_30 
REMARK   26  A    between atoms: N_37  and  C_35 
REMARK   27  A    between atoms: N_39  and  C_36 
ROOT
HETATM    1  C   UNK N   1      28.973  17.628   4.800  0.00  0.00     0.000 C 
ENDROOT
BRANCH   1   2
HETATM    2  C   UNK N   1      27.962  18.749   4.960  0.00  0.00     0.000 C 
BRANCH   2   3
HETATM    3  C   UNK N   1      26.959  18.739   3.819  0.00  0.00     0.000 C 
BRANCH   3   4
HETATM    4  C   UNK N   1      26.468  20.154   3.558  0.00  0.00     0.002 C 
BRANCH   4   5
HETATM    5  C   UNK N   1      25.337  20.152   2.544  0.00  0.00     0.020 C 
BRANCH   5   6
HETATM    6  C   UNK N   1      24.100  20.791   3.158  0.00  0.00     0.128 C 
BRANCH   6   7
HETATM    7  N   UNK N   1      23.027  19.823   3.325  0.00  0.00    -0.366 N 
HETATM    8  C   UNK N   1      23.213  18.743   4.139  0.00  0.00     0.092 A 
HETATM    9  C   UNK N   1      22.175  17.833   4.361  0.00  0.00     0.046 A 
HETATM   10  C   UNK N   1      20.931  18.035   3.751  0.00  0.00     0.030 A 
HETATM   11  C   UNK N   1      20.770  19.156   2.912  0.00  0.00     0.046 A 
HETATM   12  C   UNK N   1      21.827  20.038   2.716  0.00  0.00     0.092 A 
BRANCH  10  13
HETATM   13  N   UNK N   1      19.963  17.220   3.973  0.00  0.00    -0.390 N 
ATOM     14  HN  UNK N   1      19.034  17.445   3.618  1.00  0.00     0.159 HD
BRANCH  13  15
HETATM   15  C   UNK N   1      20.158  15.991   4.714  0.00  0.00     0.119 C 
BRANCH  15  16
HETATM   16  C   UNK N   1      19.393  15.983   6.020  0.00  0.00     0.020 C 
BRANCH  16  17
HETATM   17  C   UNK N   1      20.409  16.245   7.116  0.00  0.00     0.002 C 
BRANCH  17  18
HETATM   18  C   UNK N   1      19.875  15.903   8.492  0.00  0.00     0.000 C 
BRANCH  18  19
HETATM   19  C   UNK N   1      20.963  15.137   9.218  0.00  0.00     0.000 C 
BRANCH  19  20
HETATM   20  C   UNK N   1      20.445  13.832   9.787  0.00  0.00    -0.000 C 
BRANCH  20  21
HETATM   21  C   UNK N   1      21.450  12.745   9.459  0.00  0.00    -0.005 C 
HETATM   22  C   UNK N   1      22.785  13.356   9.094  0.00  0.00     0.005 C 
ENDBRANCH  20  21
ENDBRANCH  19  20
ENDBRANCH  18  19
ENDBRANCH  17  18
ENDBRANCH  16  17
ENDBRANCH  15  16
ENDBRANCH  13  15
ENDBRANCH  10  13
ENDBRANCH   6   7
ENDBRANCH   5   6
ENDBRANCH   4   5
ENDBRANCH   3   4
ENDBRANCH   2   3
ENDBRANCH   1   2
BRANCH   1  23
HETATM   23  C   UNK N   1      29.296  16.995   6.143  0.00  0.00     0.000 C 
BRANCH  23  24
HETATM   24  C   UNK N   1      28.673  17.811   7.267  0.00  0.00     0.002 C 
BRANCH  24  25
HETATM   25  C   UNK N   1      29.369  17.544   8.593  0.00  0.00     0.020 C 
BRANCH  25  26
HETATM   26  C   UNK N   1      30.624  18.398   8.708  0.00  0.00     0.128 C 
BRANCH  26  27
HETATM   27  N   UNK N   1      31.823  17.574   8.668  0.00  0.00    -0.366 N 
HETATM   28  C   UNK N   1      31.725  16.251   8.974  0.00  0.00     0.092 A 
HETATM   29  C   UNK N   1      32.851  15.430   8.914  0.00  0.00     0.046 A 
HETATM   30  C   UNK N   1      34.087  15.973   8.530  0.00  0.00     0.030 A 
HETATM   31  C   UNK N   1      34.164  17.332   8.224  0.00  0.00     0.046 A 
HETATM   32  C   UNK N   1      33.015  18.120   8.294  0.00  0.00     0.092 A 
BRANCH  30  33
HETATM   33  N   UNK N   1      35.148  15.249   8.438  0.00  0.00    -0.390 N 
ATOM     34  HN  UNK N   1      35.598  15.165   7.526  1.00  0.00     0.159 HD
BRANCH  33  35
HETATM   35  C   UNK N   1      35.736  14.549   9.558  0.00  0.00     0.119 C 
BRANCH  35  36
HETATM   36  C   UNK N   1      36.368  15.542  10.526  0.00  0.00     0.020 C 
BRANCH  36  37
HETATM   37  C   UNK N   1      35.865  15.338  11.948  0.00  0.00     0.002 C 
BRANCH  37  38
HETATM   38  C   UNK N   1      35.173  13.992  12.072  0.00  0.00     0.000 C 
BRANCH  38  39
HETATM   39  C   UNK N   1      35.960  13.077  12.983  0.00  0.00     0.000 C 
BRANCH  39  40
HETATM   40  C   UNK N   1      35.556  13.356  14.417  0.00  0.00    -0.000 C 
BRANCH  40  41
HETATM   41  C   UNK N   1      36.788  13.481  15.287  0.00  0.00    -0.005 C 
HETATM   42  C   UNK N   1      37.115  14.946  15.481  0.00  0.00     0.005 C 
ENDBRANCH  40  41
ENDBRANCH  39  40
ENDBRANCH  38  39
ENDBRANCH  37  38
ENDBRANCH  36  37
ENDBRANCH  35  36
ENDBRANCH  33  35
ENDBRANCH  30  33
ENDBRANCH  26  27
ENDBRANCH  25  26
ENDBRANCH  24  25
ENDBRANCH  23  24
ENDBRANCH   1  23
TORSDOF 27
ENDMDL
MODEL 9
REMARK VINA RESULT:      -5.0      3.020      6.591
REMARK  27 active torsions:
REMARK  status: ('A' for Active; 'I' for Inactive)
REMARK    1  A    between atoms: C_5  and  C_3 
REMARK    2  A    between atoms: C_6  and  C_4 
REMARK    3  A    between atoms: C_7  and  C_5 
REMARK    4  A    between atoms: C_8  and  C_6 
REMARK    5  A    between atoms: C_9  and  C_7 
REMARK    6  A    between atoms: C_10  and  C_8 
REMARK    7  A    between atoms: C_15  and  C_9 
REMARK    8  A    between atoms: C_16  and  C_10 
REMARK    9  A    between atoms: C_12  and  C_11 
REMARK   10  A    between atoms: C_13  and  C_11 
REMARK   11  A    between atoms: C_14  and  C_12 
REMARK   12  A    between atoms: C_17  and  C_13 
REMARK   13  A    between atoms: C_18  and  C_14 
REMARK   14  A    between atoms: C_19  and  C_15 
REMARK   15  A    between atoms: C_20  and  C_16 
REMARK   16  A    between atoms: C_21  and  C_17 
REMARK   17  A    between atoms: C_22  and  C_18 
REMARK   18  A    between atoms: C_27  and  C_19 
REMARK   19  A    between atoms: C_28  and  C_20 
REMARK   20  A    between atoms: C_29  and  C_21 
REMARK   21  A    between atoms: C_30  and  C_22 
REMARK   22  A    between atoms: N_37  and  C_27 
REMARK   23  A    between atoms: N_39  and  C_28 
REMARK   24  A    between atoms: N_41  and  C_29 
REMARK   25  A    between atoms: N_42  and  C_30 
REMARK   26  A    between atoms: N_37  and  C_35 
REMARK   27  A    between atoms: N_39  and  C_36 
ROOT
HETATM    1  C   UNK N   1      26.015  15.402   1.802  0.00  0.00     0.000 C 
ENDROOT
BRANCH   1   2
HETATM    2  C   UNK N   1      25.829  16.454   2.880  0.00  0.00     0.000 C 
BRANCH   2   3
HETATM    3  C   UNK N   1      27.155  17.108   3.231  0.00  0.00     0.000 C 
BRANCH   3   4
HETATM    4  C   UNK N   1      26.902  18.393   4.004  0.00  0.00     0.002 C 
BRANCH   4   5
HETATM    5  C   UNK N   1      26.023  19.337   3.201  0.00  0.00     0.020 C 
BRANCH   5   6
HETATM    6  C   UNK N   1      25.038  20.031   4.131  0.00  0.00     0.128 C 
BRANCH   6   7
HETATM    7  N   UNK N   1      23.665  19.842   3.691  0.00  0.00    -0.366 N 
HETATM    8  C   UNK N   1      23.138  20.677   2.747  0.00  0.00     0.092 A 
HETATM    9  C   UNK N   1      21.841  20.477   2.265  0.00  0.00     0.046 A 
HETATM   10  C   UNK N   1      21.078  19.407   2.748  0.00  0.00     0.030 A 
HETATM   11  C   UNK N   1      21.645  18.565   3.725  0.00  0.00     0.046 A 
HETATM   12  C   UNK N   1      22.939  18.797   4.178  0.00  0.00     0.092 A 
BRANCH  10  13
HETATM   13  N   UNK N   1      19.896  19.199   2.289  0.00  0.00    -0.390 N 
ATOM     14  HN  UNK N   1      19.350  19.990   1.948  1.00  0.00     0.159 HD
BRANCH  13  15
HETATM   15  C   UNK N   1      19.320  17.871   2.243  0.00  0.00     0.119 C 
BRANCH  15  16
HETATM   16  C   UNK N   1      19.910  17.029   1.132  0.00  0.00     0.020 C 
BRANCH  16  17
HETATM   17  C   UNK N   1      20.318  15.710   1.760  0.00  0.00     0.002 C 
BRANCH  17  18
HETATM   18  C   UNK N   1      21.385  14.993   0.958  0.00  0.00     0.000 C 
BRANCH  18  19
HETATM   19  C   UNK N   1      22.352  14.375   1.947  0.00  0.00     0.000 C 
BRANCH  19  20
HETATM   20  C   UNK N   1      21.689  14.094   3.279  0.00  0.00    -0.000 C 
BRANCH  20  21
HETATM   21  C   UNK N   1      22.779  13.923   4.320  0.00  0.00    -0.005 C 
HETATM   22  C   UNK N   1      23.046  15.237   5.021  0.00  0.00     0.005 C 
ENDBRANCH  20  21
ENDBRANCH  19  20
ENDBRANCH  18  19
ENDBRANCH  17  18
ENDBRANCH  16  17
ENDBRANCH  15  16
ENDBRANCH  13  15
ENDBRANCH  10  13
ENDBRANCH   6   7
ENDBRANCH   5   6
ENDBRANCH   4   5
ENDBRANCH   3   4
ENDBRANCH   2   3
ENDBRANCH   1   2
BRANCH   1  23
HETATM   23  C   UNK N   1      25.977  14.005   2.397  0.00  0.00     0.000 C 
BRANCH  23  24
HETATM   24  C   UNK N   1      27.257  13.256   2.053  0.00  0.00     0.002 C 
BRANCH  24  25
HETATM   25  C   UNK N   1      28.258  13.320   3.196  0.00  0.00     0.020 C 
BRANCH  25  26
HETATM   26  C   UNK N   1      27.548  13.115   4.527  0.00  0.00     0.128 C 
BRANCH  26  27
HETATM   27  N   UNK N   1      27.624  14.312   5.351  0.00  0.00    -0.366 N 
HETATM   28  C   UNK N   1      26.525  14.698   6.057  0.00  0.00     0.092 A 
HETATM   29  C   UNK N   1      26.577  15.823   6.880  0.00  0.00     0.046 A 
HETATM   30  C   UNK N   1      27.770  16.555   6.981  0.00  0.00     0.030 A 
HETATM   31  C   UNK N   1      28.881  16.143   6.246  0.00  0.00     0.046 A 
HETATM   32  C   UNK N   1      28.791  15.011   5.436  0.00  0.00     0.092 A 
BRANCH  30  33
HETATM   33  N   UNK N   1      27.871  17.586   7.746  0.00  0.00    -0.390 N 
ATOM     34  HN  UNK N   1      27.777  18.511   7.325  1.00  0.00     0.159 HD
BRANCH  33  35
HETATM   35  C   UNK N   1      28.111  17.504   9.169  0.00  0.00     0.119 C 
BRANCH  35  36
HETATM   36  C   UNK N   1      29.229  18.459   9.572  0.00  0.00     0.020 C 
BRANCH  36  37
HETATM   37  C   UNK N   1      30.428  18.345   8.641  0.00  0.00     0.002 C 
BRANCH  37  38
HETATM   38  C   UNK N   1      31.189  17.060   8.922  0.00  0.00     0.000 C 
BRANCH  38  39
HETATM   39  C   UNK N   1      32.561  17.112   8.288  0.00  0.00     0.000 C 
BRANCH  39  40
HETATM   40  C   UNK N   1      32.450  16.642   6.852  0.00  0.00    -0.000 C 
BRANCH  40  41
HETATM   41  C   UNK N   1      33.276  17.534   5.950  0.00  0.00    -0.005 C 
HETATM   42  C   UNK N   1      32.677  17.530   4.560  0.00  0.00     0.005 C 
ENDBRANCH  40  41
ENDBRANCH  39  40
ENDBRANCH  38  39
ENDBRANCH  37  38
ENDBRANCH  36  37
ENDBRANCH  35  36
ENDBRANCH  33  35
ENDBRANCH  30  33
ENDBRANCH  26  27
ENDBRANCH  25  26
ENDBRANCH  24  25
ENDBRANCH  23  24
ENDBRANCH   1  23
TORSDOF 27
ENDMDL
