MODEL 1
REMARK VINA RESULT:      -6.8      0.000      0.000
REMARK  3 active torsions:
REMARK  status: ('A' for Active; 'I' for Inactive)
REMARK    1  A    between atoms: C_9  and  C_5 
REMARK    2  A    between atoms: N_25  and  C_5 
REMARK    3  A    between atoms: O_26  and  C_11 
REMARK       I    between atoms: N_16  and  C_14 
ROOT
HETATM    1  C   UNK N   1      35.690  16.523  10.874  0.00  0.00     0.185 A 
HETATM    2  C   UNK N   1      34.123  16.270   9.447  0.00  0.00     0.118 A 
HETATM    3  C   UNK N   1      33.110  16.397   8.513  0.00  0.00     0.149 A 
HETATM    4  C   UNK N   1      34.640  15.057   9.724  0.00  0.00     0.154 A 
HETATM    5  C   UNK N   1      33.167  14.025   8.237  0.00  0.00     0.678 A 
HETATM    6 Cl   UNK N   1      32.469  17.965   8.066  0.00  0.00    -0.061 Cl
HETATM    7  N   UNK N   1      32.700  12.974   7.681  0.00  0.00    -0.234 N 
ATOM      8  HN  UNK N   1      32.922  12.076   8.109  1.00  0.00     0.174 HD
HETATM    9  N   UNK N   1      34.757  17.214  10.163  0.00  0.00    -0.347 N 
ATOM     10  HN  UNK N   1      34.581  18.217  10.172  1.00  0.00     0.167 HD
HETATM   11  N   UNK N   1      32.643  15.257   7.922  0.00  0.00    -0.179 N 
HETATM   12  N   UNK N   1      34.194  13.921   9.138  0.00  0.00    -0.174 N 
ATOM     13  HN  UNK N   1      34.608  13.017   9.361  1.00  0.00     0.186 HD
HETATM   14  N   UNK N   1      35.641  15.190  10.598  0.00  0.00    -0.321 N 
HETATM   15  H   UNK N   1      32.142  12.967   6.870  0.00  0.00     0.174 HD
HETATM   16  H   UNK N   1      31.918  15.318   7.258  0.00  0.00     0.185 HD
ENDROOT
BRANCH  14  17
HETATM   17  C   UNK N   1      36.543  14.121  11.045  0.00  0.00     0.189 C 
BRANCH  17  18
HETATM   18  C   UNK N   1      36.291  13.689  12.467  0.00  0.00     0.036 A 
HETATM   19  C   UNK N   1      35.601  12.490  12.773  0.00  0.00    -0.004 A 
HETATM   20  C   UNK N   1      35.037  11.650  11.665  0.00  0.00     0.053 C 
HETATM   21  C   UNK N   1      35.441  12.115  14.133  0.00  0.00     0.083 A 
HETATM   22  C   UNK N   1      35.901  12.987  15.130  0.00  0.00    -0.013 A 
HETATM   23  C   UNK N   1      35.729  12.654  16.573  0.00  0.00     0.052 C 
HETATM   24  C   UNK N   1      36.543  14.173  14.778  0.00  0.00     0.097 A 
HETATM   25  N   UNK N   1      36.737  14.486  13.473  0.00  0.00    -0.367 N 
ATOM     26  HN  UNK N   1      37.235  15.345  13.239  1.00  0.00     0.165 HD
BRANCH  21  27
HETATM   27  O   UNK N   1      34.871  10.941  14.526  0.00  0.00    -0.355 OA
HETATM   28  C   UNK N   1      33.519  10.718  14.654  0.00  0.00     0.210 C 
ENDBRANCH  21  27
ENDBRANCH  17  18
ENDBRANCH  14  17
TORSDOF 3
ENDMDL
MODEL 2
REMARK VINA RESULT:      -6.7      3.466      7.007
REMARK  3 active torsions:
REMARK  status: ('A' for Active; 'I' for Inactive)
REMARK    1  A    between atoms: C_9  and  C_5 
REMARK    2  A    between atoms: N_25  and  C_5 
REMARK    3  A    between atoms: O_26  and  C_11 
REMARK       I    between atoms: N_16  and  C_14 
ROOT
HETATM    1  C   UNK N   1      34.862  12.421  10.719  0.00  0.00     0.185 A 
HETATM    2  C   UNK N   1      34.984  12.450  12.850  0.00  0.00     0.118 A 
HETATM    3  C   UNK N   1      34.894  12.231  14.214  0.00  0.00     0.149 A 
HETATM    4  C   UNK N   1      35.841  13.370  12.367  0.00  0.00     0.154 A 
HETATM    5  C   UNK N   1      36.522  13.952  14.522  0.00  0.00     0.678 A 
HETATM    6 Cl   UNK N   1      33.854  10.986  14.876  0.00  0.00    -0.061 Cl
HETATM    7  N   UNK N   1      37.224  14.668  15.313  0.00  0.00    -0.234 N 
ATOM      8  HN  UNK N   1      37.642  15.518  14.934  1.00  0.00     0.174 HD
HETATM    9  N   UNK N   1      34.345  11.840  11.837  0.00  0.00    -0.347 N 
ATOM     10  HN  UNK N   1      33.636  11.110  11.893  1.00  0.00     0.167 HD
HETATM   11  N   UNK N   1      35.672  13.000  15.034  0.00  0.00    -0.179 N 
HETATM   12  N   UNK N   1      36.624  14.131  13.168  0.00  0.00    -0.174 N 
ATOM     13  HN  UNK N   1      37.269  14.816  12.775  1.00  0.00     0.186 HD
HETATM   14  N   UNK N   1      35.801  13.356  11.033  0.00  0.00    -0.321 N 
HETATM   15  H   UNK N   1      37.393  14.461  16.260  0.00  0.00     0.174 HD
HETATM   16  H   UNK N   1      35.623  12.869  16.009  0.00  0.00     0.185 HD
ENDROOT
BRANCH  14  17
HETATM   17  C   UNK N   1      36.682  14.115  10.136  0.00  0.00     0.189 C 
BRANCH  17  18
HETATM   18  C   UNK N   1      35.943  14.788   9.008  0.00  0.00     0.036 A 
HETATM   19  C   UNK N   1      35.217  15.989   9.202  0.00  0.00    -0.004 A 
HETATM   20  C   UNK N   1      35.111  16.583  10.575  0.00  0.00     0.053 C 
HETATM   21  C   UNK N   1      34.584  16.599   8.086  0.00  0.00     0.083 A 
HETATM   22  C   UNK N   1      34.632  15.946   6.846  0.00  0.00    -0.013 A 
HETATM   23  C   UNK N   1      33.957  16.530   5.651  0.00  0.00     0.052 C 
HETATM   24  C   UNK N   1      35.330  14.748   6.714  0.00  0.00     0.097 A 
HETATM   25  N   UNK N   1      35.977  14.210   7.778  0.00  0.00    -0.367 N 
ATOM     26  HN  UNK N   1      36.505  13.347   7.651  1.00  0.00     0.165 HD
BRANCH  21  27
HETATM   27  O   UNK N   1      33.938  17.797   8.153  0.00  0.00    -0.355 OA
HETATM   28  C   UNK N   1      32.592  17.961   8.389  0.00  0.00     0.210 C 
ENDBRANCH  21  27
ENDBRANCH  17  18
ENDBRANCH  14  17
TORSDOF 3
ENDMDL
MODEL 3
REMARK VINA RESULT:      -6.6      3.507      6.820
REMARK  3 active torsions:
REMARK  status: ('A' for Active; 'I' for Inactive)
REMARK    1  A    between atoms: C_9  and  C_5 
REMARK    2  A    between atoms: N_25  and  C_5 
REMARK    3  A    between atoms: O_26  and  C_11 
REMARK       I    between atoms: N_16  and  C_14 
ROOT
HETATM    1  C   UNK N   1      34.972  12.248  11.347  0.00  0.00     0.185 A 
HETATM    2  C   UNK N   1      35.178  12.468  13.461  0.00  0.00     0.118 A 
HETATM    3  C   UNK N   1      35.154  12.364  14.840  0.00  0.00     0.149 A 
HETATM    4  C   UNK N   1      35.965  13.383  12.863  0.00  0.00     0.154 A 
HETATM    5  C   UNK N   1      36.699  14.184  14.929  0.00  0.00     0.678 A 
HETATM    6 Cl   UNK N   1      34.208  11.132  15.651  0.00  0.00    -0.061 Cl
HETATM    7  N   UNK N   1      37.394  15.000  15.624  0.00  0.00    -0.234 N 
ATOM      8  HN  UNK N   1      37.750  15.833  15.156  1.00  0.00     0.174 HD
HETATM    9  N   UNK N   1      34.531  11.742  12.532  0.00  0.00    -0.347 N 
ATOM     10  HN  UNK N   1      33.865  10.985  12.681  1.00  0.00     0.167 HD
HETATM   11  N   UNK N   1      35.922  13.239  15.557  0.00  0.00    -0.179 N 
HETATM   12  N   UNK N   1      36.737  14.249  13.561  0.00  0.00    -0.174 N 
ATOM     13  HN  UNK N   1      37.329  14.928  13.083  1.00  0.00     0.186 HD
HETATM   14  N   UNK N   1      35.872  13.251  11.538  0.00  0.00    -0.321 N 
HETATM   15  H   UNK N   1      37.611  14.884  16.577  0.00  0.00     0.174 HD
HETATM   16  H   UNK N   1      35.919  13.192  16.541  0.00  0.00     0.185 HD
ENDROOT
BRANCH  14  17
HETATM   17  C   UNK N   1      36.676  13.972  10.542  0.00  0.00     0.189 C 
BRANCH  17  18
HETATM   18  C   UNK N   1      35.891  15.017   9.791  0.00  0.00     0.036 A 
HETATM   19  C   UNK N   1      35.463  14.813   8.455  0.00  0.00    -0.004 A 
HETATM   20  C   UNK N   1      35.852  13.559   7.730  0.00  0.00     0.053 C 
HETATM   21  C   UNK N   1      34.684  15.817   7.821  0.00  0.00     0.083 A 
HETATM   22  C   UNK N   1      34.434  17.012   8.511  0.00  0.00    -0.013 A 
HETATM   23  C   UNK N   1      33.648  18.109   7.877  0.00  0.00     0.052 C 
HETATM   24  C   UNK N   1      34.907  17.178   9.811  0.00  0.00     0.097 A 
HETATM   25  N   UNK N   1      35.600  16.185  10.421  0.00  0.00    -0.367 N 
ATOM     26  HN  UNK N   1      35.913  16.318  11.383  1.00  0.00     0.165 HD
BRANCH  21  27
HETATM   27  O   UNK N   1      34.152  15.677   6.574  0.00  0.00    -0.355 OA
HETATM   28  C   UNK N   1      32.968  15.038   6.282  0.00  0.00     0.210 C 
ENDBRANCH  21  27
ENDBRANCH  17  18
ENDBRANCH  14  17
TORSDOF 3
ENDMDL
MODEL 4
REMARK VINA RESULT:      -6.5      1.935      2.998
REMARK  3 active torsions:
REMARK  status: ('A' for Active; 'I' for Inactive)
REMARK    1  A    between atoms: C_9  and  C_5 
REMARK    2  A    between atoms: N_25  and  C_5 
REMARK    3  A    between atoms: O_26  and  C_11 
REMARK       I    between atoms: N_16  and  C_14 
ROOT
HETATM    1  C   UNK N   1      37.184  13.878  10.540  0.00  0.00     0.185 A 
HETATM    2  C   UNK N   1      35.905  14.605   8.993  0.00  0.00     0.118 A 
HETATM    3  C   UNK N   1      35.210  14.874   7.827  0.00  0.00     0.149 A 
HETATM    4  C   UNK N   1      35.526  15.174  10.154  0.00  0.00     0.154 A 
HETATM    5  C   UNK N   1      33.811  16.343   9.089  0.00  0.00     0.678 A 
HETATM    6 Cl   UNK N   1      35.619  14.090   6.314  0.00  0.00    -0.061 Cl
HETATM    7  N   UNK N   1      32.841  17.173   9.122  0.00  0.00    -0.234 N 
ATOM      8  HN  UNK N   1      32.765  17.776   9.942  1.00  0.00     0.174 HD
HETATM    9  N   UNK N   1      36.953  13.789   9.201  0.00  0.00    -0.347 N 
ATOM     10  HN  UNK N   1      37.459  13.232   8.514  1.00  0.00     0.167 HD
HETATM   11  N   UNK N   1      34.166  15.752   7.898  0.00  0.00    -0.179 N 
HETATM   12  N   UNK N   1      34.488  16.037  10.239  0.00  0.00    -0.174 N 
ATOM     13  HN  UNK N   1      34.219  16.449  11.133  1.00  0.00     0.186 HD
HETATM   14  N   UNK N   1      36.297  14.716  11.144  0.00  0.00    -0.321 N 
HETATM   15  H   UNK N   1      32.162  17.275   8.417  0.00  0.00     0.174 HD
HETATM   16  H   UNK N   1      33.657  15.967   7.082  0.00  0.00     0.185 HD
ENDROOT
BRANCH  14  17
HETATM   17  C   UNK N   1      36.115  14.993  12.575  0.00  0.00     0.189 C 
BRANCH  17  18
HETATM   18  C   UNK N   1      35.663  13.787  13.359  0.00  0.00     0.036 A 
HETATM   19  C   UNK N   1      36.054  13.582  14.705  0.00  0.00    -0.004 A 
HETATM   20  C   UNK N   1      36.999  14.544  15.363  0.00  0.00     0.053 C 
HETATM   21  C   UNK N   1      35.552  12.452  15.404  0.00  0.00     0.083 A 
HETATM   22  C   UNK N   1      34.752  11.533  14.710  0.00  0.00    -0.013 A 
HETATM   23  C   UNK N   1      34.226  10.314  15.389  0.00  0.00     0.052 C 
HETATM   24  C   UNK N   1      34.424  11.761  13.375  0.00  0.00     0.097 A 
HETATM   25  N   UNK N   1      34.866  12.876  12.741  0.00  0.00    -0.367 N 
ATOM     26  HN  UNK N   1      34.590  13.037  11.772  1.00  0.00     0.165 HD
BRANCH  21  27
HETATM   27  O   UNK N   1      35.798  12.215  16.723  0.00  0.00    -0.355 OA
HETATM   28  C   UNK N   1      35.143  12.818  17.773  0.00  0.00     0.210 C 
ENDBRANCH  21  27
ENDBRANCH  17  18
ENDBRANCH  14  17
TORSDOF 3
ENDMDL
MODEL 5
REMARK VINA RESULT:      -6.4      3.608      6.743
REMARK  3 active torsions:
REMARK  status: ('A' for Active; 'I' for Inactive)
REMARK    1  A    between atoms: C_9  and  C_5 
REMARK    2  A    between atoms: N_25  and  C_5 
REMARK    3  A    between atoms: O_26  and  C_11 
REMARK       I    between atoms: N_16  and  C_14 
ROOT
HETATM    1  C   UNK N   1      36.377  14.464  11.888  0.00  0.00     0.185 A 
HETATM    2  C   UNK N   1      35.858  13.647  13.791  0.00  0.00     0.118 A 
HETATM    3  C   UNK N   1      35.669  13.347  15.128  0.00  0.00     0.149 A 
HETATM    4  C   UNK N   1      35.197  12.957  12.842  0.00  0.00     0.154 A 
HETATM    5  C   UNK N   1      34.180  11.607  14.450  0.00  0.00     0.678 A 
HETATM    6 Cl   UNK N   1      36.446  14.276  16.394  0.00  0.00    -0.061 Cl
HETATM    7  N   UNK N   1      33.411  10.637  14.766  0.00  0.00    -0.234 N 
ATOM      8  HN  UNK N   1      33.153   9.981  14.029  1.00  0.00     0.174 HD
HETATM    9  N   UNK N   1      36.618  14.599  13.221  0.00  0.00    -0.347 N 
ATOM     10  HN  UNK N   1      37.233  15.268  13.682  1.00  0.00     0.167 HD
HETATM   11  N   UNK N   1      34.826  12.317  15.436  0.00  0.00    -0.179 N 
HETATM   12  N   UNK N   1      34.352  11.941  13.133  0.00  0.00    -0.174 N 
ATOM     13  HN  UNK N   1      33.859  11.439  12.395  1.00  0.00     0.186 HD
HETATM   14  N   UNK N   1      35.486  13.464  11.641  0.00  0.00    -0.321 N 
HETATM   15  H   UNK N   1      33.048  10.476  15.667  0.00  0.00     0.174 HD
HETATM   16  H   UNK N   1      34.678  12.078  16.380  0.00  0.00     0.185 HD
ENDROOT
BRANCH  14  17
HETATM   17  C   UNK N   1      34.864  13.076  10.369  0.00  0.00     0.189 C 
BRANCH  17  18
HETATM   18  C   UNK N   1      34.296  14.245   9.605  0.00  0.00     0.036 A 
HETATM   19  C   UNK N   1      34.907  14.734   8.424  0.00  0.00    -0.004 A 
HETATM   20  C   UNK N   1      36.193  14.129   7.943  0.00  0.00     0.053 C 
HETATM   21  C   UNK N   1      34.292  15.806   7.724  0.00  0.00     0.083 A 
HETATM   22  C   UNK N   1      33.146  16.398   8.272  0.00  0.00    -0.013 A 
HETATM   23  C   UNK N   1      32.482  17.547   7.592  0.00  0.00     0.052 C 
HETATM   24  C   UNK N   1      32.603  15.904   9.456  0.00  0.00     0.097 A 
HETATM   25  N   UNK N   1      33.171  14.842  10.080  0.00  0.00    -0.367 N 
ATOM     26  HN  UNK N   1      32.740  14.479  10.930  1.00  0.00     0.165 HD
BRANCH  21  27
HETATM   27  O   UNK N   1      34.753  16.287   6.535  0.00  0.00    -0.355 OA
HETATM   28  C   UNK N   1      34.440  15.775   5.296  0.00  0.00     0.210 C 
ENDBRANCH  21  27
ENDBRANCH  17  18
ENDBRANCH  14  17
TORSDOF 3
ENDMDL
MODEL 6
REMARK VINA RESULT:      -6.3      1.700      3.247
REMARK  3 active torsions:
REMARK  status: ('A' for Active; 'I' for Inactive)
REMARK    1  A    between atoms: C_9  and  C_5 
REMARK    2  A    between atoms: N_25  and  C_5 
REMARK    3  A    between atoms: O_26  and  C_11 
REMARK       I    between atoms: N_16  and  C_14 
ROOT
HETATM    1  C   UNK N   1      33.064  13.434   8.652  0.00  0.00     0.185 A 
HETATM    2  C   UNK N   1      32.665  15.479   8.188  0.00  0.00     0.118 A 
HETATM    3  C   UNK N   1      32.134  16.710   7.844  0.00  0.00     0.149 A 
HETATM    4  C   UNK N   1      33.919  15.395   8.674  0.00  0.00     0.154 A 
HETATM    5  C   UNK N   1      34.220  17.698   8.456  0.00  0.00     0.678 A 
HETATM    6 Cl   UNK N   1      30.480  16.871   7.287  0.00  0.00    -0.061 Cl
HETATM    7  N   UNK N   1      34.952  18.741   8.560  0.00  0.00    -0.234 N 
ATOM      8  HN  UNK N   1      35.957  18.603   8.666  1.00  0.00     0.174 HD
HETATM    9  N   UNK N   1      32.103  14.259   8.153  0.00  0.00    -0.347 N 
ATOM     10  HN  UNK N   1      31.170  14.009   7.828  1.00  0.00     0.167 HD
HETATM   11  N   UNK N   1      32.934  17.809   7.982  0.00  0.00    -0.179 N 
HETATM   12  N   UNK N   1      34.718  16.477   8.825  0.00  0.00    -0.174 N 
ATOM     13  HN  UNK N   1      35.661  16.385   9.203  1.00  0.00     0.186 HD
HETATM   14  N   UNK N   1      34.185  14.127   8.995  0.00  0.00    -0.321 N 
HETATM   15  H   UNK N   1      34.618  19.667   8.545  0.00  0.00     0.174 HD
HETATM   16  H   UNK N   1      32.583  18.697   7.738  0.00  0.00     0.185 HD
ENDROOT
BRANCH  14  17
HETATM   17  C   UNK N   1      35.393  13.647   9.678  0.00  0.00     0.189 C 
BRANCH  17  18
HETATM   18  C   UNK N   1      35.095  12.873  10.938  0.00  0.00     0.036 A 
HETATM   19  C   UNK N   1      35.195  13.467  12.220  0.00  0.00    -0.004 A 
HETATM   20  C   UNK N   1      35.676  14.882  12.353  0.00  0.00     0.053 C 
HETATM   21  C   UNK N   1      34.852  12.697  13.364  0.00  0.00     0.083 A 
HETATM   22  C   UNK N   1      34.505  11.350  13.189  0.00  0.00    -0.013 A 
HETATM   23  C   UNK N   1      34.166  10.491  14.360  0.00  0.00     0.052 C 
HETATM   24  C   UNK N   1      34.455  10.803  11.909  0.00  0.00     0.097 A 
HETATM   25  N   UNK N   1      34.731  11.569  10.824  0.00  0.00    -0.367 N 
ATOM     26  HN  UNK N   1      34.661  11.154   9.894  1.00  0.00     0.165 HD
BRANCH  21  27
HETATM   27  O   UNK N   1      34.830  13.203  14.629  0.00  0.00    -0.355 OA
HETATM   28  C   UNK N   1      35.933  13.374  15.435  0.00  0.00     0.210 C 
ENDBRANCH  21  27
ENDBRANCH  17  18
ENDBRANCH  14  17
TORSDOF 3
ENDMDL
MODEL 7
REMARK VINA RESULT:      -6.2      3.673      7.489
REMARK  3 active torsions:
REMARK  status: ('A' for Active; 'I' for Inactive)
REMARK    1  A    between atoms: C_9  and  C_5 
REMARK    2  A    between atoms: N_25  and  C_5 
REMARK    3  A    between atoms: O_26  and  C_11 
REMARK       I    between atoms: N_16  and  C_14 
ROOT
HETATM    1  C   UNK N   1      33.856  13.557   9.404  0.00  0.00     0.185 A 
HETATM    2  C   UNK N   1      34.812  12.927  11.206  0.00  0.00     0.118 A 
HETATM    3  C   UNK N   1      35.380  12.249  12.271  0.00  0.00     0.149 A 
HETATM    4  C   UNK N   1      34.954  14.262  11.099  0.00  0.00     0.154 A 
HETATM    5  C   UNK N   1      36.158  14.352  13.096  0.00  0.00     0.678 A 
HETATM    6 Cl   UNK N   1      35.288  10.505  12.402  0.00  0.00    -0.061 Cl
HETATM    7  N   UNK N   1      36.773  15.017  13.997  0.00  0.00    -0.234 N 
ATOM      8  HN  UNK N   1      36.624  16.025  14.022  1.00  0.00     0.174 HD
HETATM    9  N   UNK N   1      34.116  12.453  10.158  0.00  0.00    -0.347 N 
ATOM     10  HN  UNK N   1      33.846  11.489   9.970  1.00  0.00     0.167 HD
HETATM   11  N   UNK N   1      36.046  12.985  13.210  0.00  0.00    -0.179 N 
HETATM   12  N   UNK N   1      35.621  15.001  12.016  0.00  0.00    -0.174 N 
ATOM     13  HN  UNK N   1      35.719  16.010  11.907  1.00  0.00     0.186 HD
HETATM   14  N   UNK N   1      34.385  14.679   9.966  0.00  0.00    -0.321 N 
HETATM   15  H   UNK N   1      37.380  14.628  14.668  0.00  0.00     0.174 HD
HETATM   16  H   UNK N   1      36.454  12.530  13.982  0.00  0.00     0.185 HD
ENDROOT
BRANCH  14  17
HETATM   17  C   UNK N   1      34.443  16.043   9.424  0.00  0.00     0.189 C 
BRANCH  17  18
HETATM   18  C   UNK N   1      33.238  16.403   8.592  0.00  0.00     0.036 A 
HETATM   19  C   UNK N   1      33.275  16.385   7.176  0.00  0.00    -0.004 A 
HETATM   20  C   UNK N   1      34.559  16.070   6.467  0.00  0.00     0.053 C 
HETATM   21  C   UNK N   1      32.091  16.686   6.452  0.00  0.00     0.083 A 
HETATM   22  C   UNK N   1      30.946  17.071   7.165  0.00  0.00    -0.013 A 
HETATM   23  C   UNK N   1      29.687  17.427   6.450  0.00  0.00     0.052 C 
HETATM   24  C   UNK N   1      30.970  17.107   8.557  0.00  0.00     0.097 A 
HETATM   25  N   UNK N   1      32.094  16.760   9.233  0.00  0.00    -0.367 N 
ATOM     26  HN  UNK N   1      32.080  16.767  10.253  1.00  0.00     0.165 HD
BRANCH  21  27
HETATM   27  O   UNK N   1      32.002  16.610   5.094  0.00  0.00    -0.355 OA
HETATM   28  C   UNK N   1      32.391  17.597   4.217  0.00  0.00     0.210 C 
ENDBRANCH  21  27
ENDBRANCH  17  18
ENDBRANCH  14  17
TORSDOF 3
ENDMDL
MODEL 8
REMARK VINA RESULT:      -6.1      1.741      2.470
REMARK  3 active torsions:
REMARK  status: ('A' for Active; 'I' for Inactive)
REMARK    1  A    between atoms: C_9  and  C_5 
REMARK    2  A    between atoms: N_25  and  C_5 
REMARK    3  A    between atoms: O_26  and  C_11 
REMARK       I    between atoms: N_16  and  C_14 
ROOT
HETATM    1  C   UNK N   1      35.411  15.432  11.659  0.00  0.00     0.185 A 
HETATM    2  C   UNK N   1      33.885  14.839  10.289  0.00  0.00     0.118 A 
HETATM    3  C   UNK N   1      32.861  14.742   9.363  0.00  0.00     0.149 A 
HETATM    4  C   UNK N   1      34.558  13.736  10.672  0.00  0.00     0.154 A 
HETATM    5  C   UNK N   1      33.227  12.382   9.316  0.00  0.00     0.678 A 
HETATM    6 Cl   UNK N   1      32.019  16.162   8.777  0.00  0.00    -0.061 Cl
HETATM    7  N   UNK N   1      32.899  11.230   8.872  0.00  0.00    -0.234 N 
ATOM      8  HN  UNK N   1      33.239  10.414   9.381  1.00  0.00     0.174 HD
HETATM    9  N   UNK N   1      34.393  15.923  10.900  0.00  0.00    -0.347 N 
ATOM     10  HN  UNK N   1      34.087  16.891  10.814  1.00  0.00     0.167 HD
HETATM   11  N   UNK N   1      32.545  13.499   8.892  0.00  0.00    -0.179 N 
HETATM   12  N   UNK N   1      34.261  12.501  10.206  0.00  0.00    -0.174 N 
ATOM     13  HN  UNK N   1      34.792  11.684  10.508  1.00  0.00     0.186 HD
HETATM   14  N   UNK N   1      35.535  14.083  11.513  0.00  0.00    -0.321 N 
HETATM   15  H   UNK N   1      32.344  11.071   8.074  0.00  0.00     0.174 HD
HETATM   16  H   UNK N   1      31.816  13.400   8.237  0.00  0.00     0.185 HD
ENDROOT
BRANCH  14  17
HETATM   17  C   UNK N   1      36.570  13.189  12.047  0.00  0.00     0.189 C 
BRANCH  17  18
HETATM   18  C   UNK N   1      36.105  12.385  13.234  0.00  0.00     0.036 A 
HETATM   19  C   UNK N   1      36.226  12.871  14.559  0.00  0.00    -0.004 A 
HETATM   20  C   UNK N   1      36.895  14.190  14.813  0.00  0.00     0.053 C 
HETATM   21  C   UNK N   1      35.722  12.085  15.630  0.00  0.00     0.083 A 
HETATM   22  C   UNK N   1      35.196  10.817  15.344  0.00  0.00    -0.013 A 
HETATM   23  C   UNK N   1      34.683   9.940  16.436  0.00  0.00     0.052 C 
HETATM   24  C   UNK N   1      35.132  10.369  14.026  0.00  0.00     0.097 A 
HETATM   25  N   UNK N   1      35.565  11.157  13.012  0.00  0.00    -0.367 N 
ATOM     26  HN  UNK N   1      35.483  10.820  12.053  1.00  0.00     0.165 HD
BRANCH  21  27
HETATM   27  O   UNK N   1      35.710  12.503  16.927  0.00  0.00    -0.355 OA
HETATM   28  C   UNK N   1      34.852  13.443  17.450  0.00  0.00     0.210 C 
ENDBRANCH  21  27
ENDBRANCH  17  18
ENDBRANCH  14  17
TORSDOF 3
ENDMDL
MODEL 9
REMARK VINA RESULT:      -6.0      3.401      5.072
REMARK  3 active torsions:
REMARK  status: ('A' for Active; 'I' for Inactive)
REMARK    1  A    between atoms: C_9  and  C_5 
REMARK    2  A    between atoms: N_25  and  C_5 
REMARK    3  A    between atoms: O_26  and  C_11 
REMARK       I    between atoms: N_16  and  C_14 
ROOT
HETATM    1  C   UNK N   1      36.346  13.947  14.601  0.00  0.00     0.185 A 
HETATM    2  C   UNK N   1      36.250  13.374  12.547  0.00  0.00     0.118 A 
HETATM    3  C   UNK N   1      36.442  13.146  11.196  0.00  0.00     0.149 A 
HETATM    4  C   UNK N   1      35.258  12.745  13.206  0.00  0.00     0.154 A 
HETATM    5  C   UNK N   1      34.553  11.685  11.251  0.00  0.00     0.678 A 
HETATM    6 Cl   UNK N   1      37.771  13.881  10.322  0.00  0.00    -0.061 Cl
HETATM    7  N   UNK N   1      33.747  10.910  10.632  0.00  0.00    -0.234 N 
ATOM      8  HN  UNK N   1      32.869  10.677  11.095  1.00  0.00     0.174 HD
HETATM    9  N   UNK N   1      36.949  14.147  13.397  0.00  0.00    -0.347 N 
ATOM     10  HN  UNK N   1      37.747  14.745  13.188  1.00  0.00     0.167 HD
HETATM   11  N   UNK N   1      35.575  12.298  10.565  0.00  0.00    -0.179 N 
HETATM   12  N   UNK N   1      34.400  11.895  12.596  0.00  0.00    -0.174 N 
ATOM     13  HN  UNK N   1      33.662  11.426  13.121  1.00  0.00     0.186 HD
HETATM   14  N   UNK N   1      35.311  13.068  14.501  0.00  0.00    -0.321 N 
HETATM   15  H   UNK N   1      33.912  10.521   9.743  0.00  0.00     0.174 HD
HETATM   16  H   UNK N   1      35.685  12.122   9.602  0.00  0.00     0.185 HD
ENDROOT
BRANCH  14  17
HETATM   17  C   UNK N   1      34.487  12.486  15.568  0.00  0.00     0.189 C 
BRANCH  17  18
HETATM   18  C   UNK N   1      35.218  11.449  16.383  0.00  0.00     0.036 A 
HETATM   19  C   UNK N   1      35.501  11.643  17.758  0.00  0.00    -0.004 A 
HETATM   20  C   UNK N   1      35.132  12.937  18.421  0.00  0.00     0.053 C 
HETATM   21  C   UNK N   1      36.148  10.606  18.481  0.00  0.00     0.083 A 
HETATM   22  C   UNK N   1      36.559   9.458  17.788  0.00  0.00    -0.013 A 
HETATM   23  C   UNK N   1      37.270   8.354  18.494  0.00  0.00     0.052 C 
HETATM   24  C   UNK N   1      36.289   9.331  16.427  0.00  0.00     0.097 A 
HETATM   25  N   UNK N   1      35.619  10.307  15.766  0.00  0.00    -0.367 N 
ATOM     26  HN  UNK N   1      35.407  10.179  14.776  1.00  0.00     0.165 HD
BRANCH  21  27
HETATM   27  O   UNK N   1      36.383  10.660  19.822  0.00  0.00    -0.355 OA
HETATM   28  C   UNK N   1      35.496  10.270  20.800  0.00  0.00     0.210 C 
ENDBRANCH  21  27
ENDBRANCH  17  18
ENDBRANCH  14  17
TORSDOF 3
ENDMDL
