MODEL 1
REMARK VINA RESULT:      -6.1      0.000      0.000
REMARK  10 active torsions:
REMARK  status: ('A' for Active; 'I' for Inactive)
REMARK    1  A    between atoms: C_11  and  C_6 
REMARK    2  A    between atoms: C_15  and  C_6 
REMARK    3  A    between atoms: C_18  and  C_11 
REMARK    4  A    between atoms: C_18  and  C_14 
REMARK    5  A    between atoms: O_25  and  C_14 
REMARK    6  A    between atoms: C_20  and  C_16 
REMARK    7  A    between atoms: C_21  and  C_17 
REMARK    8  A    between atoms: O_22  and  C_18 
REMARK    9  A    between atoms: O_25  and  C_19 
REMARK   10  A    between atoms: O_23  and  C_20 
ROOT
HETATM    1  C   UNK N   1      31.582  22.311  -3.247  0.00  0.00     0.142 C 
ENDROOT
BRANCH   1   2
HETATM    2  C   UNK N   1      30.664  23.371  -2.647  0.00  0.00     0.038 C 
BRANCH   2   3
HETATM    3  C   UNK N   1      29.183  23.035  -2.749  0.00  0.00     0.041 C 
BRANCH   3   4
HETATM    4  C   UNK N   1      28.421  24.184  -3.325  0.00  0.00    -0.058 A 
HETATM    5  C   UNK N   1      27.034  24.096  -3.502  0.00  0.00     0.007 A 
HETATM    6  C   UNK N   1      26.326  25.167  -4.050  0.00  0.00     0.008 A 
HETATM    7  C   UNK N   1      26.995  26.341  -4.439  0.00  0.00    -0.051 A 
HETATM    8  C   UNK N   1      28.389  26.418  -4.261  0.00  0.00     0.008 A 
HETATM    9  C   UNK N   1      29.095  25.347  -3.706  0.00  0.00     0.007 A 
BRANCH   7  10
HETATM   10  C   UNK N   1      26.209  27.489  -5.043  0.00  0.00    -0.024 C 
HETATM   11  C   UNK N   1      27.035  28.174  -6.117  0.00  0.00     0.019 C 
HETATM   12  C   UNK N   1      24.900  27.040  -5.678  0.00  0.00     0.019 C 
HETATM   13  C   UNK N   1      25.874  28.506  -3.965  0.00  0.00     0.019 C 
ENDBRANCH   7  10
ENDBRANCH   3   4
ENDBRANCH   2   3
ENDBRANCH   1   2
BRANCH   1  14
HETATM   14  C   UNK N   1      30.950  21.496  -4.368  0.00  0.00     0.207 C 
BRANCH  14  15
HETATM   15  O   UNK N   1      31.081  22.088  -5.610  0.00  0.00    -0.349 OA
BRANCH  15  16
HETATM   16  C   UNK N   1      30.019  22.655  -6.230  0.00  0.00     0.068 A 
HETATM   17  C   UNK N   1      30.096  23.957  -6.751  0.00  0.00     0.038 A 
HETATM   18  C   UNK N   1      28.972  24.564  -7.308  0.00  0.00     0.021 A 
HETATM   19  C   UNK N   1      27.748  23.888  -7.338  0.00  0.00     0.037 A 
HETATM   20  C   UNK N   1      27.673  22.574  -6.847  0.00  0.00     0.021 A 
HETATM   21  C   UNK N   1      28.807  21.956  -6.306  0.00  0.00     0.038 A 
BRANCH  19  22
HETATM   22  C   UNK N   1      26.546  24.577  -7.846  0.00  0.00     0.176 C 
HETATM   23  O   UNK N   1      25.431  24.187  -7.534  0.00  0.00    -0.646 OA
BRANCH  22  24
HETATM   24  O   UNK N   1      26.671  25.667  -8.630  0.00  0.00    -0.773 OA
HETATM   25  H   UNK N   1      27.335  26.325  -8.597  0.00  0.00     0.167 HD
ENDBRANCH  22  24
ENDBRANCH  19  22
ENDBRANCH  15  16
ENDBRANCH  14  15
ENDBRANCH   1  14
BRANCH   1  26
HETATM   26  O   UNK N   1      32.143  21.493  -2.266  0.00  0.00    -0.393 OA
HETATM   27  H   UNK N   1      31.925  20.615  -1.916  0.00  0.00     0.210 HD
ENDBRANCH   1  26
TORSDOF 10
ENDMDL
MODEL 2
REMARK VINA RESULT:      -6.1      0.165      1.452
REMARK  10 active torsions:
REMARK  status: ('A' for Active; 'I' for Inactive)
REMARK    1  A    between atoms: C_11  and  C_6 
REMARK    2  A    between atoms: C_15  and  C_6 
REMARK    3  A    between atoms: C_18  and  C_11 
REMARK    4  A    between atoms: C_18  and  C_14 
REMARK    5  A    between atoms: O_25  and  C_14 
REMARK    6  A    between atoms: C_20  and  C_16 
REMARK    7  A    between atoms: C_21  and  C_17 
REMARK    8  A    between atoms: O_22  and  C_18 
REMARK    9  A    between atoms: O_25  and  C_19 
REMARK   10  A    between atoms: O_23  and  C_20 
ROOT
HETATM    1  C   UNK N   1      31.583  22.317  -3.305  0.00  0.00     0.142 C 
ENDROOT
BRANCH   1   2
HETATM    2  C   UNK N   1      30.717  23.421  -2.707  0.00  0.00     0.038 C 
BRANCH   2   3
HETATM    3  C   UNK N   1      29.228  23.102  -2.698  0.00  0.00     0.041 C 
BRANCH   3   4
HETATM    4  C   UNK N   1      28.449  24.208  -3.331  0.00  0.00    -0.058 A 
HETATM    5  C   UNK N   1      29.089  25.391  -3.723  0.00  0.00     0.007 A 
HETATM    6  C   UNK N   1      28.357  26.427  -4.305  0.00  0.00     0.008 A 
HETATM    7  C   UNK N   1      26.969  26.302  -4.495  0.00  0.00    -0.051 A 
HETATM    8  C   UNK N   1      26.335  25.111  -4.094  0.00  0.00     0.008 A 
HETATM    9  C   UNK N   1      27.071  24.072  -3.518  0.00  0.00     0.007 A 
BRANCH   7  10
HETATM   10  C   UNK N   1      26.189  27.444  -5.118  0.00  0.00    -0.024 C 
HETATM   11  C   UNK N   1      24.871  26.931  -5.669  0.00  0.00     0.019 C 
HETATM   12  C   UNK N   1      25.879  28.557  -4.128  0.00  0.00     0.019 C 
HETATM   13  C   UNK N   1      26.989  28.050  -6.259  0.00  0.00     0.019 C 
ENDBRANCH   7  10
ENDBRANCH   3   4
ENDBRANCH   2   3
ENDBRANCH   1   2
BRANCH   1  14
HETATM   14  C   UNK N   1      30.965  21.619  -4.509  0.00  0.00     0.207 C 
BRANCH  14  15
HETATM   15  O   UNK N   1      31.077  22.351  -5.678  0.00  0.00    -0.349 OA
BRANCH  15  16
HETATM   16  C   UNK N   1      29.980  22.837  -6.304  0.00  0.00     0.068 A 
HETATM   17  C   UNK N   1      30.000  24.100  -6.920  0.00  0.00     0.038 A 
HETATM   18  C   UNK N   1      28.842  24.630  -7.485  0.00  0.00     0.021 A 
HETATM   19  C   UNK N   1      27.640  23.916  -7.429  0.00  0.00     0.037 A 
HETATM   20  C   UNK N   1      27.622  22.640  -6.843  0.00  0.00     0.021 A 
HETATM   21  C   UNK N   1      28.791  22.098  -6.294  0.00  0.00     0.038 A 
BRANCH  19  22
HETATM   22  C   UNK N   1      26.403  24.530  -7.950  0.00  0.00     0.176 C 
HETATM   23  O   UNK N   1      26.458  25.520  -8.664  0.00  0.00    -0.646 OA
BRANCH  22  24
HETATM   24  O   UNK N   1      25.204  23.981  -7.669  0.00  0.00    -0.773 OA
HETATM   25  H   UNK N   1      24.719  24.038  -6.870  0.00  0.00     0.167 HD
ENDBRANCH  22  24
ENDBRANCH  19  22
ENDBRANCH  15  16
ENDBRANCH  14  15
ENDBRANCH   1  14
BRANCH   1  26
HETATM   26  O   UNK N   1      32.002  21.404  -2.338  0.00  0.00    -0.393 OA
HETATM   27  H   UNK N   1      32.837  20.940  -2.166  0.00  0.00     0.210 HD
ENDBRANCH   1  26
TORSDOF 10
ENDMDL
MODEL 3
REMARK VINA RESULT:      -6.0      1.897      5.254
REMARK  10 active torsions:
REMARK  status: ('A' for Active; 'I' for Inactive)
REMARK    1  A    between atoms: C_11  and  C_6 
REMARK    2  A    between atoms: C_15  and  C_6 
REMARK    3  A    between atoms: C_18  and  C_11 
REMARK    4  A    between atoms: C_18  and  C_14 
REMARK    5  A    between atoms: O_25  and  C_14 
REMARK    6  A    between atoms: C_20  and  C_16 
REMARK    7  A    between atoms: C_21  and  C_17 
REMARK    8  A    between atoms: O_22  and  C_18 
REMARK    9  A    between atoms: O_25  and  C_19 
REMARK   10  A    between atoms: O_23  and  C_20 
ROOT
HETATM    1  C   UNK N   1      25.207  22.876  -8.396  0.00  0.00     0.142 C 
ENDROOT
BRANCH   1   2
HETATM    2  C   UNK N   1      26.199  23.865  -8.997  0.00  0.00     0.038 C 
BRANCH   2   3
HETATM    3  C   UNK N   1      25.670  25.289  -9.094  0.00  0.00     0.041 C 
BRANCH   3   4
HETATM    4  C   UNK N   1      26.105  26.095  -7.914  0.00  0.00    -0.058 A 
HETATM    5  C   UNK N   1      25.167  26.526  -6.967  0.00  0.00     0.007 A 
HETATM    6  C   UNK N   1      25.575  27.287  -5.870  0.00  0.00     0.008 A 
HETATM    7  C   UNK N   1      26.927  27.639  -5.707  0.00  0.00    -0.051 A 
HETATM    8  C   UNK N   1      27.860  27.204  -6.666  0.00  0.00     0.008 A 
HETATM    9  C   UNK N   1      27.451  26.437  -7.760  0.00  0.00     0.007 A 
BRANCH   7  10
HETATM   10  C   UNK N   1      27.347  28.477  -4.515  0.00  0.00    -0.024 C 
HETATM   11  C   UNK N   1      27.317  29.950  -4.880  0.00  0.00     0.019 C 
HETATM   12  C   UNK N   1      26.445  28.277  -3.305  0.00  0.00     0.019 C 
HETATM   13  C   UNK N   1      28.762  28.108  -4.101  0.00  0.00     0.019 C 
ENDBRANCH   7  10
ENDBRANCH   3   4
ENDBRANCH   2   3
ENDBRANCH   1   2
BRANCH   1  14
HETATM   14  C   UNK N   1      25.611  22.334  -7.031  0.00  0.00     0.207 C 
BRANCH  14  15
HETATM   15  O   UNK N   1      25.562  23.289  -6.032  0.00  0.00    -0.349 OA
BRANCH  15  16
HETATM   16  C   UNK N   1      26.678  23.644  -5.351  0.00  0.00     0.068 A 
HETATM   17  C   UNK N   1      27.956  23.365  -5.864  0.00  0.00     0.038 A 
HETATM   18  C   UNK N   1      29.097  23.655  -5.117  0.00  0.00     0.021 A 
HETATM   19  C   UNK N   1      28.979  24.211  -3.839  0.00  0.00     0.037 A 
HETATM   20  C   UNK N   1      27.706  24.521  -3.335  0.00  0.00     0.021 A 
HETATM   21  C   UNK N   1      26.560  24.249  -4.094  0.00  0.00     0.038 A 
BRANCH  19  22
HETATM   22  C   UNK N   1      30.191  24.426  -3.024  0.00  0.00     0.176 C 
HETATM   23  O   UNK N   1      30.843  25.453  -3.146  0.00  0.00    -0.646 OA
BRANCH  22  24
HETATM   24  O   UNK N   1      30.567  23.507  -2.114  0.00  0.00    -0.773 OA
HETATM   25  H   UNK N   1      30.327  22.602  -2.078  0.00  0.00     0.167 HD
ENDBRANCH  22  24
ENDBRANCH  19  22
ENDBRANCH  15  16
ENDBRANCH  14  15
ENDBRANCH   1  14
BRANCH   1  26
HETATM   26  O   UNK N   1      24.891  21.850  -9.286  0.00  0.00    -0.393 OA
HETATM   27  H   UNK N   1      25.350  21.445 -10.039  0.00  0.00     0.210 HD
ENDBRANCH   1  26
TORSDOF 10
ENDMDL
MODEL 4
REMARK VINA RESULT:      -5.8      1.420      2.176
REMARK  10 active torsions:
REMARK  status: ('A' for Active; 'I' for Inactive)
REMARK    1  A    between atoms: C_11  and  C_6 
REMARK    2  A    between atoms: C_15  and  C_6 
REMARK    3  A    between atoms: C_18  and  C_11 
REMARK    4  A    between atoms: C_18  and  C_14 
REMARK    5  A    between atoms: O_25  and  C_14 
REMARK    6  A    between atoms: C_20  and  C_16 
REMARK    7  A    between atoms: C_21  and  C_17 
REMARK    8  A    between atoms: O_22  and  C_18 
REMARK    9  A    between atoms: O_25  and  C_19 
REMARK   10  A    between atoms: O_23  and  C_20 
ROOT
HETATM    1  C   UNK N   1      31.665  21.929  -3.261  0.00  0.00     0.142 C 
ENDROOT
BRANCH   1   2
HETATM    2  C   UNK N   1      30.935  23.234  -2.963  0.00  0.00     0.038 C 
BRANCH   2   3
HETATM    3  C   UNK N   1      29.466  23.053  -2.606  0.00  0.00     0.041 C 
BRANCH   3   4
HETATM    4  C   UNK N   1      28.633  24.111  -3.254  0.00  0.00    -0.058 A 
HETATM    5  C   UNK N   1      29.242  25.179  -3.925  0.00  0.00     0.007 A 
HETATM    6  C   UNK N   1      28.461  26.171  -4.520  0.00  0.00     0.008 A 
HETATM    7  C   UNK N   1      27.058  26.119  -4.444  0.00  0.00    -0.051 A 
HETATM    8  C   UNK N   1      26.456  25.044  -3.763  0.00  0.00     0.008 A 
HETATM    9  C   UNK N   1      27.240  24.047  -3.174  0.00  0.00     0.007 A 
BRANCH   7  10
HETATM   10  C   UNK N   1      26.228  27.214  -5.087  0.00  0.00    -0.024 C 
HETATM   11  C   UNK N   1      25.670  28.135  -4.018  0.00  0.00     0.019 C 
HETATM   12  C   UNK N   1      27.028  28.064  -6.065  0.00  0.00     0.019 C 
HETATM   13  C   UNK N   1      25.069  26.598  -5.852  0.00  0.00     0.019 C 
ENDBRANCH   7  10
ENDBRANCH   3   4
ENDBRANCH   2   3
ENDBRANCH   1   2
BRANCH   1  14
HETATM   14  C   UNK N   1      30.842  20.916  -4.047  0.00  0.00     0.207 C 
BRANCH  14  15
HETATM   15  O   UNK N   1      31.033  21.003  -5.413  0.00  0.00    -0.349 OA
BRANCH  15  16
HETATM   16  C   UNK N   1      29.982  21.108  -6.260  0.00  0.00     0.068 A 
HETATM   17  C   UNK N   1      29.138  22.231  -6.227  0.00  0.00     0.038 A 
HETATM   18  C   UNK N   1      28.008  22.291  -7.041  0.00  0.00     0.021 A 
HETATM   19  C   UNK N   1      27.693  21.223  -7.888  0.00  0.00     0.037 A 
HETATM   20  C   UNK N   1      28.550  20.112  -7.948  0.00  0.00     0.021 A 
HETATM   21  C   UNK N   1      29.697  20.061  -7.146  0.00  0.00     0.038 A 
BRANCH  19  22
HETATM   22  C   UNK N   1      26.445  21.261  -8.675  0.00  0.00     0.176 C 
HETATM   23  O   UNK N   1      25.490  20.567  -8.354  0.00  0.00    -0.646 OA
BRANCH  22  24
HETATM   24  O   UNK N   1      26.335  22.088  -9.733  0.00  0.00    -0.773 OA
HETATM   25  H   UNK N   1      25.551  22.418 -10.125  0.00  0.00     0.167 HD
ENDBRANCH  22  24
ENDBRANCH  19  22
ENDBRANCH  15  16
ENDBRANCH  14  15
ENDBRANCH   1  14
BRANCH   1  26
HETATM   26  O   UNK N   1      32.216  21.365  -2.110  0.00  0.00    -0.393 OA
HETATM   27  H   UNK N   1      33.085  21.418  -1.684  0.00  0.00     0.210 HD
ENDBRANCH   1  26
TORSDOF 10
ENDMDL
MODEL 5
REMARK VINA RESULT:      -5.6     13.534     15.773
REMARK  10 active torsions:
REMARK  status: ('A' for Active; 'I' for Inactive)
REMARK    1  A    between atoms: C_11  and  C_6 
REMARK    2  A    between atoms: C_15  and  C_6 
REMARK    3  A    between atoms: C_18  and  C_11 
REMARK    4  A    between atoms: C_18  and  C_14 
REMARK    5  A    between atoms: O_25  and  C_14 
REMARK    6  A    between atoms: C_20  and  C_16 
REMARK    7  A    between atoms: C_21  and  C_17 
REMARK    8  A    between atoms: O_22  and  C_18 
REMARK    9  A    between atoms: O_25  and  C_19 
REMARK   10  A    between atoms: O_23  and  C_20 
ROOT
HETATM    1  C   UNK N   1      28.558  18.569   8.952  0.00  0.00     0.142 C 
ENDROOT
BRANCH   1   2
HETATM    2  C   UNK N   1      28.494  18.804   7.447  0.00  0.00     0.038 C 
BRANCH   2   3
HETATM    3  C   UNK N   1      27.929  17.629   6.661  0.00  0.00     0.041 C 
BRANCH   3   4
HETATM    4  C   UNK N   1      29.024  16.883   5.970  0.00  0.00    -0.058 A 
HETATM    5  C   UNK N   1      29.030  15.481   5.963  0.00  0.00     0.007 A 
HETATM    6  C   UNK N   1      30.060  14.787   5.326  0.00  0.00     0.008 A 
HETATM    7  C   UNK N   1      31.107  15.482   4.695  0.00  0.00    -0.051 A 
HETATM    8  C   UNK N   1      31.094  16.889   4.712  0.00  0.00     0.008 A 
HETATM    9  C   UNK N   1      30.059  17.583   5.345  0.00  0.00     0.007 A 
BRANCH   7  10
HETATM   10  C   UNK N   1      32.223  14.708   4.018  0.00  0.00    -0.024 C 
HETATM   11  C   UNK N   1      32.717  13.605   4.936  0.00  0.00     0.019 C 
HETATM   12  C   UNK N   1      31.786  14.065   2.709  0.00  0.00     0.019 C 
HETATM   13  C   UNK N   1      33.382  15.640   3.711  0.00  0.00     0.019 C 
ENDBRANCH   7  10
ENDBRANCH   3   4
ENDBRANCH   2   3
ENDBRANCH   1   2
BRANCH   1  14
HETATM   14  C   UNK N   1      29.832  17.883   9.425  0.00  0.00     0.207 C 
BRANCH  14  15
HETATM   15  O   UNK N   1      30.979  18.426   8.875  0.00  0.00    -0.349 OA
BRANCH  15  16
HETATM   16  C   UNK N   1      31.956  17.633   8.374  0.00  0.00     0.068 A 
HETATM   17  C   UNK N   1      31.842  16.233   8.415  0.00  0.00     0.038 A 
HETATM   18  C   UNK N   1      32.890  15.425   7.978  0.00  0.00     0.021 A 
HETATM   19  C   UNK N   1      34.076  16.002   7.510  0.00  0.00     0.037 A 
HETATM   20  C   UNK N   1      34.182  17.400   7.437  0.00  0.00     0.021 A 
HETATM   21  C   UNK N   1      33.121  18.212   7.857  0.00  0.00     0.038 A 
BRANCH  19  22
HETATM   22  C   UNK N   1      35.210  15.134   7.138  0.00  0.00     0.176 C 
HETATM   23  O   UNK N   1      35.512  14.178   7.838  0.00  0.00    -0.646 OA
BRANCH  22  24
HETATM   24  O   UNK N   1      35.900  15.368   6.004  0.00  0.00    -0.773 OA
HETATM   25  H   UNK N   1      36.810  15.568   5.917  0.00  0.00     0.167 HD
ENDBRANCH  22  24
ENDBRANCH  19  22
ENDBRANCH  15  16
ENDBRANCH  14  15
ENDBRANCH   1  14
BRANCH   1  26
HETATM   26  O   UNK N   1      27.416  17.923   9.426  0.00  0.00    -0.393 OA
HETATM   27  H   UNK N   1      26.524  18.220   9.663  0.00  0.00     0.210 HD
ENDBRANCH   1  26
TORSDOF 10
ENDMDL
MODEL 6
REMARK VINA RESULT:      -5.5      3.344      5.890
REMARK  10 active torsions:
REMARK  status: ('A' for Active; 'I' for Inactive)
REMARK    1  A    between atoms: C_11  and  C_6 
REMARK    2  A    between atoms: C_15  and  C_6 
REMARK    3  A    between atoms: C_18  and  C_11 
REMARK    4  A    between atoms: C_18  and  C_14 
REMARK    5  A    between atoms: O_25  and  C_14 
REMARK    6  A    between atoms: C_20  and  C_16 
REMARK    7  A    between atoms: C_21  and  C_17 
REMARK    8  A    between atoms: O_22  and  C_18 
REMARK    9  A    between atoms: O_25  and  C_19 
REMARK   10  A    between atoms: O_23  and  C_20 
ROOT
HETATM    1  C   UNK N   1      25.816  24.155  -8.324  0.00  0.00     0.142 C 
ENDROOT
BRANCH   1   2
HETATM    2  C   UNK N   1      27.119  24.750  -8.845  0.00  0.00     0.038 C 
BRANCH   2   3
HETATM    3  C   UNK N   1      27.129  26.271  -8.892  0.00  0.00     0.041 C 
BRANCH   3   4
HETATM    4  C   UNK N   1      27.971  26.827  -7.790  0.00  0.00    -0.058 A 
HETATM    5  C   UNK N   1      27.910  28.191  -7.472  0.00  0.00     0.007 A 
HETATM    6  C   UNK N   1      28.706  28.709  -6.449  0.00  0.00     0.008 A 
HETATM    7  C   UNK N   1      29.583  27.875  -5.734  0.00  0.00    -0.051 A 
HETATM    8  C   UNK N   1      29.639  26.508  -6.064  0.00  0.00     0.008 A 
HETATM    9  C   UNK N   1      28.837  25.989  -7.084  0.00  0.00     0.007 A 
BRANCH   7  10
HETATM   10  C   UNK N   1      30.448  28.461  -4.633  0.00  0.00    -0.024 C 
HETATM   11  C   UNK N   1      31.891  28.540  -5.096  0.00  0.00     0.019 C 
HETATM   12  C   UNK N   1      30.012  29.860  -4.222  0.00  0.00     0.019 C 
HETATM   13  C   UNK N   1      30.380  27.575  -3.401  0.00  0.00     0.019 C 
ENDBRANCH   7  10
ENDBRANCH   3   4
ENDBRANCH   2   3
ENDBRANCH   1   2
BRANCH   1  14
HETATM   14  C   UNK N   1      25.908  23.582  -6.915  0.00  0.00     0.207 C 
BRANCH  14  15
HETATM   15  O   UNK N   1      25.093  24.236  -6.009  0.00  0.00    -0.349 OA
BRANCH  15  16
HETATM   16  C   UNK N   1      25.501  25.374  -5.398  0.00  0.00     0.068 A 
HETATM   17  C   UNK N   1      26.472  25.341  -4.383  0.00  0.00     0.038 A 
HETATM   18  C   UNK N   1      26.821  26.505  -3.701  0.00  0.00     0.021 A 
HETATM   19  C   UNK N   1      26.194  27.717  -4.008  0.00  0.00     0.037 A 
HETATM   20  C   UNK N   1      25.246  27.761  -5.043  0.00  0.00     0.021 A 
HETATM   21  C   UNK N   1      24.910  26.596  -5.744  0.00  0.00     0.038 A 
BRANCH  19  22
HETATM   22  C   UNK N   1      26.507  28.921  -3.214  0.00  0.00     0.176 C 
HETATM   23  O   UNK N   1      27.208  28.838  -2.217  0.00  0.00    -0.646 OA
BRANCH  22  24
HETATM   24  O   UNK N   1      26.051  30.128  -3.604  0.00  0.00    -0.773 OA
HETATM   25  H   UNK N   1      26.459  30.962  -3.485  0.00  0.00     0.167 HD
ENDBRANCH  22  24
ENDBRANCH  19  22
ENDBRANCH  15  16
ENDBRANCH  14  15
ENDBRANCH   1  14
BRANCH   1  26
HETATM   26  O   UNK N   1      25.268  23.237  -9.219  0.00  0.00    -0.393 OA
HETATM   27  H   UNK N   1      24.368  22.919  -9.392  0.00  0.00     0.210 HD
ENDBRANCH   1  26
TORSDOF 10
ENDMDL
MODEL 7
REMARK VINA RESULT:      -5.5      2.563      6.196
REMARK  10 active torsions:
REMARK  status: ('A' for Active; 'I' for Inactive)
REMARK    1  A    between atoms: C_11  and  C_6 
REMARK    2  A    between atoms: C_15  and  C_6 
REMARK    3  A    between atoms: C_18  and  C_11 
REMARK    4  A    between atoms: C_18  and  C_14 
REMARK    5  A    between atoms: O_25  and  C_14 
REMARK    6  A    between atoms: C_20  and  C_16 
REMARK    7  A    between atoms: C_21  and  C_17 
REMARK    8  A    between atoms: O_22  and  C_18 
REMARK    9  A    between atoms: O_25  and  C_19 
REMARK   10  A    between atoms: O_23  and  C_20 
ROOT
HETATM    1  C   UNK N   1      25.984  21.897  -8.978  0.00  0.00     0.142 C 
ENDROOT
BRANCH   1   2
HETATM    2  C   UNK N   1      26.762  20.840  -8.202  0.00  0.00     0.038 C 
BRANCH   2   3
HETATM    3  C   UNK N   1      28.271  20.929  -8.380  0.00  0.00     0.041 C 
BRANCH   3   4
HETATM    4  C   UNK N   1      28.927  21.358  -7.108  0.00  0.00    -0.058 A 
HETATM    5  C   UNK N   1      28.575  22.573  -6.505  0.00  0.00     0.007 A 
HETATM    6  C   UNK N   1      29.197  22.976  -5.322  0.00  0.00     0.008 A 
HETATM    7  C   UNK N   1      30.189  22.177  -4.728  0.00  0.00    -0.051 A 
HETATM    8  C   UNK N   1      30.538  20.960  -5.344  0.00  0.00     0.008 A 
HETATM    9  C   UNK N   1      29.910  20.555  -6.524  0.00  0.00     0.007 A 
BRANCH   7  10
HETATM   10  C   UNK N   1      30.861  22.639  -3.448  0.00  0.00    -0.024 C 
HETATM   11  C   UNK N   1      29.830  22.775  -2.343  0.00  0.00     0.019 C 
HETATM   12  C   UNK N   1      31.938  21.677  -2.967  0.00  0.00     0.019 C 
HETATM   13  C   UNK N   1      31.515  23.992  -3.671  0.00  0.00     0.019 C 
ENDBRANCH   7  10
ENDBRANCH   3   4
ENDBRANCH   2   3
ENDBRANCH   1   2
BRANCH   1  14
HETATM   14  C   UNK N   1      25.221  22.882  -8.103  0.00  0.00     0.207 C 
BRANCH  14  15
HETATM   15  O   UNK N   1      25.688  24.180  -8.212  0.00  0.00    -0.349 OA
BRANCH  15  16
HETATM   16  C   UNK N   1      25.803  24.974  -7.120  0.00  0.00     0.068 A 
HETATM   17  C   UNK N   1      25.780  24.429  -5.825  0.00  0.00     0.038 A 
HETATM   18  C   UNK N   1      25.811  25.262  -4.708  0.00  0.00     0.021 A 
HETATM   19  C   UNK N   1      25.847  26.651  -4.865  0.00  0.00     0.037 A 
HETATM   20  C   UNK N   1      25.903  27.199  -6.157  0.00  0.00     0.021 A 
HETATM   21  C   UNK N   1      25.893  26.362  -7.280  0.00  0.00     0.038 A 
BRANCH  19  22
HETATM   22  C   UNK N   1      25.786  27.521  -3.674  0.00  0.00     0.176 C 
HETATM   23  O   UNK N   1      25.970  27.055  -2.559  0.00  0.00    -0.646 OA
BRANCH  22  24
HETATM   24  O   UNK N   1      25.560  28.842  -3.811  0.00  0.00    -0.773 OA
HETATM   25  H   UNK N   1      25.077  29.276  -4.485  0.00  0.00     0.167 HD
ENDBRANCH  22  24
ENDBRANCH  19  22
ENDBRANCH  15  16
ENDBRANCH  14  15
ENDBRANCH   1  14
BRANCH   1  26
HETATM   26  O   UNK N   1      25.163  21.329  -9.952  0.00  0.00    -0.393 OA
HETATM   27  H   UNK N   1      25.153  20.473 -10.409  0.00  0.00     0.210 HD
ENDBRANCH   1  26
TORSDOF 10
ENDMDL
MODEL 8
REMARK VINA RESULT:      -5.5      2.097      5.207
REMARK  10 active torsions:
REMARK  status: ('A' for Active; 'I' for Inactive)
REMARK    1  A    between atoms: C_11  and  C_6 
REMARK    2  A    between atoms: C_15  and  C_6 
REMARK    3  A    between atoms: C_18  and  C_11 
REMARK    4  A    between atoms: C_18  and  C_14 
REMARK    5  A    between atoms: O_25  and  C_14 
REMARK    6  A    between atoms: C_20  and  C_16 
REMARK    7  A    between atoms: C_21  and  C_17 
REMARK    8  A    between atoms: O_22  and  C_18 
REMARK    9  A    between atoms: O_25  and  C_19 
REMARK   10  A    between atoms: O_23  and  C_20 
ROOT
HETATM    1  C   UNK N   1      27.658  20.860  -9.594  0.00  0.00     0.142 C 
ENDROOT
BRANCH   1   2
HETATM    2  C   UNK N   1      26.270  21.491  -9.616  0.00  0.00     0.038 C 
BRANCH   2   3
HETATM    3  C   UNK N   1      25.561  21.470  -8.269  0.00  0.00     0.041 C 
BRANCH   3   4
HETATM    4  C   UNK N   1      25.665  22.801  -7.598  0.00  0.00    -0.058 A 
HETATM    5  C   UNK N   1      25.700  22.888  -6.200  0.00  0.00     0.007 A 
HETATM    6  C   UNK N   1      25.787  24.133  -5.576  0.00  0.00     0.008 A 
HETATM    7  C   UNK N   1      25.830  25.314  -6.338  0.00  0.00    -0.051 A 
HETATM    8  C   UNK N   1      25.790  25.216  -7.742  0.00  0.00     0.008 A 
HETATM    9  C   UNK N   1      25.709  23.968  -8.365  0.00  0.00     0.007 A 
BRANCH   7  10
HETATM   10  C   UNK N   1      25.913  26.658  -5.640  0.00  0.00    -0.024 C 
HETATM   11  C   UNK N   1      26.410  26.472  -4.218  0.00  0.00     0.019 C 
HETATM   12  C   UNK N   1      26.853  27.630  -6.339  0.00  0.00     0.019 C 
HETATM   13  C   UNK N   1      24.536  27.299  -5.593  0.00  0.00     0.019 C 
ENDBRANCH   7  10
ENDBRANCH   3   4
ENDBRANCH   2   3
ENDBRANCH   1   2
BRANCH   1  14
HETATM   14  C   UNK N   1      28.213  20.612  -8.197  0.00  0.00     0.207 C 
BRANCH  14  15
HETATM   15  O   UNK N   1      29.167  21.539  -7.820  0.00  0.00    -0.349 OA
BRANCH  15  16
HETATM   16  C   UNK N   1      29.574  21.637  -6.532  0.00  0.00     0.068 A 
HETATM   17  C   UNK N   1      29.193  22.731  -5.736  0.00  0.00     0.038 A 
HETATM   18  C   UNK N   1      29.687  22.868  -4.440  0.00  0.00     0.021 A 
HETATM   19  C   UNK N   1      30.583  21.925  -3.924  0.00  0.00     0.037 A 
HETATM   20  C   UNK N   1      30.941  20.814  -4.704  0.00  0.00     0.021 A 
HETATM   21  C   UNK N   1      30.429  20.665  -5.999  0.00  0.00     0.038 A 
BRANCH  19  22
HETATM   22  C   UNK N   1      31.169  22.133  -2.585  0.00  0.00     0.176 C 
HETATM   23  O   UNK N   1      30.675  22.943  -1.814  0.00  0.00    -0.646 OA
BRANCH  22  24
HETATM   24  O   UNK N   1      32.232  21.405  -2.190  0.00  0.00    -0.773 OA
HETATM   25  H   UNK N   1      32.568  20.622  -2.577  0.00  0.00     0.167 HD
ENDBRANCH  22  24
ENDBRANCH  19  22
ENDBRANCH  15  16
ENDBRANCH  14  15
ENDBRANCH   1  14
BRANCH   1  26
HETATM   26  O   UNK N   1      28.562  21.562 -10.391  0.00  0.00    -0.393 OA
HETATM   27  H   UNK N   1      29.220  21.301 -11.054  0.00  0.00     0.210 HD
ENDBRANCH   1  26
TORSDOF 10
ENDMDL
MODEL 9
REMARK VINA RESULT:      -5.4      2.368      5.932
REMARK  10 active torsions:
REMARK  status: ('A' for Active; 'I' for Inactive)
REMARK    1  A    between atoms: C_11  and  C_6 
REMARK    2  A    between atoms: C_15  and  C_6 
REMARK    3  A    between atoms: C_18  and  C_11 
REMARK    4  A    between atoms: C_18  and  C_14 
REMARK    5  A    between atoms: O_25  and  C_14 
REMARK    6  A    between atoms: C_20  and  C_16 
REMARK    7  A    between atoms: C_21  and  C_17 
REMARK    8  A    between atoms: O_22  and  C_18 
REMARK    9  A    between atoms: O_25  and  C_19 
REMARK   10  A    between atoms: O_23  and  C_20 
ROOT
HETATM    1  C   UNK N   1      27.871  29.986  -3.656  0.00  0.00     0.142 C 
ENDROOT
BRANCH   1   2
HETATM    2  C   UNK N   1      29.173  29.474  -4.260  0.00  0.00     0.038 C 
BRANCH   2   3
HETATM    3  C   UNK N   1      28.979  28.535  -5.443  0.00  0.00     0.041 C 
BRANCH   3   4
HETATM    4  C   UNK N   1      29.486  27.168  -5.119  0.00  0.00    -0.058 A 
HETATM    5  C   UNK N   1      29.394  26.137  -6.064  0.00  0.00     0.007 A 
HETATM    6  C   UNK N   1      29.860  24.858  -5.755  0.00  0.00     0.008 A 
HETATM    7  C   UNK N   1      30.415  24.585  -4.493  0.00  0.00    -0.051 A 
HETATM    8  C   UNK N   1      30.499  25.626  -3.549  0.00  0.00     0.008 A 
HETATM    9  C   UNK N   1      30.038  26.908  -3.862  0.00  0.00     0.007 A 
BRANCH   7  10
HETATM   10  C   UNK N   1      30.905  23.185  -4.173  0.00  0.00    -0.024 C 
HETATM   11  C   UNK N   1      30.776  22.919  -2.684  0.00  0.00     0.019 C 
HETATM   12  C   UNK N   1      30.124  22.104  -4.909  0.00  0.00     0.019 C 
HETATM   13  C   UNK N   1      32.366  23.049  -4.567  0.00  0.00     0.019 C 
ENDBRANCH   7  10
ENDBRANCH   3   4
ENDBRANCH   2   3
ENDBRANCH   1   2
BRANCH   1  14
HETATM   14  C   UNK N   1      27.201  29.015  -2.693  0.00  0.00     0.207 C 
BRANCH  14  15
HETATM   15  O   UNK N   1      25.986  28.542  -3.155  0.00  0.00    -0.349 OA
BRANCH  15  16
HETATM   16  C   UNK N   1      25.910  27.395  -3.871  0.00  0.00     0.068 A 
HETATM   17  C   UNK N   1      26.425  26.191  -3.362  0.00  0.00     0.038 A 
HETATM   18  C   UNK N   1      26.422  25.035  -4.140  0.00  0.00     0.021 A 
HETATM   19  C   UNK N   1      25.920  25.067  -5.446  0.00  0.00     0.037 A 
HETATM   20  C   UNK N   1      25.376  26.260  -5.948  0.00  0.00     0.021 A 
HETATM   21  C   UNK N   1      25.360  27.416  -5.158  0.00  0.00     0.038 A 
BRANCH  19  22
HETATM   22  C   UNK N   1      26.008  23.859  -6.290  0.00  0.00     0.176 C 
HETATM   23  O   UNK N   1      26.901  23.043  -6.109  0.00  0.00    -0.646 OA
BRANCH  22  24
HETATM   24  O   UNK N   1      25.084  23.629  -7.243  0.00  0.00    -0.773 OA
HETATM   25  H   UNK N   1      25.225  23.335  -8.121  0.00  0.00     0.167 HD
ENDBRANCH  22  24
ENDBRANCH  19  22
ENDBRANCH  15  16
ENDBRANCH  14  15
ENDBRANCH   1  14
BRANCH   1  26
HETATM   26  O   UNK N   1      26.985  30.436  -4.635  0.00  0.00    -0.393 OA
HETATM   27  H   UNK N   1      26.207  30.050  -5.068  0.00  0.00     0.210 HD
ENDBRANCH   1  26
TORSDOF 10
ENDMDL
