REMARK  11 active torsions:
REMARK  status: ('A' for Active; 'I' for Inactive)
REMARK    1  A    between atoms: C_3  and  C_4 
REMARK    2  A    between atoms: C_4  and  C_5 
REMARK    3  A    between atoms: C_5  and  C_6 
REMARK    4  A    between atoms: C_7  and  C_8 
REMARK    5  A    between atoms: C_8  and  C_9 
REMARK    6  A    between atoms: C_9  and  C_10 
REMARK    7  A    between atoms: C_11  and  C_12 
REMARK    8  A    between atoms: C_12  and  N_13 
REMARK    9  A    between atoms: C_16  and  O_31 
REMARK   10  A    between atoms: C_18  and  O_30 
REMARK   11  A    between atoms: C_26  and  O_27 
ROOT
HETATM    1  N   UNK N   1       4.402   2.031   0.607  0.00  0.00    -0.308 N 
HETATM    2  C   UNK N   1       5.328   1.017   0.399  0.00  0.00     0.070 A 
HETATM    3  C   UNK N   1       6.700   1.338   0.569  0.00  0.00     0.068 A 
HETATM    4  C   UNK N   1       7.726   0.429   0.370  0.00  0.00     0.070 A 
HETATM    5  C   UNK N   1       7.427  -0.865   0.000  0.00  0.00     0.075 A 
HETATM    6  C   UNK N   1       6.102  -1.245  -0.165  0.00  0.00     0.097 A 
HETATM    7  C   UNK N   1       5.039  -0.329   0.027  0.00  0.00     0.093 A 
HETATM    8  N   UNK N   1       3.812  -0.837  -0.156  0.00  0.00    -0.349 N 
HETATM    9  C   UNK N   1       2.545  -0.407  -0.100  0.00  0.00     0.082 A 
HETATM   10  C   UNK N   1       2.163   0.920   0.204  0.00  0.00     0.062 A 
HETATM   11  C   UNK N   1       0.772   1.201   0.210  0.00  0.00     0.019 A 
HETATM   12  C   UNK N   1      -0.192   0.237  -0.059  0.00  0.00     0.004 A 
HETATM   13  C   UNK N   1       0.201  -1.056  -0.345  0.00  0.00     0.039 A 
HETATM   14  C   UNK N   1       1.552  -1.379  -0.368  0.00  0.00     0.093 A 
HETATM   15  C   UNK N   1       3.008   2.017   0.520  0.00  0.00     0.261 A 
HETATM   16  O   UNK N   1       2.427   3.073   0.756  0.00  0.00    -0.267 OA
HETATM   17  H   UNK N   1       3.853  -1.790  -0.399  0.00  0.00     0.166 HD
ENDROOT
BRANCH   1  18
HETATM   18  C   UNK N   1       4.940   3.351   1.034  0.00  0.00     0.160 C 
BRANCH  18  19
HETATM   19  C   UNK N   1       5.839   4.008   0.019  0.00  0.00    -0.004 C 
HETATM   20  C   UNK N   1       5.447   4.966  -0.828  0.00  0.00    -0.086 C 
HETATM   21  C   UNK N   1       6.455   5.549  -1.757  0.00  0.00     0.043 C 
BRANCH  20  22
HETATM   22  C   UNK N   1       4.029   5.450  -0.905  0.00  0.00     0.037 C 
BRANCH  22  23
HETATM   23  C   UNK N   1       3.584   6.095   0.397  0.00  0.00     0.031 C 
BRANCH  23  24
HETATM   24  C   UNK N   1       2.969   7.433   0.130  0.00  0.00    -0.024 C 
HETATM   25  C   UNK N   1       3.701   8.526  -0.121  0.00  0.00    -0.087 C 
HETATM   26  C   UNK N   1       5.199   8.477  -0.148  0.00  0.00     0.043 C 
BRANCH  25  27
HETATM   27  C   UNK N   1       3.005   9.819  -0.376  0.00  0.00     0.037 C 
BRANCH  27  28
HETATM   28  C   UNK N   1       3.379  10.827   0.693  0.00  0.00     0.031 C 
BRANCH  28  29
HETATM   29  C   UNK N   1       2.917  12.187   0.283  0.00  0.00    -0.024 C 
HETATM   30  C   UNK N   1       3.773  13.180   0.020  0.00  0.00    -0.091 C 
HETATM   31  C   UNK N   1       3.242  14.511  -0.382  0.00  0.00     0.042 C 
HETATM   32  C   UNK N   1       5.254  12.984   0.107  0.00  0.00     0.042 C 
ENDBRANCH  28  29
ENDBRANCH  27  28
ENDBRANCH  25  27
ENDBRANCH  23  24
ENDBRANCH  22  23
ENDBRANCH  20  22
ENDBRANCH  18  19
ENDBRANCH   1  18
BRANCH   4  33
HETATM   33  O   UNK N   1       9.004   0.809   0.531  0.00  0.00    -0.361 OA
HETATM   34  H   UNK N   1       9.679   0.169   0.643  0.00  0.00     0.217 HD
ENDBRANCH   4  33
BRANCH   6  35
HETATM   35  O   UNK N   1       5.839  -2.518  -0.517  0.00  0.00    -0.358 OA
HETATM   36  H   UNK N   1       4.981  -2.802  -0.761  0.00  0.00     0.217 HD
ENDBRANCH   6  35
BRANCH  14  37
HETATM   37  O   UNK N   1       1.908  -2.647  -0.648  0.00  0.00    -0.358 OA
HETATM   38  H   UNK N   1       1.268  -3.302  -0.842  0.00  0.00     0.217 HD
ENDBRANCH  14  37
TORSDOF 11
