REMARK  6 active torsions:
REMARK  status: ('A' for Active; 'I' for Inactive)
REMARK    1  A    between atoms: C_8  and  C_6 
REMARK    2  A    between atoms: O_18  and  C_7 
REMARK    3  A    between atoms: N_15  and  C_9 
REMARK    4  A    between atoms: N_17  and  C_10 
REMARK    5  A    between atoms: S_19  and  C_10 
REMARK    6  A    between atoms: N_17  and  N_13 
ROOT
HETATM    1  C   UNK N   1       2.323   0.065   0.426  0.00  0.00     0.015 A 
HETATM    2  C   UNK N   1       0.066   0.014  -0.441  0.00  0.00     0.015 A 
HETATM    3  C   UNK N   1       2.263   1.470   0.456  0.00  0.00     0.030 A 
HETATM    4  C   UNK N   1       0.007   1.393  -0.409  0.00  0.00     0.030 A 
HETATM    5  C   UNK N   1       1.208  -0.665  -0.008  0.00  0.00    -0.019 A 
HETATM    6  C   UNK N   1       1.089   2.139   0.065  0.00  0.00     0.033 A 
ENDROOT
BRANCH   5   7
HETATM    7  C   UNK N   1       1.139  -2.133   0.082  0.00  0.00     0.118 C 
HETATM    8  N   UNK N   1      -0.000  -2.673  -0.160  0.00  0.00    -0.309 N 
ATOM      9  HN  UNK N   1      -0.756  -2.074  -0.493  1.00  0.00     0.186 HD
BRANCH   8  10
HETATM   10  N   UNK N   1      -0.259  -4.008   0.004  0.00  0.00    -0.281 N 
HETATM   11  H   UNK N   1       0.473  -4.654   0.132  0.00  0.00     0.189 HD
BRANCH  10  12
HETATM   12  C   UNK N   1      -1.611  -4.432  -0.015  0.00  0.00     0.149 C 
HETATM   13  N   UNK N   1      -1.896  -5.669   0.153  0.00  0.00    -0.379 N 
HETATM   14  H   UNK N   1      -2.830  -5.954   0.282  0.00  0.00     0.158 HD
ATOM     15  HN  UNK N   1      -1.150  -6.364   0.153  1.00  0.00     0.158 HD
BRANCH  12  16
HETATM   16  S   UNK N   1      -2.941  -3.228  -0.169  0.00  0.00    -0.106 SA
HETATM   17  H   UNK N   1      -2.655  -1.903  -0.284  0.00  0.00     0.110 HD
ENDBRANCH  12  16
ENDBRANCH  10  12
ENDBRANCH   8  10
ENDBRANCH   5   7
BRANCH   6  18
HETATM   18  N   UNK N   1       1.004   3.557   0.193  0.00  0.00    -0.341 N 
HETATM   19  C   UNK N   1      -0.096   4.245   0.152  0.00  0.00     0.111 C 
HETATM   20  C   UNK N   1      -0.041   5.723   0.294  0.00  0.00     0.097 C 
ATOM     21  HN  UNK N   1       1.875   4.071   0.327  1.00  0.00     0.167 HD
BRANCH  19  22
HETATM   22  O   UNK N   1      -1.303   3.652   0.020  0.00  0.00    -0.350 OA
HETATM   23  H   UNK N   1      -2.077   4.172  -0.072  0.00  0.00     0.219 HD
ENDBRANCH  19  22
ENDBRANCH   6  18
TORSDOF 6
