MODEL 1
REMARK VINA RESULT:      -8.5      0.000      0.000
REMARK  12 active torsions:
REMARK  status: ('A' for Active; 'I' for Inactive)
REMARK    1  A    between atoms: C_3  and  C_14 
REMARK    2  A    between atoms: C_6  and  C_8 
REMARK    3  A    between atoms: C_14  and  O_15 
REMARK    4  A    between atoms: O_15  and  C_16 
REMARK    5  A    between atoms: C_19  and  C_22 
REMARK    6  A    between atoms: C_22  and  O_23 
REMARK    7  A    between atoms: O_23  and  N_24 
REMARK    8  A    between atoms: C_26  and  C_27 
REMARK    9  A    between atoms: C_26  and  C_32 
REMARK   10  A    between atoms: C_27  and  C_28 
REMARK   11  A    between atoms: C_28  and  C_29 
REMARK   12  A    between atoms: C_29  and  O_31 
ROOT
HETATM    1  C   UNK N   1      34.848  14.872  10.999  0.00  0.00     0.069 A 
HETATM    2  C   UNK N   1      35.184  16.236  11.025  0.00  0.00     0.037 A 
HETATM    3  C   UNK N   1      34.995  17.021   9.890  0.00  0.00     0.012 A 
HETATM    4  C   UNK N   1      34.470  16.451   8.723  0.00  0.00    -0.032 A 
HETATM    5  C   UNK N   1      34.106  15.104   8.704  0.00  0.00     0.012 A 
HETATM    6  C   UNK N   1      34.293  14.318   9.842  0.00  0.00     0.037 A 
ENDROOT
BRANCH   4   7
HETATM    7  C   UNK N   1      34.387  17.253   7.462  0.00  0.00     0.239 C 
BRANCH   7   8
HETATM    8  O   UNK N   1      33.371  18.198   7.498  0.00  0.00    -0.276 OA
BRANCH   8   9
HETATM    9  N   UNK N   1      32.113  17.868   7.730  0.00  0.00    -0.270 N 
HETATM   10  C   UNK N   1      31.381  17.197   6.903  0.00  0.00     0.043 C 
ATOM     11  HN  UNK N   1      31.695  18.160   8.613  1.00  0.00     0.194 HD
BRANCH  10  12
HETATM   12  C   UNK N   1      29.973  16.823   7.323  0.00  0.00     0.070 C 
BRANCH  12  13
HETATM   13  C   UNK N   1      29.078  18.043   7.569  0.00  0.00     0.116 C 
BRANCH  13  14
HETATM   14  C   UNK N   1      28.771  18.287   9.018  0.00  0.00     0.139 C 
HETATM   15  O   UNK N   1      29.640  18.662   9.792  0.00  0.00    -0.650 OA
BRANCH  14  16
HETATM   16  O   UNK N   1      27.517  18.095   9.468  0.00  0.00    -0.776 OA
HETATM   17  H   UNK N   1      26.799  18.092   8.866  0.00  0.00     0.167 HD
ENDBRANCH  14  16
ENDBRANCH  13  14
ENDBRANCH  12  13
ENDBRANCH  10  12
BRANCH  10  18
HETATM   18  C   UNK N   1      31.886  16.737   5.571  0.00  0.00    -0.012 A 
HETATM   19  C   UNK N   1      32.247  15.392   5.389  0.00  0.00     0.013 A 
HETATM   20  C   UNK N   1      32.731  14.946   4.157  0.00  0.00     0.001 A 
HETATM   21  C   UNK N   1      32.858  15.837   3.089  0.00  0.00     0.000 A 
HETATM   22  C   UNK N   1      32.498  17.176   3.253  0.00  0.00     0.001 A 
HETATM   23  C   UNK N   1      32.017  17.620   4.485  0.00  0.00     0.013 A 
ENDBRANCH  10  18
ENDBRANCH   8   9
ENDBRANCH   7   8
ENDBRANCH   4   7
BRANCH   1  24
HETATM   24  O   UNK N   1      35.056  14.073  12.065  0.00  0.00    -0.345 OA
BRANCH  24  25
HETATM   25  C   UNK N   1      35.342  12.732  11.968  0.00  0.00     0.235 C 
BRANCH  25  26
HETATM   26  C   UNK N   1      35.043  12.121  13.286  0.00  0.00     0.065 A 
HETATM   27  C   UNK N   1      34.324  10.977  13.544  0.00  0.00     0.076 A 
HETATM   28  C   UNK N   1      33.696  10.063  12.553  0.00  0.00     0.079 C 
HETATM   29  O   UNK N   1      34.271  10.827  14.846  0.00  0.00    -0.296 OA
HETATM   30  C   UNK N   1      34.924  11.836  15.386  0.00  0.00     0.158 A 
HETATM   31  N   UNK N   1      35.426  12.667  14.448  0.00  0.00    -0.336 N 
ATOM     32  HN  UNK N   1      35.972  13.516  14.592  1.00  0.00     0.168 HD
BRANCH  30  33
HETATM   33  C   UNK N   1      35.071  12.068  16.825  0.00  0.00     0.015 A 
HETATM   34  C   UNK N   1      35.034  13.376  17.328  0.00  0.00     0.016 A 
HETATM   35  C   UNK N   1      35.157  13.605  18.700  0.00  0.00     0.001 A 
HETATM   36  C   UNK N   1      35.319  12.528  19.575  0.00  0.00     0.000 A 
HETATM   37  C   UNK N   1      35.356  11.222  19.077  0.00  0.00     0.001 A 
HETATM   38  C   UNK N   1      35.230  10.991  17.704  0.00  0.00     0.016 A 
ENDBRANCH  30  33
ENDBRANCH  25  26
ENDBRANCH  24  25
ENDBRANCH   1  24
TORSDOF 12
ENDMDL
MODEL 2
REMARK VINA RESULT:      -8.4      5.960     11.836
REMARK  12 active torsions:
REMARK  status: ('A' for Active; 'I' for Inactive)
REMARK    1  A    between atoms: C_3  and  C_14 
REMARK    2  A    between atoms: C_6  and  C_8 
REMARK    3  A    between atoms: C_14  and  O_15 
REMARK    4  A    between atoms: O_15  and  C_16 
REMARK    5  A    between atoms: C_19  and  C_22 
REMARK    6  A    between atoms: C_22  and  O_23 
REMARK    7  A    between atoms: O_23  and  N_24 
REMARK    8  A    between atoms: C_26  and  C_27 
REMARK    9  A    between atoms: C_26  and  C_32 
REMARK   10  A    between atoms: C_27  and  C_28 
REMARK   11  A    between atoms: C_28  and  C_29 
REMARK   12  A    between atoms: C_29  and  O_31 
ROOT
HETATM    1  C   UNK N   1      26.440  19.377   5.268  0.00  0.00     0.069 A 
HETATM    2  C   UNK N   1      27.030  18.113   5.427  0.00  0.00     0.037 A 
HETATM    3  C   UNK N   1      27.908  17.883   6.485  0.00  0.00     0.012 A 
HETATM    4  C   UNK N   1      28.201  18.913   7.389  0.00  0.00    -0.032 A 
HETATM    5  C   UNK N   1      27.591  20.160   7.250  0.00  0.00     0.012 A 
HETATM    6  C   UNK N   1      26.710  20.389   6.193  0.00  0.00     0.037 A 
ENDROOT
BRANCH   4   7
HETATM    7  C   UNK N   1      29.241  18.716   8.448  0.00  0.00     0.239 C 
BRANCH   7   8
HETATM    8  O   UNK N   1      29.587  17.382   8.612  0.00  0.00    -0.276 OA
BRANCH   8   9
HETATM    9  N   UNK N   1      30.835  17.001   8.819  0.00  0.00    -0.270 N 
HETATM   10  C   UNK N   1      31.608  16.531   7.895  0.00  0.00     0.043 C 
ATOM     11  HN  UNK N   1      31.211  17.082   9.764  1.00  0.00     0.194 HD
BRANCH  10  12
HETATM   12  C   UNK N   1      33.042  16.198   8.254  0.00  0.00     0.070 C 
BRANCH  12  13
HETATM   13  C   UNK N   1      33.767  17.350   8.959  0.00  0.00     0.116 C 
BRANCH  13  14
HETATM   14  C   UNK N   1      34.546  18.235   8.030  0.00  0.00     0.139 C 
HETATM   15  O   UNK N   1      34.519  18.059   6.821  0.00  0.00    -0.650 OA
BRANCH  14  16
HETATM   16  O   UNK N   1      35.280  19.241   8.539  0.00  0.00    -0.776 OA
HETATM   17  H   UNK N   1      36.064  19.516   8.105  0.00  0.00     0.167 HD
ENDBRANCH  14  16
ENDBRANCH  13  14
ENDBRANCH  12  13
ENDBRANCH  10  12
BRANCH  10  18
HETATM   18  C   UNK N   1      31.153  16.350   6.481  0.00  0.00    -0.012 A 
HETATM   19  C   UNK N   1      31.418  17.349   5.531  0.00  0.00     0.013 A 
HETATM   20  C   UNK N   1      30.992  17.204   4.208  0.00  0.00     0.001 A 
HETATM   21  C   UNK N   1      30.297  16.057   3.817  0.00  0.00     0.000 A 
HETATM   22  C   UNK N   1      30.031  15.052   4.749  0.00  0.00     0.001 A 
HETATM   23  C   UNK N   1      30.455  15.200   6.071  0.00  0.00     0.013 A 
ENDBRANCH  10  18
ENDBRANCH   8   9
ENDBRANCH   7   8
ENDBRANCH   4   7
BRANCH   1  24
HETATM   24  O   UNK N   1      25.619  19.647   4.233  0.00  0.00    -0.345 OA
BRANCH  24  25
HETATM   25  C   UNK N   1      24.942  18.682   3.525  0.00  0.00     0.235 C 
BRANCH  25  26
HETATM   26  C   UNK N   1      23.637  18.475   4.199  0.00  0.00     0.065 A 
HETATM   27  C   UNK N   1      22.443  19.108   3.942  0.00  0.00     0.076 A 
HETATM   28  C   UNK N   1      22.173  20.137   2.903  0.00  0.00     0.079 C 
HETATM   29  O   UNK N   1      21.560  18.652   4.798  0.00  0.00    -0.296 OA
HETATM   30  C   UNK N   1      22.172  17.771   5.564  0.00  0.00     0.158 A 
HETATM   31  N   UNK N   1      23.470  17.627   5.223  0.00  0.00    -0.336 N 
ATOM     32  HN  UNK N   1      24.164  17.013   5.647  1.00  0.00     0.168 HD
BRANCH  30  33
HETATM   33  C   UNK N   1      21.551  17.051   6.678  0.00  0.00     0.015 A 
HETATM   34  C   UNK N   1      20.551  17.673   7.440  0.00  0.00     0.016 A 
HETATM   35  C   UNK N   1      19.942  16.987   8.493  0.00  0.00     0.001 A 
HETATM   36  C   UNK N   1      20.330  15.678   8.790  0.00  0.00     0.000 A 
HETATM   37  C   UNK N   1      21.327  15.055   8.032  0.00  0.00     0.001 A 
HETATM   38  C   UNK N   1      21.934  15.739   6.976  0.00  0.00     0.016 A 
ENDBRANCH  30  33
ENDBRANCH  25  26
ENDBRANCH  24  25
ENDBRANCH   1  24
TORSDOF 12
ENDMDL
MODEL 3
REMARK VINA RESULT:      -8.3     10.006     15.358
REMARK  12 active torsions:
REMARK  status: ('A' for Active; 'I' for Inactive)
REMARK    1  A    between atoms: C_3  and  C_14 
REMARK    2  A    between atoms: C_6  and  C_8 
REMARK    3  A    between atoms: C_14  and  O_15 
REMARK    4  A    between atoms: O_15  and  C_16 
REMARK    5  A    between atoms: C_19  and  C_22 
REMARK    6  A    between atoms: C_22  and  O_23 
REMARK    7  A    between atoms: O_23  and  N_24 
REMARK    8  A    between atoms: C_26  and  C_27 
REMARK    9  A    between atoms: C_26  and  C_32 
REMARK   10  A    between atoms: C_27  and  C_28 
REMARK   11  A    between atoms: C_28  and  C_29 
REMARK   12  A    between atoms: C_29  and  O_31 
ROOT
HETATM    1  C   UNK N   1      20.017  16.265   3.331  0.00  0.00     0.069 A 
HETATM    2  C   UNK N   1      19.081  15.874   4.302  0.00  0.00     0.037 A 
HETATM    3  C   UNK N   1      19.176  14.615   4.893  0.00  0.00     0.012 A 
HETATM    4  C   UNK N   1      20.204  13.741   4.517  0.00  0.00    -0.032 A 
HETATM    5  C   UNK N   1      21.154  14.139   3.576  0.00  0.00     0.012 A 
HETATM    6  C   UNK N   1      21.061  15.401   2.987  0.00  0.00     0.037 A 
ENDROOT
BRANCH   4   7
HETATM    7  C   UNK N   1      20.237  12.341   5.048  0.00  0.00     0.239 C 
BRANCH   7   8
HETATM    8  O   UNK N   1      20.321  12.299   6.433  0.00  0.00    -0.276 OA
BRANCH   8   9
HETATM    9  N   UNK N   1      21.474  12.162   7.063  0.00  0.00    -0.270 N 
HETATM   10  C   UNK N   1      22.120  13.142   7.604  0.00  0.00     0.043 C 
ATOM     11  HN  UNK N   1      21.879  11.228   7.126  1.00  0.00     0.194 HD
BRANCH  10  12
HETATM   12  C   UNK N   1      23.398  12.836   8.358  0.00  0.00     0.070 C 
BRANCH  12  13
HETATM   13  C   UNK N   1      23.351  13.284   9.824  0.00  0.00     0.116 C 
BRANCH  13  14
HETATM   14  C   UNK N   1      23.829  12.240  10.792  0.00  0.00     0.139 C 
HETATM   15  O   UNK N   1      23.157  11.249  11.032  0.00  0.00    -0.650 OA
BRANCH  14  16
HETATM   16  O   UNK N   1      25.020  12.400  11.397  0.00  0.00    -0.776 OA
HETATM   17  H   UNK N   1      25.349  11.734  11.969  0.00  0.00     0.167 HD
ENDBRANCH  14  16
ENDBRANCH  13  14
ENDBRANCH  12  13
ENDBRANCH  10  12
BRANCH  10  18
HETATM   18  C   UNK N   1      21.628  14.555   7.553  0.00  0.00    -0.012 A 
HETATM   19  C   UNK N   1      22.284  15.491   6.736  0.00  0.00     0.013 A 
HETATM   20  C   UNK N   1      21.847  16.817   6.683  0.00  0.00     0.001 A 
HETATM   21  C   UNK N   1      20.749  17.225   7.443  0.00  0.00     0.000 A 
HETATM   22  C   UNK N   1      20.083  16.304   8.255  0.00  0.00     0.001 A 
HETATM   23  C   UNK N   1      20.522  14.981   8.309  0.00  0.00     0.013 A 
ENDBRANCH  10  18
ENDBRANCH   8   9
ENDBRANCH   7   8
ENDBRANCH   4   7
BRANCH   1  24
HETATM   24  O   UNK N   1      19.932  17.458   2.709  0.00  0.00    -0.345 OA
BRANCH  24  25
HETATM   25  C   UNK N   1      19.896  18.662   3.372  0.00  0.00     0.235 C 
BRANCH  25  26
HETATM   26  C   UNK N   1      21.211  19.317   3.169  0.00  0.00     0.065 A 
HETATM   27  C   UNK N   1      21.527  20.325   2.288  0.00  0.00     0.076 A 
HETATM   28  C   UNK N   1      20.610  21.018   1.344  0.00  0.00     0.079 C 
HETATM   29  O   UNK N   1      22.808  20.573   2.411  0.00  0.00    -0.296 OA
HETATM   30  C   UNK N   1      23.282  19.753   3.327  0.00  0.00     0.158 A 
HETATM   31  N   UNK N   1      22.318  18.953   3.830  0.00  0.00    -0.336 N 
ATOM     32  HN  UNK N   1      22.412  18.236   4.549  1.00  0.00     0.168 HD
BRANCH  30  33
HETATM   33  C   UNK N   1      24.685  19.676   3.741  0.00  0.00     0.015 A 
HETATM   34  C   UNK N   1      25.652  20.445   3.079  0.00  0.00     0.016 A 
HETATM   35  C   UNK N   1      26.989  20.389   3.478  0.00  0.00     0.001 A 
HETATM   36  C   UNK N   1      27.366  19.564   4.540  0.00  0.00     0.000 A 
HETATM   37  C   UNK N   1      26.404  18.795   5.204  0.00  0.00     0.001 A 
HETATM   38  C   UNK N   1      25.065  18.853   4.808  0.00  0.00     0.016 A 
ENDBRANCH  30  33
ENDBRANCH  25  26
ENDBRANCH  24  25
ENDBRANCH   1  24
TORSDOF 12
ENDMDL
MODEL 4
REMARK VINA RESULT:      -8.2      9.989     13.525
REMARK  12 active torsions:
REMARK  status: ('A' for Active; 'I' for Inactive)
REMARK    1  A    between atoms: C_3  and  C_14 
REMARK    2  A    between atoms: C_6  and  C_8 
REMARK    3  A    between atoms: C_14  and  O_15 
REMARK    4  A    between atoms: O_15  and  C_16 
REMARK    5  A    between atoms: C_19  and  C_22 
REMARK    6  A    between atoms: C_22  and  O_23 
REMARK    7  A    between atoms: O_23  and  N_24 
REMARK    8  A    between atoms: C_26  and  C_27 
REMARK    9  A    between atoms: C_26  and  C_32 
REMARK   10  A    between atoms: C_27  and  C_28 
REMARK   11  A    between atoms: C_28  and  C_29 
REMARK   12  A    between atoms: C_29  and  O_31 
ROOT
HETATM    1  C   UNK N   1      23.020  13.840   6.554  0.00  0.00     0.069 A 
HETATM    2  C   UNK N   1      22.452  14.995   7.115  0.00  0.00     0.037 A 
HETATM    3  C   UNK N   1      21.175  15.400   6.730  0.00  0.00     0.012 A 
HETATM    4  C   UNK N   1      20.459  14.654   5.784  0.00  0.00    -0.032 A 
HETATM    5  C   UNK N   1      21.008  13.489   5.250  0.00  0.00     0.012 A 
HETATM    6  C   UNK N   1      22.285  13.082   5.637  0.00  0.00     0.037 A 
ENDROOT
BRANCH   4   7
HETATM    7  C   UNK N   1      19.144  15.153   5.268  0.00  0.00     0.239 C 
BRANCH   7   8
HETATM    8  O   UNK N   1      19.149  15.341   3.893  0.00  0.00    -0.276 OA
BRANCH   8   9
HETATM    9  N   UNK N   1      19.307  16.535   3.349  0.00  0.00    -0.270 N 
HETATM   10  C   UNK N   1      20.312  16.859   2.604  0.00  0.00     0.043 C 
ATOM     11  HN  UNK N   1      18.593  17.242   3.526  1.00  0.00     0.194 HD
BRANCH  10  12
HETATM   12  C   UNK N   1      20.335  18.242   1.984  0.00  0.00     0.070 C 
BRANCH  12  13
HETATM   13  C   UNK N   1      21.121  19.260   2.818  0.00  0.00     0.116 C 
BRANCH  13  14
HETATM   14  C   UNK N   1      21.469  20.516   2.072  0.00  0.00     0.139 C 
HETATM   15  O   UNK N   1      21.442  20.551   0.851  0.00  0.00    -0.650 OA
BRANCH  14  16
HETATM   16  O   UNK N   1      21.808  21.619   2.763  0.00  0.00    -0.776 OA
HETATM   17  H   UNK N   1      22.018  21.557   3.674  0.00  0.00     0.167 HD
ENDBRANCH  14  16
ENDBRANCH  13  14
ENDBRANCH  12  13
ENDBRANCH  10  12
BRANCH  10  18
HETATM   18  C   UNK N   1      21.425  15.908   2.296  0.00  0.00    -0.012 A 
HETATM   19  C   UNK N   1      22.573  15.893   3.106  0.00  0.00     0.013 A 
HETATM   20  C   UNK N   1      23.628  15.020   2.828  0.00  0.00     0.001 A 
HETATM   21  C   UNK N   1      23.549  14.148   1.741  0.00  0.00     0.000 A 
HETATM   22  C   UNK N   1      22.412  14.147   0.930  0.00  0.00     0.001 A 
HETATM   23  C   UNK N   1      21.361  15.021   1.207  0.00  0.00     0.013 A 
ENDBRANCH  10  18
ENDBRANCH   8   9
ENDBRANCH   7   8
ENDBRANCH   4   7
BRANCH   1  24
HETATM   24  O   UNK N   1      24.268  13.441   6.872  0.00  0.00    -0.345 OA
BRANCH  24  25
HETATM   25  C   UNK N   1      25.239  14.288   7.352  0.00  0.00     0.235 C 
BRANCH  25  26
HETATM   26  C   UNK N   1      25.757  15.065   6.199  0.00  0.00     0.065 A 
HETATM   27  C   UNK N   1      26.616  14.642   5.212  0.00  0.00     0.076 A 
HETATM   28  C   UNK N   1      27.210  13.288   5.052  0.00  0.00     0.079 C 
HETATM   29  O   UNK N   1      26.842  15.661   4.419  0.00  0.00    -0.296 OA
HETATM   30  C   UNK N   1      26.158  16.685   4.888  0.00  0.00     0.158 A 
HETATM   31  N   UNK N   1      25.463  16.356   5.998  0.00  0.00    -0.336 N 
ATOM     32  HN  UNK N   1      24.854  16.955   6.555  1.00  0.00     0.168 HD
BRANCH  30  33
HETATM   33  C   UNK N   1      26.163  18.033   4.315  0.00  0.00     0.015 A 
HETATM   34  C   UNK N   1      27.337  18.798   4.340  0.00  0.00     0.016 A 
HETATM   35  C   UNK N   1      27.355  20.078   3.781  0.00  0.00     0.001 A 
HETATM   36  C   UNK N   1      26.199  20.599   3.196  0.00  0.00     0.000 A 
HETATM   37  C   UNK N   1      25.025  19.839   3.169  0.00  0.00     0.001 A 
HETATM   38  C   UNK N   1      25.007  18.557   3.725  0.00  0.00     0.016 A 
ENDBRANCH  30  33
ENDBRANCH  25  26
ENDBRANCH  24  25
ENDBRANCH   1  24
TORSDOF 12
ENDMDL
MODEL 5
REMARK VINA RESULT:      -8.1      9.611     14.708
REMARK  12 active torsions:
REMARK  status: ('A' for Active; 'I' for Inactive)
REMARK    1  A    between atoms: C_3  and  C_14 
REMARK    2  A    between atoms: C_6  and  C_8 
REMARK    3  A    between atoms: C_14  and  O_15 
REMARK    4  A    between atoms: O_15  and  C_16 
REMARK    5  A    between atoms: C_19  and  C_22 
REMARK    6  A    between atoms: C_22  and  O_23 
REMARK    7  A    between atoms: O_23  and  N_24 
REMARK    8  A    between atoms: C_26  and  C_27 
REMARK    9  A    between atoms: C_26  and  C_32 
REMARK   10  A    between atoms: C_27  and  C_28 
REMARK   11  A    between atoms: C_28  and  C_29 
REMARK   12  A    between atoms: C_29  and  O_31 
ROOT
HETATM    1  C   UNK N   1      20.307  17.103   5.262  0.00  0.00     0.069 A 
HETATM    2  C   UNK N   1      20.906  17.743   6.359  0.00  0.00     0.037 A 
HETATM    3  C   UNK N   1      20.836  17.165   7.625  0.00  0.00     0.012 A 
HETATM    4  C   UNK N   1      20.166  15.947   7.803  0.00  0.00    -0.032 A 
HETATM    5  C   UNK N   1      19.598  15.294   6.709  0.00  0.00     0.012 A 
HETATM    6  C   UNK N   1      19.671  15.871   5.441  0.00  0.00     0.037 A 
ENDROOT
BRANCH   4   7
HETATM    7  C   UNK N   1      19.972  15.387   9.178  0.00  0.00     0.239 C 
BRANCH   7   8
HETATM    8  O   UNK N   1      19.825  14.006   9.174  0.00  0.00    -0.276 OA
BRANCH   8   9
HETATM    9  N   UNK N   1      20.657  13.211   9.822  0.00  0.00    -0.270 N 
HETATM   10  C   UNK N   1      21.663  12.616   9.267  0.00  0.00     0.043 C 
ATOM     11  HN  UNK N   1      20.498  13.056  10.817  1.00  0.00     0.194 HD
BRANCH  10  12
HETATM   12  C   UNK N   1      22.582  11.786  10.140  0.00  0.00     0.070 C 
BRANCH  12  13
HETATM   13  C   UNK N   1      22.358  12.021  11.639  0.00  0.00     0.116 C 
BRANCH  13  14
HETATM   14  C   UNK N   1      23.620  11.988  12.452  0.00  0.00     0.139 C 
HETATM   15  O   UNK N   1      24.717  12.003  11.914  0.00  0.00    -0.650 OA
BRANCH  14  16
HETATM   16  O   UNK N   1      23.538  11.947  13.795  0.00  0.00    -0.776 OA
HETATM   17  H   UNK N   1      24.318  11.968  14.314  0.00  0.00     0.167 HD
ENDBRANCH  14  16
ENDBRANCH  13  14
ENDBRANCH  12  13
ENDBRANCH  10  12
BRANCH  10  18
HETATM   18  C   UNK N   1      21.977  12.756   7.811  0.00  0.00    -0.012 A 
HETATM   19  C   UNK N   1      22.932  13.696   7.391  0.00  0.00     0.013 A 
HETATM   20  C   UNK N   1      23.231  13.849   6.035  0.00  0.00     0.001 A 
HETATM   21  C   UNK N   1      22.582  13.063   5.081  0.00  0.00     0.000 A 
HETATM   22  C   UNK N   1      21.634  12.120   5.483  0.00  0.00     0.001 A 
HETATM   23  C   UNK N   1      21.334  11.971   6.837  0.00  0.00     0.013 A 
ENDBRANCH  10  18
ENDBRANCH   8   9
ENDBRANCH   7   8
ENDBRANCH   4   7
BRANCH   1  24
HETATM   24  O   UNK N   1      20.320  17.653   4.031  0.00  0.00    -0.345 OA
BRANCH  24  25
HETATM   25  C   UNK N   1      21.329  17.452   3.117  0.00  0.00     0.235 C 
BRANCH  25  26
HETATM   26  C   UNK N   1      22.346  18.507   3.345  0.00  0.00     0.065 A 
HETATM   27  C   UNK N   1      22.259  19.845   3.040  0.00  0.00     0.076 A 
HETATM   28  C   UNK N   1      21.104  20.559   2.431  0.00  0.00     0.079 C 
HETATM   29  O   UNK N   1      23.398  20.403   3.371  0.00  0.00    -0.296 OA
HETATM   30  C   UNK N   1      24.173  19.456   3.861  0.00  0.00     0.158 A 
HETATM   31  N   UNK N   1      23.555  18.256   3.866  0.00  0.00    -0.336 N 
ATOM     32  HN  UNK N   1      23.924  17.363   4.191  1.00  0.00     0.168 HD
BRANCH  30  33
HETATM   33  C   UNK N   1      25.552  19.650   4.316  0.00  0.00     0.015 A 
HETATM   34  C   UNK N   1      26.566  18.801   3.851  0.00  0.00     0.016 A 
HETATM   35  C   UNK N   1      27.886  18.989   4.267  0.00  0.00     0.001 A 
HETATM   36  C   UNK N   1      28.197  20.026   5.151  0.00  0.00     0.000 A 
HETATM   37  C   UNK N   1      27.188  20.875   5.617  0.00  0.00     0.001 A 
HETATM   38  C   UNK N   1      25.868  20.689   5.198  0.00  0.00     0.016 A 
ENDBRANCH  30  33
ENDBRANCH  25  26
ENDBRANCH  24  25
ENDBRANCH   1  24
TORSDOF 12
ENDMDL
MODEL 6
REMARK VINA RESULT:      -8.1      1.489      3.547
REMARK  12 active torsions:
REMARK  status: ('A' for Active; 'I' for Inactive)
REMARK    1  A    between atoms: C_3  and  C_14 
REMARK    2  A    between atoms: C_6  and  C_8 
REMARK    3  A    between atoms: C_14  and  O_15 
REMARK    4  A    between atoms: O_15  and  C_16 
REMARK    5  A    between atoms: C_19  and  C_22 
REMARK    6  A    between atoms: C_22  and  O_23 
REMARK    7  A    between atoms: O_23  and  N_24 
REMARK    8  A    between atoms: C_26  and  C_27 
REMARK    9  A    between atoms: C_26  and  C_32 
REMARK   10  A    between atoms: C_27  and  C_28 
REMARK   11  A    between atoms: C_28  and  C_29 
REMARK   12  A    between atoms: C_29  and  O_31 
ROOT
HETATM    1  C   UNK N   1      34.503  14.947  11.247  0.00  0.00     0.069 A 
HETATM    2  C   UNK N   1      35.298  16.103  11.309  0.00  0.00     0.037 A 
HETATM    3  C   UNK N   1      35.226  17.052  10.291  0.00  0.00     0.012 A 
HETATM    4  C   UNK N   1      34.361  16.852   9.207  0.00  0.00    -0.032 A 
HETATM    5  C   UNK N   1      33.547  15.721   9.159  0.00  0.00     0.012 A 
HETATM    6  C   UNK N   1      33.616  14.772  10.180  0.00  0.00     0.037 A 
ENDROOT
BRANCH   4   7
HETATM    7  C   UNK N   1      34.374  17.799   8.046  0.00  0.00     0.239 C 
BRANCH   7   8
HETATM    8  O   UNK N   1      33.114  17.982   7.494  0.00  0.00    -0.276 OA
BRANCH   8   9
HETATM    9  N   UNK N   1      32.677  17.251   6.484  0.00  0.00    -0.270 N 
HETATM   10  C   UNK N   1      31.438  16.923   6.315  0.00  0.00     0.043 C 
ATOM     11  HN  UNK N   1      33.357  16.928   5.796  1.00  0.00     0.194 HD
BRANCH  10  12
HETATM   12  C   UNK N   1      31.061  16.141   5.073  0.00  0.00     0.070 C 
BRANCH  12  13
HETATM   13  C   UNK N   1      32.278  15.588   4.321  0.00  0.00     0.116 C 
BRANCH  13  14
HETATM   14  C   UNK N   1      32.580  16.314   3.041  0.00  0.00     0.139 C 
HETATM   15  O   UNK N   1      33.536  15.999   2.349  0.00  0.00    -0.650 OA
BRANCH  14  16
HETATM   16  O   UNK N   1      31.778  17.321   2.651  0.00  0.00    -0.776 OA
HETATM   17  H   UNK N   1      31.163  17.190   1.955  0.00  0.00     0.167 HD
ENDBRANCH  14  16
ENDBRANCH  13  14
ENDBRANCH  12  13
ENDBRANCH  10  12
BRANCH  10  18
HETATM   18  C   UNK N   1      30.362  17.326   7.273  0.00  0.00    -0.012 A 
HETATM   19  C   UNK N   1      29.223  17.999   6.799  0.00  0.00     0.013 A 
HETATM   20  C   UNK N   1      28.212  18.393   7.679  0.00  0.00     0.001 A 
HETATM   21  C   UNK N   1      28.324  18.117   9.044  0.00  0.00     0.000 A 
HETATM   22  C   UNK N   1      29.446  17.444   9.529  0.00  0.00     0.001 A 
HETATM   23  C   UNK N   1      30.457  17.053   8.649  0.00  0.00     0.013 A 
ENDBRANCH  10  18
ENDBRANCH   8   9
ENDBRANCH   7   8
ENDBRANCH   4   7
BRANCH   1  24
HETATM   24  O   UNK N   1      34.576  13.989  12.193  0.00  0.00    -0.345 OA
BRANCH  24  25
HETATM   25  C   UNK N   1      35.118  12.744  11.976  0.00  0.00     0.235 C 
BRANCH  25  26
HETATM   26  C   UNK N   1      35.224  12.073  13.295  0.00  0.00     0.065 A 
HETATM   27  C   UNK N   1      35.288  10.724  13.554  0.00  0.00     0.076 A 
HETATM   28  C   UNK N   1      35.292   9.614  12.564  0.00  0.00     0.079 C 
HETATM   29  O   UNK N   1      35.332  10.572  14.856  0.00  0.00    -0.296 OA
HETATM   30  C   UNK N   1      35.293  11.774  15.395  0.00  0.00     0.158 A 
HETATM   31  N   UNK N   1      35.229  12.741  14.456  0.00  0.00    -0.336 N 
ATOM     32  HN  UNK N   1      35.192  13.750  14.598  1.00  0.00     0.168 HD
BRANCH  30  33
HETATM   33  C   UNK N   1      35.284  12.050  16.833  0.00  0.00     0.015 A 
HETATM   34  C   UNK N   1      35.170  13.370  17.290  0.00  0.00     0.016 A 
HETATM   35  C   UNK N   1      35.144  13.641  18.660  0.00  0.00     0.001 A 
HETATM   36  C   UNK N   1      35.232  12.592  19.579  0.00  0.00     0.000 A 
HETATM   37  C   UNK N   1      35.346  11.274  19.127  0.00  0.00     0.001 A 
HETATM   38  C   UNK N   1      35.369  11.002  17.757  0.00  0.00     0.016 A 
ENDBRANCH  30  33
ENDBRANCH  25  26
ENDBRANCH  24  25
ENDBRANCH   1  24
TORSDOF 12
ENDMDL
MODEL 7
REMARK VINA RESULT:      -8.1      4.536     11.394
REMARK  12 active torsions:
REMARK  status: ('A' for Active; 'I' for Inactive)
REMARK    1  A    between atoms: C_3  and  C_14 
REMARK    2  A    between atoms: C_6  and  C_8 
REMARK    3  A    between atoms: C_14  and  O_15 
REMARK    4  A    between atoms: O_15  and  C_16 
REMARK    5  A    between atoms: C_19  and  C_22 
REMARK    6  A    between atoms: C_22  and  O_23 
REMARK    7  A    between atoms: O_23  and  N_24 
REMARK    8  A    between atoms: C_26  and  C_27 
REMARK    9  A    between atoms: C_26  and  C_32 
REMARK   10  A    between atoms: C_27  and  C_28 
REMARK   11  A    between atoms: C_28  and  C_29 
REMARK   12  A    between atoms: C_29  and  O_31 
ROOT
HETATM    1  C   UNK N   1      30.584  17.258   4.698  0.00  0.00     0.069 A 
HETATM    2  C   UNK N   1      31.785  17.888   4.332  0.00  0.00     0.037 A 
HETATM    3  C   UNK N   1      32.968  17.153   4.278  0.00  0.00     0.012 A 
HETATM    4  C   UNK N   1      32.959  15.787   4.589  0.00  0.00    -0.032 A 
HETATM    5  C   UNK N   1      31.762  15.152   4.921  0.00  0.00     0.012 A 
HETATM    6  C   UNK N   1      30.577  15.887   4.972  0.00  0.00     0.037 A 
ENDROOT
BRANCH   4   7
HETATM    7  C   UNK N   1      34.244  15.021   4.661  0.00  0.00     0.239 C 
BRANCH   7   8
HETATM    8  O   UNK N   1      35.156  15.593   5.537  0.00  0.00    -0.276 OA
BRANCH   8   9
HETATM    9  N   UNK N   1      35.550  14.981   6.640  0.00  0.00    -0.270 N 
HETATM   10  C   UNK N   1      34.990  15.145   7.793  0.00  0.00     0.043 C 
ATOM     11  HN  UNK N   1      36.341  14.340   6.577  1.00  0.00     0.194 HD
BRANCH  10  12
HETATM   12  C   UNK N   1      35.496  14.327   8.965  0.00  0.00     0.070 C 
BRANCH  12  13
HETATM   13  C   UNK N   1      36.110  15.187  10.075  0.00  0.00     0.116 C 
BRANCH  13  14
HETATM   14  C   UNK N   1      35.114  15.666  11.092  0.00  0.00     0.139 C 
HETATM   15  O   UNK N   1      34.465  14.875  11.760  0.00  0.00    -0.650 OA
BRANCH  14  16
HETATM   16  O   UNK N   1      34.940  16.988  11.271  0.00  0.00    -0.776 OA
HETATM   17  H   UNK N   1      35.241  17.594  10.622  0.00  0.00     0.167 HD
ENDBRANCH  14  16
ENDBRANCH  13  14
ENDBRANCH  12  13
ENDBRANCH  10  12
BRANCH  10  18
HETATM   18  C   UNK N   1      33.837  16.076   8.003  0.00  0.00    -0.012 A 
HETATM   19  C   UNK N   1      32.573  15.556   8.326  0.00  0.00     0.013 A 
HETATM   20  C   UNK N   1      31.481  16.408   8.515  0.00  0.00     0.001 A 
HETATM   21  C   UNK N   1      31.639  17.789   8.386  0.00  0.00     0.000 A 
HETATM   22  C   UNK N   1      32.891  18.321   8.071  0.00  0.00     0.001 A 
HETATM   23  C   UNK N   1      33.980  17.469   7.880  0.00  0.00     0.013 A 
ENDBRANCH  10  18
ENDBRANCH   8   9
ENDBRANCH   7   8
ENDBRANCH   4   7
BRANCH   1  24
HETATM   24  O   UNK N   1      29.429  17.945   4.800  0.00  0.00    -0.345 OA
BRANCH  24  25
HETATM   25  C   UNK N   1      28.614  17.906   5.907  0.00  0.00     0.235 C 
BRANCH  25  26
HETATM   26  C   UNK N   1      27.318  18.515   5.522  0.00  0.00     0.065 A 
HETATM   27  C   UNK N   1      26.919  19.822   5.676  0.00  0.00     0.076 A 
HETATM   28  C   UNK N   1      27.712  20.946   6.243  0.00  0.00     0.079 C 
HETATM   29  O   UNK N   1      25.686  19.915   5.240  0.00  0.00    -0.296 OA
HETATM   30  C   UNK N   1      25.321  18.717   4.832  0.00  0.00     0.158 A 
HETATM   31  N   UNK N   1      26.310  17.812   4.987  0.00  0.00    -0.336 N 
ATOM     32  HN  UNK N   1      26.294  16.820   4.752  1.00  0.00     0.168 HD
BRANCH  30  33
HETATM   33  C   UNK N   1      23.997  18.376   4.306  0.00  0.00     0.015 A 
HETATM   34  C   UNK N   1      23.530  17.057   4.393  0.00  0.00     0.016 A 
HETATM   35  C   UNK N   1      22.262  16.727   3.909  0.00  0.00     0.001 A 
HETATM   36  C   UNK N   1      21.457  17.713   3.333  0.00  0.00     0.000 A 
HETATM   37  C   UNK N   1      21.920  19.029   3.244  0.00  0.00     0.001 A 
HETATM   38  C   UNK N   1      23.187  19.362   3.732  0.00  0.00     0.016 A 
ENDBRANCH  30  33
ENDBRANCH  25  26
ENDBRANCH  24  25
ENDBRANCH   1  24
TORSDOF 12
ENDMDL
MODEL 8
REMARK VINA RESULT:      -8.0      2.557      3.676
REMARK  12 active torsions:
REMARK  status: ('A' for Active; 'I' for Inactive)
REMARK    1  A    between atoms: C_3  and  C_14 
REMARK    2  A    between atoms: C_6  and  C_8 
REMARK    3  A    between atoms: C_14  and  O_15 
REMARK    4  A    between atoms: O_15  and  C_16 
REMARK    5  A    between atoms: C_19  and  C_22 
REMARK    6  A    between atoms: C_22  and  O_23 
REMARK    7  A    between atoms: O_23  and  N_24 
REMARK    8  A    between atoms: C_26  and  C_27 
REMARK    9  A    between atoms: C_26  and  C_32 
REMARK   10  A    between atoms: C_27  and  C_28 
REMARK   11  A    between atoms: C_28  and  C_29 
REMARK   12  A    between atoms: C_29  and  O_31 
ROOT
HETATM    1  C   UNK N   1      34.060  16.234   8.746  0.00  0.00     0.069 A 
HETATM    2  C   UNK N   1      33.945  17.594   8.414  0.00  0.00     0.037 A 
HETATM    3  C   UNK N   1      32.685  18.174   8.284  0.00  0.00     0.012 A 
HETATM    4  C   UNK N   1      31.534  17.401   8.485  0.00  0.00    -0.032 A 
HETATM    5  C   UNK N   1      31.646  16.058   8.845  0.00  0.00     0.012 A 
HETATM    6  C   UNK N   1      32.908  15.478   8.978  0.00  0.00     0.037 A 
ENDROOT
BRANCH   4   7
HETATM    7  C   UNK N   1      30.179  17.981   8.219  0.00  0.00     0.239 C 
BRANCH   7   8
HETATM    8  O   UNK N   1      29.341  17.095   7.556  0.00  0.00    -0.276 OA
BRANCH   8   9
HETATM    9  N   UNK N   1      28.787  17.389   6.393  0.00  0.00    -0.270 N 
HETATM   10  C   UNK N   1      29.373  17.217   5.253  0.00  0.00     0.043 C 
ATOM     11  HN  UNK N   1      27.842  17.773   6.394  1.00  0.00     0.194 HD
BRANCH  10  12
HETATM   12  C   UNK N   1      28.598  17.529   3.989  0.00  0.00     0.070 C 
BRANCH  12  13
HETATM   13  C   UNK N   1      27.255  18.216   4.264  0.00  0.00     0.116 C 
BRANCH  13  14
HETATM   14  C   UNK N   1      27.328  19.716   4.255  0.00  0.00     0.139 C 
HETATM   15  O   UNK N   1      27.853  20.326   5.174  0.00  0.00    -0.650 OA
BRANCH  14  16
HETATM   16  O   UNK N   1      26.812  20.394   3.214  0.00  0.00    -0.776 OA
HETATM   17  H   UNK N   1      26.425  21.237   3.349  0.00  0.00     0.167 HD
ENDBRANCH  14  16
ENDBRANCH  13  14
ENDBRANCH  12  13
ENDBRANCH  10  12
BRANCH  10  18
HETATM   18  C   UNK N   1      30.765  16.681   5.137  0.00  0.00    -0.012 A 
HETATM   19  C   UNK N   1      31.009  15.319   5.378  0.00  0.00     0.013 A 
HETATM   20  C   UNK N   1      32.304  14.801   5.286  0.00  0.00     0.001 A 
HETATM   21  C   UNK N   1      33.370  15.636   4.948  0.00  0.00     0.000 A 
HETATM   22  C   UNK N   1      33.142  16.991   4.699  0.00  0.00     0.001 A 
HETATM   23  C   UNK N   1      31.849  17.507   4.795  0.00  0.00     0.013 A 
ENDBRANCH  10  18
ENDBRANCH   8   9
ENDBRANCH   7   8
ENDBRANCH   4   7
BRANCH   1  24
HETATM   24  O   UNK N   1      35.262  15.630   8.839  0.00  0.00    -0.345 OA
BRANCH  24  25
HETATM   25  C   UNK N   1      35.429  14.266   8.874  0.00  0.00     0.235 C 
BRANCH  25  26
HETATM   26  C   UNK N   1      35.974  13.921  10.209  0.00  0.00     0.065 A 
HETATM   27  C   UNK N   1      37.289  13.722  10.559  0.00  0.00     0.076 A 
HETATM   28  C   UNK N   1      38.484  13.834   9.680  0.00  0.00     0.079 C 
HETATM   29  O   UNK N   1      37.317  13.395  11.829  0.00  0.00    -0.296 OA
HETATM   30  C   UNK N   1      36.072  13.385  12.260  0.00  0.00     0.158 A 
HETATM   31  N   UNK N   1      35.200  13.710  11.282  0.00  0.00    -0.336 N 
ATOM     32  HN  UNK N   1      34.185  13.780  11.346  1.00  0.00     0.168 HD
BRANCH  30  33
HETATM   33  C   UNK N   1      35.656  13.031  13.619  0.00  0.00     0.015 A 
HETATM   34  C   UNK N   1      36.263  13.654  14.719  0.00  0.00     0.016 A 
HETATM   35  C   UNK N   1      35.861  13.335  16.018  0.00  0.00     0.001 A 
HETATM   36  C   UNK N   1      34.851  12.391  16.223  0.00  0.00     0.000 A 
HETATM   37  C   UNK N   1      34.244  11.767  15.129  0.00  0.00     0.001 A 
HETATM   38  C   UNK N   1      34.643  12.089  13.829  0.00  0.00     0.016 A 
ENDBRANCH  30  33
ENDBRANCH  25  26
ENDBRANCH  24  25
ENDBRANCH   1  24
TORSDOF 12
ENDMDL
MODEL 9
REMARK VINA RESULT:      -8.0      7.610     12.099
REMARK  12 active torsions:
REMARK  status: ('A' for Active; 'I' for Inactive)
REMARK    1  A    between atoms: C_3  and  C_14 
REMARK    2  A    between atoms: C_6  and  C_8 
REMARK    3  A    between atoms: C_14  and  O_15 
REMARK    4  A    between atoms: O_15  and  C_16 
REMARK    5  A    between atoms: C_19  and  C_22 
REMARK    6  A    between atoms: C_22  and  O_23 
REMARK    7  A    between atoms: O_23  and  N_24 
REMARK    8  A    between atoms: C_26  and  C_27 
REMARK    9  A    between atoms: C_26  and  C_32 
REMARK   10  A    between atoms: C_27  and  C_28 
REMARK   11  A    between atoms: C_28  and  C_29 
REMARK   12  A    between atoms: C_29  and  O_31 
ROOT
HETATM    1  C   UNK N   1      22.874  17.111   5.225  0.00  0.00     0.069 A 
HETATM    2  C   UNK N   1      23.016  16.015   4.358  0.00  0.00     0.037 A 
HETATM    3  C   UNK N   1      22.156  14.924   4.468  0.00  0.00     0.012 A 
HETATM    4  C   UNK N   1      21.150  14.921   5.444  0.00  0.00    -0.032 A 
HETATM    5  C   UNK N   1      20.987  16.022   6.285  0.00  0.00     0.012 A 
HETATM    6  C   UNK N   1      21.846  17.116   6.172  0.00  0.00     0.037 A 
ENDROOT
BRANCH   4   7
HETATM    7  C   UNK N   1      20.308  13.702   5.657  0.00  0.00     0.239 C 
BRANCH   7   8
HETATM    8  O   UNK N   1      21.006  12.674   6.275  0.00  0.00    -0.276 OA
BRANCH   8   9
HETATM    9  N   UNK N   1      21.137  12.603   7.588  0.00  0.00    -0.270 N 
HETATM   10  C   UNK N   1      22.248  12.815   8.213  0.00  0.00     0.043 C 
ATOM     11  HN  UNK N   1      20.312  12.369   8.140  1.00  0.00     0.194 HD
BRANCH  10  12
HETATM   12  C   UNK N   1      22.244  12.772   9.728  0.00  0.00     0.070 C 
BRANCH  12  13
HETATM   13  C   UNK N   1      23.084  11.623  10.297  0.00  0.00     0.116 C 
BRANCH  13  14
HETATM   14  C   UNK N   1      23.768  11.956  11.592  0.00  0.00     0.139 C 
HETATM   15  O   UNK N   1      23.186  11.841  12.660  0.00  0.00    -0.650 OA
BRANCH  14  16
HETATM   16  O   UNK N   1      25.045  12.381  11.572  0.00  0.00    -0.776 OA
HETATM   17  H   UNK N   1      25.557  12.367  12.357  0.00  0.00     0.167 HD
ENDBRANCH  14  16
ENDBRANCH  13  14
ENDBRANCH  12  13
ENDBRANCH  10  12
BRANCH  10  18
HETATM   18  C   UNK N   1      23.522  13.145   7.501  0.00  0.00    -0.012 A 
HETATM   19  C   UNK N   1      24.085  14.425   7.638  0.00  0.00     0.013 A 
HETATM   20  C   UNK N   1      25.268  14.756   6.972  0.00  0.00     0.001 A 
HETATM   21  C   UNK N   1      25.905  13.813   6.163  0.00  0.00     0.000 A 
HETATM   22  C   UNK N   1      25.360  12.535   6.021  0.00  0.00     0.001 A 
HETATM   23  C   UNK N   1      24.177  12.207   6.685  0.00  0.00     0.013 A 
ENDBRANCH  10  18
ENDBRANCH   8   9
ENDBRANCH   7   8
ENDBRANCH   4   7
BRANCH   1  24
HETATM   24  O   UNK N   1      23.714  18.165   5.173  0.00  0.00    -0.345 OA
BRANCH  24  25
HETATM   25  C   UNK N   1      24.619  18.369   4.158  0.00  0.00     0.235 C 
BRANCH  25  26
HETATM   26  C   UNK N   1      25.939  17.899   4.643  0.00  0.00     0.065 A 
HETATM   27  C   UNK N   1      26.736  16.915   4.107  0.00  0.00     0.076 A 
HETATM   28  C   UNK N   1      26.470  16.103   2.889  0.00  0.00     0.079 C 
HETATM   29  O   UNK N   1      27.792  16.797   4.874  0.00  0.00    -0.296 OA
HETATM   30  C   UNK N   1      27.666  17.667   5.855  0.00  0.00     0.158 A 
HETATM   31  N   UNK N   1      26.525  18.379   5.749  0.00  0.00    -0.336 N 
ATOM     32  HN  UNK N   1      26.185  19.114   6.369  1.00  0.00     0.168 HD
BRANCH  30  33
HETATM   33  C   UNK N   1      28.616  17.834   6.958  0.00  0.00     0.015 A 
HETATM   34  C   UNK N   1      28.218  18.497   8.127  0.00  0.00     0.016 A 
HETATM   35  C   UNK N   1      29.113  18.646   9.189  0.00  0.00     0.001 A 
HETATM   36  C   UNK N   1      30.409  18.134   9.086  0.00  0.00     0.000 A 
HETATM   37  C   UNK N   1      30.809  17.473   7.921  0.00  0.00     0.001 A 
HETATM   38  C   UNK N   1      29.914  17.320   6.859  0.00  0.00     0.016 A 
ENDBRANCH  30  33
ENDBRANCH  25  26
ENDBRANCH  24  25
ENDBRANCH   1  24
TORSDOF 12
ENDMDL
