REMARK  11 active torsions:
REMARK  status: ('A' for Active; 'I' for Inactive)
REMARK    1  A    between atoms: C_2  and  C_3 
REMARK    2  A    between atoms: C_5  and  C_17 
REMARK    3  A    between atoms: C_8  and  C_9 
REMARK    4  A    between atoms: C_9  and  N_10 
REMARK    5  A    between atoms: C_12  and  C_14 
REMARK    6  A    between atoms: C_14  and  O_16 
REMARK    7  A    between atoms: N_18  and  O_20 
REMARK    8  A    between atoms: O_20  and  C_21 
REMARK    9  A    between atoms: C_21  and  C_22 
REMARK   10  A    between atoms: C_25  and  C_32 
REMARK   11  A    between atoms: C_26  and  C_28 
ROOT
HETATM    1  C   UNK N   1       3.866  -4.928  -0.893  0.00  0.00     0.038 C 
HETATM    2  N   UNK N   1       5.101  -5.240  -1.087  0.00  0.00    -0.270 N 
ATOM      3  HN  UNK N   1       5.733  -4.525  -1.449  1.00  0.00     0.194 HD
HETATM    4  C   UNK N   1       3.438  -3.539  -1.242  0.00  0.00     0.071 C 
ENDROOT
BRANCH   2   5
HETATM    5  O   UNK N   1       5.589  -6.447  -0.839  0.00  0.00    -0.276 OA
BRANCH   5   6
HETATM    6  C   UNK N   1       6.315  -6.697   0.306  0.00  0.00     0.239 C 
BRANCH   6   7
HETATM    7  C   UNK N   1       7.450  -5.748   0.405  0.00  0.00    -0.031 A 
HETATM    8  C   UNK N   1       7.209  -4.393   0.606  0.00  0.00     0.010 A 
HETATM    9  C   UNK N   1       8.263  -3.495   0.616  0.00  0.00     0.009 A 
HETATM   10  C   UNK N   1       9.590  -3.924   0.429  0.00  0.00    -0.039 A 
HETATM   11  C   UNK N   1       9.835  -5.324   0.248  0.00  0.00     0.055 A 
HETATM   12  C   UNK N   1       8.747  -6.207   0.236  0.00  0.00     0.026 A 
BRANCH  10  13
HETATM   13  C   UNK N   1      10.695  -2.875   0.472  0.00  0.00     0.019 C 
HETATM   14  C   UNK N   1      10.143  -1.454   0.722  0.00  0.00     0.009 C 
HETATM   15  C   UNK N   1      11.264  -0.424   0.818  0.00  0.00     0.001 C 
HETATM   16  C   UNK N   1      12.132  -0.455  -0.436  0.00  0.00     0.000 C 
HETATM   17  C   UNK N   1      12.673  -1.862  -0.664  0.00  0.00     0.001 C 
HETATM   18  C   UNK N   1      11.509  -2.835  -0.819  0.00  0.00     0.009 C 
ENDBRANCH  10  13
BRANCH  11  19
HETATM   19  C   UNK N   1      11.212  -5.926   0.076  0.00  0.00     0.418 C 
HETATM   20  F   UNK N   1      11.988  -5.634   1.180  0.00  0.00    -0.166 F 
HETATM   21  F   UNK N   1      11.131  -7.306  -0.046  0.00  0.00    -0.166 F 
HETATM   22  F   UNK N   1      11.822  -5.454  -1.067  0.00  0.00    -0.166 F 
ENDBRANCH  11  19
ENDBRANCH   6   7
ENDBRANCH   5   6
ENDBRANCH   2   5
BRANCH   1  23
HETATM   23  C   UNK N   1       2.858  -5.893  -0.371  0.00  0.00    -0.012 A 
HETATM   24  C   UNK N   1       1.502  -5.546  -0.311  0.00  0.00     0.021 A 
HETATM   25  C   UNK N   1       0.525  -6.478   0.072  0.00  0.00    -0.050 A 
HETATM   26  C   UNK N   1       0.937  -7.801   0.408  0.00  0.00    -0.024 A 
HETATM   27  C   UNK N   1       2.299  -8.099   0.416  0.00  0.00     0.010 A 
HETATM   28  C   UNK N   1       3.238  -7.173   0.023  0.00  0.00     0.014 A 
BRANCH  25  29
HETATM   29  C   UNK N   1      -0.898  -5.975   0.080  0.00  0.00     0.035 C 
HETATM   30  C   UNK N   1      -1.998  -7.015   0.001  0.00  0.00     0.010 C 
ENDBRANCH  25  29
BRANCH  26  31
HETATM   31  C   UNK N   1      -0.006  -8.923   0.769  0.00  0.00     0.311 C 
BRANCH  31  32
HETATM   32  N   UNK N   1       0.033 -10.035  -0.205  0.00  0.00     0.094 N 
HETATM   33  C   UNK N   1       1.376 -10.618  -0.251  0.00  0.00     0.289 C 
HETATM   34  C   UNK N   1       1.016 -11.774   0.631  0.00  0.00     0.140 C 
HETATM   35  C   UNK N   1      -0.398 -11.234   0.511  0.00  0.00     0.289 C 
BRANCH  34  36
HETATM   36  C   UNK N   1       1.307 -13.061  -0.076  0.00  0.00     0.147 C 
HETATM   37  O   UNK N   1       0.408 -13.830  -0.374  0.00  0.00    -0.650 OA
BRANCH  36  38
HETATM   38  O   UNK N   1       2.586 -13.393  -0.341  0.00  0.00    -0.776 OA
HETATM   39  H   UNK N   1       2.831 -14.279  -0.525  0.00  0.00     0.167 HD
ENDBRANCH  36  38
ENDBRANCH  34  36
ENDBRANCH  31  32
ENDBRANCH  26  31
ENDBRANCH   1  23
TORSDOF 11
