REMARK  5 active torsions:
REMARK  status: ('A' for Active; 'I' for Inactive)
REMARK    1  A    between atoms: N_3  and  C_16 
REMARK    2  A    between atoms: C_6  and  C_7 
REMARK    3  A    between atoms: C_7  and  C_9 
REMARK    4  A    between atoms: C_16  and  C_17 
REMARK    5  A    between atoms: C_17  and  N_18 
ROOT
HETATM    1  C   UNK N   1      -2.110   2.272   0.071  0.00  0.00     0.043 C 
HETATM    2  C   UNK N   1      -2.157   1.560   1.419  0.00  0.00     0.273 C 
HETATM    3  N   UNK N   1      -2.010   0.105   1.287  0.00  0.00     0.090 N 
HETATM    4  C   UNK N   1      -2.904  -0.524   0.310  0.00  0.00     0.273 C 
HETATM    5  C   UNK N   1      -2.936   0.210  -1.040  0.00  0.00     0.043 C 
HETATM    6  C   UNK N   1      -3.176   1.709  -0.864  0.00  0.00     0.064 C 
ENDROOT
BRANCH   3   7
HETATM    7  C   UNK N   1      -0.622  -0.331   1.162  0.00  0.00     0.292 C 
BRANCH   7   8
HETATM    8  C   UNK N   1      -0.059  -0.214  -0.253  0.00  0.00     0.167 C 
BRANCH   8   9
HETATM    9  N   UNK N   1       1.256  -0.835  -0.258  0.00  0.00    -0.264 N 
HETATM   10  C   UNK N   1       2.376  -0.034  -0.218  0.00  0.00     0.264 A 
HETATM   11  O   UNK N   1       2.261   1.183  -0.233  0.00  0.00    -0.267 OA
HETATM   12  C   UNK N   1       3.641  -0.619  -0.129  0.00  0.00     0.059 A 
HETATM   13  C   UNK N   1       4.802   0.162  -0.046  0.00  0.00     0.019 A 
HETATM   14  C   UNK N   1       3.739  -2.024  -0.098  0.00  0.00     0.052 A 
HETATM   15  C   UNK N   1       6.050  -0.453   0.073  0.00  0.00     0.001 A 
HETATM   16  C   UNK N   1       6.144  -1.847   0.107  0.00  0.00     0.002 A 
HETATM   17  C   UNK N   1       4.991  -2.632   0.018  0.00  0.00     0.030 A 
HETATM   18  N   UNK N   1       2.620  -2.786  -0.169  0.00  0.00    -0.307 N 
HETATM   19  C   UNK N   1       1.382  -2.211  -0.246  0.00  0.00     0.330 A 
HETATM   20  H   UNK N   1       2.700  -3.767  -0.164  0.00  0.00     0.170 HD
HETATM   21  O   UNK N   1       0.391  -2.923  -0.289  0.00  0.00    -0.246 OA
ENDBRANCH   8   9
ENDBRANCH   7   8
ENDBRANCH   3   7
BRANCH   6  22
HETATM   22  C   UNK N   1      -4.580   2.191  -0.501  0.00  0.00     0.163 C 
HETATM   23  O   UNK N   1      -4.756   3.401  -0.453  0.00  0.00    -0.292 OA
BRANCH  22  24
HETATM   24  C   UNK N   1      -5.759   1.300  -0.244  0.00  0.00     0.010 A 
HETATM   25  C   UNK N   1      -5.653  -0.096  -0.229  0.00  0.00     0.018 A 
HETATM   26  C   UNK N   1      -6.761  -0.907   0.006  0.00  0.00     0.043 A 
HETATM   27  C   UNK N   1      -8.009  -0.327   0.216  0.00  0.00     0.116 A 
HETATM   28  C   UNK N   1      -8.143   1.064   0.198  0.00  0.00     0.043 A 
HETATM   29  F   UNK N   1      -9.089  -1.115   0.430  0.00  0.00    -0.206 F 
HETATM   30  C   UNK N   1      -7.023   1.873  -0.026  0.00  0.00     0.018 A 
ENDBRANCH  22  24
ENDBRANCH   6  22
TORSDOF 5
