MODEL 1
REMARK VINA RESULT:      -7.9      0.000      0.000
REMARK  15 active torsions:
REMARK  status: ('A' for Active; 'I' for Inactive)
REMARK    1  A    between atoms: C_6  and  C_43 
REMARK    2  A    between atoms: C_14  and  O_19 
REMARK    3  A    between atoms: C_20  and  O_19 
REMARK    4  A    between atoms: C_21  and  O_30 
REMARK    5  A    between atoms: C_22  and  O_29 
REMARK    6  A    between atoms: C_23  and  O_28 
REMARK    7  A    between atoms: C_24  and  C_26 
REMARK    8  A    between atoms: C_26  and  O_27 
REMARK    9  A    between atoms: C_31  and  O_30 
REMARK   10  A    between atoms: C_32  and  O_41 
REMARK   11  A    between atoms: C_33  and  O_40 
REMARK   12  A    between atoms: C_34  and  O_39 
REMARK   13  A    between atoms: C_35  and  C_37 
REMARK   14  A    between atoms: C_37  and  O_38 
REMARK   15  A    between atoms: C_43  and  O_45 
ROOT
HETATM    1  C   UNK N   1      33.039  13.686   8.339  0.00  0.00     0.293 C 
HETATM    2  C   UNK N   1      33.678  12.795   9.415  0.00  0.00     0.211 C 
HETATM    3  C   UNK N   1      33.434  11.294   9.223  0.00  0.00     0.183 C 
HETATM    4  C   UNK N   1      33.408  10.858   7.760  0.00  0.00     0.180 C 
HETATM    5  C   UNK N   1      33.607  12.031   6.800  0.00  0.00     0.179 C 
HETATM    6  O   UNK N   1      32.714  13.090   7.086  0.00  0.00    -0.348 OA
ENDROOT
BRANCH   1   7
HETATM    7  O   UNK N   1      33.551  15.018   8.346  0.00  0.00    -0.343 OA
BRANCH   7   8
HETATM    8  C   UNK N   1      32.806  15.991   7.630  0.00  0.00     0.087 C 
HETATM    9  C   UNK N   1      33.116  16.111   6.116  0.00  0.00     0.043 C 
HETATM   10  C   UNK N   1      32.294  17.214   5.422  0.00  0.00     0.009 C 
HETATM   11  C   UNK N   1      30.839  17.321   5.942  0.00  0.00     0.003 C 
HETATM   12  C   UNK N   1      30.762  17.172   7.490  0.00  0.00    -0.029 C 
HETATM   13  C   UNK N   1      29.838  16.398   5.182  0.00  0.00    -0.035 C 
HETATM   14  C   UNK N   1      29.333  17.404   7.974  0.00  0.00     0.011 C 
HETATM   15  C   UNK N   1      31.315  15.804   7.869  0.00  0.00     0.053 C 
HETATM   16  C   UNK N   1      31.717  18.133   8.210  0.00  0.00     0.046 C 
HETATM   17  C   UNK N   1      28.337  16.478   7.284  0.00  0.00     0.007 C 
HETATM   18  C   UNK N   1      28.400  16.570   5.748  0.00  0.00     0.013 C 
HETATM   19  C   UNK N   1      27.567  17.679   5.053  0.00  0.00     0.046 C 
HETATM   20  C   UNK N   1      27.440  17.323   3.555  0.00  0.00     0.020 C 
HETATM   21  C   UNK N   1      26.149  17.685   5.606  0.00  0.00     0.027 C 
HETATM   22  C   UNK N   1      28.579  16.464   2.981  0.00  0.00     0.002 C 
HETATM   23  C   UNK N   1      29.890  16.767   3.691  0.00  0.00     0.010 C 
HETATM   24  C   UNK N   1      32.986  17.346   8.239  0.00  0.00    -0.054 C 
HETATM   25  C   UNK N   1      34.172  17.951   8.314  0.00  0.00     0.017 C 
HETATM   26  C   UNK N   1      30.191  14.921   5.310  0.00  0.00     0.016 C 
BRANCH  19  27
HETATM   27  C   UNK N   1      28.163  19.063   5.241  0.00  0.00     0.148 C 
HETATM   28  O   UNK N   1      28.095  19.623   6.316  0.00  0.00    -0.649 OA
BRANCH  27  29
HETATM   29  O   UNK N   1      28.755  19.694   4.202  0.00  0.00    -0.776 OA
HETATM   30  H   UNK N   1      29.370  20.045   3.588  0.00  0.00     0.167 HD
ENDBRANCH  27  29
ENDBRANCH  19  27
ENDBRANCH   7   8
ENDBRANCH   1   7
BRANCH   2  31
HETATM   31  O   UNK N   1      35.025  13.093   9.638  0.00  0.00    -0.346 OA
BRANCH  31  32
HETATM   32  C   UNK N   1      35.043  13.222  11.028  0.00  0.00     0.292 C 
HETATM   33  C   UNK N   1      36.106  14.163  11.592  0.00  0.00     0.204 C 
HETATM   34  C   UNK N   1      35.752  14.340  13.077  0.00  0.00     0.183 C 
HETATM   35  C   UNK N   1      35.519  12.992  13.777  0.00  0.00     0.180 C 
HETATM   36  C   UNK N   1      34.566  12.152  12.910  0.00  0.00     0.179 C 
HETATM   37  O   UNK N   1      35.142  11.969  11.643  0.00  0.00    -0.348 OA
BRANCH  33  38
HETATM   38  O   UNK N   1      36.044  15.403  10.954  0.00  0.00    -0.388 OA
HETATM   39  H   UNK N   1      36.787  15.989  10.743  0.00  0.00     0.210 HD
ENDBRANCH  33  38
BRANCH  34  40
HETATM   40  O   UNK N   1      36.738  15.075  13.737  0.00  0.00    -0.390 OA
HETATM   41  H   UNK N   1      37.354  15.646  13.252  0.00  0.00     0.210 HD
ENDBRANCH  34  40
BRANCH  35  42
HETATM   42  O   UNK N   1      34.950  13.216  15.032  0.00  0.00    -0.390 OA
HETATM   43  H   UNK N   1      35.008  13.970  15.639  0.00  0.00     0.210 HD
ENDBRANCH  35  42
BRANCH  36  44
HETATM   44  C   UNK N   1      34.271  10.798  13.530  0.00  0.00     0.198 C 
BRANCH  44  45
HETATM   45  O   UNK N   1      33.250  10.929  14.474  0.00  0.00    -0.398 OA
HETATM   46  H   UNK N   1      33.411  10.739  15.412  0.00  0.00     0.209 HD
ENDBRANCH  44  45
ENDBRANCH  36  44
ENDBRANCH  31  32
ENDBRANCH   2  31
BRANCH   3  47
HETATM   47  O   UNK N   1      32.234  10.928   9.831  0.00  0.00    -0.390 OA
HETATM   48  H   UNK N   1      31.377  10.477   9.832  0.00  0.00     0.210 HD
ENDBRANCH   3  47
BRANCH   5  49
HETATM   49  C   UNK N   1      33.432  11.575   5.356  0.00  0.00     0.198 C 
BRANCH  49  50
HETATM   50  O   UNK N   1      32.543  10.499   5.285  0.00  0.00    -0.398 OA
HETATM   51  H   UNK N   1      31.907   9.948   5.766  0.00  0.00     0.209 HD
ENDBRANCH  49  50
ENDBRANCH   5  49
BRANCH   4  52
HETATM   52  O   UNK N   1      34.376   9.877   7.542  0.00  0.00    -0.390 OA
HETATM   53  H   UNK N   1      35.321   9.660   7.535  0.00  0.00     0.210 HD
ENDBRANCH   4  52
TORSDOF 15
ENDMDL
MODEL 2
REMARK VINA RESULT:      -7.8      5.318      8.575
REMARK  15 active torsions:
REMARK  status: ('A' for Active; 'I' for Inactive)
REMARK    1  A    between atoms: C_6  and  C_43 
REMARK    2  A    between atoms: C_14  and  O_19 
REMARK    3  A    between atoms: C_20  and  O_19 
REMARK    4  A    between atoms: C_21  and  O_30 
REMARK    5  A    between atoms: C_22  and  O_29 
REMARK    6  A    between atoms: C_23  and  O_28 
REMARK    7  A    between atoms: C_24  and  C_26 
REMARK    8  A    between atoms: C_26  and  O_27 
REMARK    9  A    between atoms: C_31  and  O_30 
REMARK   10  A    between atoms: C_32  and  O_41 
REMARK   11  A    between atoms: C_33  and  O_40 
REMARK   12  A    between atoms: C_34  and  O_39 
REMARK   13  A    between atoms: C_35  and  C_37 
REMARK   14  A    between atoms: C_37  and  O_38 
REMARK   15  A    between atoms: C_43  and  O_45 
ROOT
HETATM    1  C   UNK N   1      29.438  15.135   4.297  0.00  0.00     0.293 C 
HETATM    2  C   UNK N   1      29.663  16.477   5.008  0.00  0.00     0.211 C 
HETATM    3  C   UNK N   1      31.053  16.641   5.632  0.00  0.00     0.183 C 
HETATM    4  C   UNK N   1      32.171  15.987   4.822  0.00  0.00     0.180 C 
HETATM    5  C   UNK N   1      31.646  15.286   3.568  0.00  0.00     0.179 C 
HETATM    6  O   UNK N   1      30.586  14.402   3.877  0.00  0.00    -0.348 OA
ENDROOT
BRANCH   1   7
HETATM    7  O   UNK N   1      28.288  15.139   3.453  0.00  0.00    -0.343 OA
BRANCH   7   8
HETATM    8  C   UNK N   1      27.160  14.407   3.907  0.00  0.00     0.087 C 
HETATM    9  C   UNK N   1      27.443  13.295   4.951  0.00  0.00     0.043 C 
HETATM   10  C   UNK N   1      26.174  12.525   5.363  0.00  0.00     0.009 C 
HETATM   11  C   UNK N   1      24.917  13.422   5.484  0.00  0.00     0.003 C 
HETATM   12  C   UNK N   1      24.835  14.467   4.332  0.00  0.00    -0.029 C 
HETATM   13  C   UNK N   1      24.734  14.049   6.900  0.00  0.00    -0.035 C 
HETATM   14  C   UNK N   1      23.526  15.247   4.417  0.00  0.00     0.011 C 
HETATM   15  C   UNK N   1      26.073  15.352   4.397  0.00  0.00     0.053 C 
HETATM   16  C   UNK N   1      24.961  13.813   2.950  0.00  0.00     0.046 C 
HETATM   17  C   UNK N   1      23.344  15.914   5.777  0.00  0.00     0.007 C 
HETATM   18  C   UNK N   1      23.449  14.921   6.949  0.00  0.00     0.013 C 
HETATM   19  C   UNK N   1      22.167  14.151   7.363  0.00  0.00     0.046 C 
HETATM   20  C   UNK N   1      22.389  13.566   8.776  0.00  0.00     0.020 C 
HETATM   21  C   UNK N   1      20.998  15.118   7.486  0.00  0.00     0.027 C 
HETATM   22  C   UNK N   1      23.853  13.283   9.152  0.00  0.00     0.002 C 
HETATM   23  C   UNK N   1      24.660  12.901   7.920  0.00  0.00     0.010 C 
HETATM   24  C   UNK N   1      26.441  13.778   2.756  0.00  0.00    -0.054 C 
HETATM   25  C   UNK N   1      27.012  12.877   1.956  0.00  0.00     0.017 C 
HETATM   26  C   UNK N   1      25.897  14.949   7.296  0.00  0.00     0.016 C 
BRANCH  19  27
HETATM   27  C   UNK N   1      21.791  13.065   6.371  0.00  0.00     0.148 C 
HETATM   28  O   UNK N   1      21.255  13.349   5.319  0.00  0.00    -0.649 OA
BRANCH  27  29
HETATM   29  O   UNK N   1      22.030  11.766   6.662  0.00  0.00    -0.776 OA
HETATM   30  H   UNK N   1      22.421  10.923   6.785  0.00  0.00     0.167 HD
ENDBRANCH  27  29
ENDBRANCH  19  27
ENDBRANCH   7   8
ENDBRANCH   1   7
BRANCH   2  31
HETATM   31  O   UNK N   1      29.297  17.575   4.224  0.00  0.00    -0.346 OA
BRANCH  31  32
HETATM   32  C   UNK N   1      28.559  18.324   5.143  0.00  0.00     0.292 C 
HETATM   33  C   UNK N   1      28.264  19.766   4.735  0.00  0.00     0.204 C 
HETATM   34  C   UNK N   1      27.236  20.280   5.757  0.00  0.00     0.183 C 
HETATM   35  C   UNK N   1      27.674  20.000   7.203  0.00  0.00     0.180 C 
HETATM   36  C   UNK N   1      28.108  18.528   7.304  0.00  0.00     0.179 C 
HETATM   37  O   UNK N   1      29.162  18.299   6.405  0.00  0.00    -0.348 OA
BRANCH  33  38
HETATM   38  O   UNK N   1      27.701  19.805   3.459  0.00  0.00    -0.388 OA
HETATM   39  H   UNK N   1      27.512  20.594   2.927  0.00  0.00     0.210 HD
ENDBRANCH  33  38
BRANCH  34  40
HETATM   40  O   UNK N   1      26.991  21.641   5.570  0.00  0.00    -0.390 OA
HETATM   41  H   UNK N   1      27.459  22.315   6.087  0.00  0.00     0.210 HD
ENDBRANCH  34  40
BRANCH  35  42
HETATM   42  O   UNK N   1      26.602  20.242   8.064  0.00  0.00    -0.390 OA
HETATM   43  H   UNK N   1      25.756  20.694   7.926  0.00  0.00     0.210 HD
ENDBRANCH  35  42
BRANCH  36  44
HETATM   44  C   UNK N   1      28.552  18.156   8.707  0.00  0.00     0.198 C 
BRANCH  44  45
HETATM   45  O   UNK N   1      27.431  17.951   9.513  0.00  0.00    -0.398 OA
HETATM   46  H   UNK N   1      27.522  17.620  10.420  0.00  0.00     0.209 HD
ENDBRANCH  44  45
ENDBRANCH  36  44
ENDBRANCH  31  32
ENDBRANCH   2  31
BRANCH   3  47
HETATM   47  O   UNK N   1      31.057  16.116   6.923  0.00  0.00    -0.390 OA
HETATM   48  H   UNK N   1      30.625  15.677   7.671  0.00  0.00     0.210 HD
ENDBRANCH   3  47
BRANCH   5  49
HETATM   49  C   UNK N   1      32.772  14.531   2.870  0.00  0.00     0.198 C 
BRANCH  49  50
HETATM   50  O   UNK N   1      33.653  15.422   2.252  0.00  0.00    -0.398 OA
HETATM   51  H   UNK N   1      33.804  16.336   1.968  0.00  0.00     0.209 HD
ENDBRANCH  49  50
ENDBRANCH   5  49
BRANCH   4  52
HETATM   52  O   UNK N   1      33.129  16.943   4.483  0.00  0.00    -0.390 OA
HETATM   53  H   UNK N   1      33.780  17.241   3.828  0.00  0.00     0.210 HD
ENDBRANCH   4  52
TORSDOF 15
ENDMDL
MODEL 3
REMARK VINA RESULT:      -7.8      5.870     12.398
REMARK  15 active torsions:
REMARK  status: ('A' for Active; 'I' for Inactive)
REMARK    1  A    between atoms: C_6  and  C_43 
REMARK    2  A    between atoms: C_14  and  O_19 
REMARK    3  A    between atoms: C_20  and  O_19 
REMARK    4  A    between atoms: C_21  and  O_30 
REMARK    5  A    between atoms: C_22  and  O_29 
REMARK    6  A    between atoms: C_23  and  O_28 
REMARK    7  A    between atoms: C_24  and  C_26 
REMARK    8  A    between atoms: C_26  and  O_27 
REMARK    9  A    between atoms: C_31  and  O_30 
REMARK   10  A    between atoms: C_32  and  O_41 
REMARK   11  A    between atoms: C_33  and  O_40 
REMARK   12  A    between atoms: C_34  and  O_39 
REMARK   13  A    between atoms: C_35  and  C_37 
REMARK   14  A    between atoms: C_37  and  O_38 
REMARK   15  A    between atoms: C_43  and  O_45 
ROOT
HETATM    1  C   UNK N   1      22.102  14.851   3.793  0.00  0.00     0.293 C 
HETATM    2  C   UNK N   1      21.265  15.952   3.127  0.00  0.00     0.211 C 
HETATM    3  C   UNK N   1      20.397  15.470   1.958  0.00  0.00     0.183 C 
HETATM    4  C   UNK N   1      19.831  14.065   2.153  0.00  0.00     0.180 C 
HETATM    5  C   UNK N   1      20.280  13.435   3.471  0.00  0.00     0.179 C 
HETATM    6  O   UNK N   1      21.685  13.499   3.621  0.00  0.00    -0.348 OA
ENDROOT
BRANCH   1   7
HETATM    7  O   UNK N   1      22.629  15.244   5.060  0.00  0.00    -0.343 OA
BRANCH   7   8
HETATM    8  C   UNK N   1      23.996  14.950   5.302  0.00  0.00     0.087 C 
HETATM    9  C   UNK N   1      24.574  13.724   4.549  0.00  0.00     0.043 C 
HETATM   10  C   UNK N   1      26.050  13.451   4.896  0.00  0.00     0.009 C 
HETATM   11  C   UNK N   1      26.893  14.738   5.075  0.00  0.00     0.003 C 
HETATM   12  C   UNK N   1      26.116  15.837   5.858  0.00  0.00    -0.029 C 
HETATM   13  C   UNK N   1      27.525  15.257   3.748  0.00  0.00    -0.035 C 
HETATM   14  C   UNK N   1      27.019  17.040   6.120  0.00  0.00     0.011 C 
HETATM   15  C   UNK N   1      24.856  16.185   5.077  0.00  0.00     0.053 C 
HETATM   16  C   UNK N   1      25.555  15.311   7.186  0.00  0.00     0.046 C 
HETATM   17  C   UNK N   1      27.613  17.601   4.832  0.00  0.00     0.007 C 
HETATM   18  C   UNK N   1      28.365  16.539   4.008  0.00  0.00     0.013 C 
HETATM   19  C   UNK N   1      29.853  16.271   4.357  0.00  0.00     0.046 C 
HETATM   20  C   UNK N   1      30.501  15.520   3.172  0.00  0.00     0.020 C 
HETATM   21  C   UNK N   1      30.602  17.589   4.481  0.00  0.00     0.027 C 
HETATM   22  C   UNK N   1      29.539  14.677   2.318  0.00  0.00     0.002 C 
HETATM   23  C   UNK N   1      28.401  14.134   3.168  0.00  0.00     0.010 C 
HETATM   24  C   UNK N   1      24.240  14.742   6.764  0.00  0.00    -0.054 C 
HETATM   25  C   UNK N   1      23.652  13.769   7.461  0.00  0.00     0.017 C 
HETATM   26  C   UNK N   1      26.478  15.618   2.702  0.00  0.00     0.016 C 
BRANCH  19  27
HETATM   27  C   UNK N   1      30.018  15.498   5.654  0.00  0.00     0.148 C 
HETATM   28  O   UNK N   1      29.921  16.063   6.725  0.00  0.00    -0.649 OA
BRANCH  27  29
HETATM   29  O   UNK N   1      30.301  14.176   5.626  0.00  0.00    -0.776 OA
HETATM   30  H   UNK N   1      30.276  13.248   5.499  0.00  0.00     0.167 HD
ENDBRANCH  27  29
ENDBRANCH  19  27
ENDBRANCH   7   8
ENDBRANCH   1   7
BRANCH   2  31
HETATM   31  O   UNK N   1      20.545  16.720   4.046  0.00  0.00    -0.346 OA
BRANCH  31  32
HETATM   32  C   UNK N   1      20.907  18.011   3.657  0.00  0.00     0.292 C 
HETATM   33  C   UNK N   1      20.153  18.576   2.455  0.00  0.00     0.204 C 
HETATM   34  C   UNK N   1      20.527  20.065   2.398  0.00  0.00     0.183 C 
HETATM   35  C   UNK N   1      22.047  20.280   2.478  0.00  0.00     0.180 C 
HETATM   36  C   UNK N   1      22.594  19.450   3.651  0.00  0.00     0.179 C 
HETATM   37  O   UNK N   1      22.287  18.097   3.437  0.00  0.00    -0.348 OA
BRANCH  33  38
HETATM   38  O   UNK N   1      18.776  18.456   2.646  0.00  0.00    -0.388 OA
HETATM   39  H   UNK N   1      18.322  17.872   3.274  0.00  0.00     0.210 HD
ENDBRANCH  33  38
BRANCH  34  40
HETATM   40  O   UNK N   1      20.004  20.664   1.251  0.00  0.00    -0.390 OA
HETATM   41  H   UNK N   1      19.359  20.206   0.690  0.00  0.00     0.210 HD
ENDBRANCH  34  40
BRANCH  35  42
HETATM   42  O   UNK N   1      22.311  21.635   2.688  0.00  0.00    -0.390 OA
HETATM   43  H   UNK N   1      22.937  22.085   3.276  0.00  0.00     0.210 HD
ENDBRANCH  35  42
BRANCH  36  44
HETATM   44  C   UNK N   1      24.095  19.606   3.813  0.00  0.00     0.198 C 
BRANCH  44  45
HETATM   45  O   UNK N   1      24.624  20.234   2.683  0.00  0.00    -0.398 OA
HETATM   46  H   UNK N   1      24.820  19.730   1.878  0.00  0.00     0.209 HD
ENDBRANCH  44  45
ENDBRANCH  36  44
ENDBRANCH  31  32
ENDBRANCH   2  31
BRANCH   3  47
HETATM   47  O   UNK N   1      21.133  15.507   0.776  0.00  0.00    -0.390 OA
HETATM   48  H   UNK N   1      21.469  15.101  -0.038  0.00  0.00     0.210 HD
ENDBRANCH   3  47
BRANCH   5  49
HETATM   49  C   UNK N   1      19.810  11.987   3.558  0.00  0.00     0.198 C 
BRANCH  49  50
HETATM   50  O   UNK N   1      18.556  11.913   4.169  0.00  0.00    -0.398 OA
HETATM   51  H   UNK N   1      17.669  12.299   4.236  0.00  0.00     0.209 HD
ENDBRANCH  49  50
ENDBRANCH   5  49
BRANCH   4  52
HETATM   52  O   UNK N   1      18.438  14.104   2.079  0.00  0.00    -0.390 OA
HETATM   53  H   UNK N   1      17.639  14.650   2.136  0.00  0.00     0.210 HD
ENDBRANCH   4  52
TORSDOF 15
ENDMDL
MODEL 4
REMARK VINA RESULT:      -7.5      6.517     10.828
REMARK  15 active torsions:
REMARK  status: ('A' for Active; 'I' for Inactive)
REMARK    1  A    between atoms: C_6  and  C_43 
REMARK    2  A    between atoms: C_14  and  O_19 
REMARK    3  A    between atoms: C_20  and  O_19 
REMARK    4  A    between atoms: C_21  and  O_30 
REMARK    5  A    between atoms: C_22  and  O_29 
REMARK    6  A    between atoms: C_23  and  O_28 
REMARK    7  A    between atoms: C_24  and  C_26 
REMARK    8  A    between atoms: C_26  and  O_27 
REMARK    9  A    between atoms: C_31  and  O_30 
REMARK   10  A    between atoms: C_32  and  O_41 
REMARK   11  A    between atoms: C_33  and  O_40 
REMARK   12  A    between atoms: C_34  and  O_39 
REMARK   13  A    between atoms: C_35  and  C_37 
REMARK   14  A    between atoms: C_37  and  O_38 
REMARK   15  A    between atoms: C_43  and  O_45 
ROOT
HETATM    1  C   UNK N   1      22.080  13.863   3.704  0.00  0.00     0.293 C 
HETATM    2  C   UNK N   1      21.323  13.643   5.022  0.00  0.00     0.211 C 
HETATM    3  C   UNK N   1      19.872  14.138   5.010  0.00  0.00     0.183 C 
HETATM    4  C   UNK N   1      19.172  13.958   3.665  0.00  0.00     0.180 C 
HETATM    5  C   UNK N   1      20.091  13.340   2.610  0.00  0.00     0.179 C 
HETATM    6  O   UNK N   1      21.314  14.044   2.516  0.00  0.00    -0.348 OA
ENDROOT
BRANCH   1   7
HETATM    7  O   UNK N   1      23.289  13.108   3.626  0.00  0.00    -0.343 OA
BRANCH   7   8
HETATM    8  C   UNK N   1      24.496  13.846   3.517  0.00  0.00     0.087 C 
HETATM    9  C   UNK N   1      24.511  14.980   2.459  0.00  0.00     0.043 C 
HETATM   10  C   UNK N   1      25.868  15.705   2.378  0.00  0.00     0.009 C 
HETATM   11  C   UNK N   1      26.548  15.901   3.756  0.00  0.00     0.003 C 
HETATM   12  C   UNK N   1      26.410  14.639   4.657  0.00  0.00    -0.029 C 
HETATM   13  C   UNK N   1      26.130  17.221   4.473  0.00  0.00    -0.035 C 
HETATM   14  C   UNK N   1      27.195  14.826   5.953  0.00  0.00     0.011 C 
HETATM   15  C   UNK N   1      24.928  14.367   4.881  0.00  0.00     0.053 C 
HETATM   16  C   UNK N   1      26.883  13.366   3.943  0.00  0.00     0.046 C 
HETATM   17  C   UNK N   1      26.770  16.084   6.703  0.00  0.00     0.007 C 
HETATM   18  C   UNK N   1      26.861  17.355   5.838  0.00  0.00     0.013 C 
HETATM   19  C   UNK N   1      28.228  18.085   5.764  0.00  0.00     0.046 C 
HETATM   20  C   UNK N   1      27.986  19.512   5.221  0.00  0.00     0.020 C 
HETATM   21  C   UNK N   1      28.800  18.258   7.164  0.00  0.00     0.027 C 
HETATM   22  C   UNK N   1      26.750  19.676   4.321  0.00  0.00     0.002 C 
HETATM   23  C   UNK N   1      26.477  18.396   3.545  0.00  0.00     0.010 C 
HETATM   24  C   UNK N   1      25.647  12.936   3.224  0.00  0.00    -0.054 C 
HETATM   25  C   UNK N   1      25.713  12.192   2.119  0.00  0.00     0.017 C 
HETATM   26  C   UNK N   1      24.635  17.281   4.763  0.00  0.00     0.016 C 
BRANCH  19  27
HETATM   27  C   UNK N   1      29.244  17.339   4.917  0.00  0.00     0.148 C 
HETATM   28  O   UNK N   1      29.868  16.406   5.381  0.00  0.00    -0.649 OA
BRANCH  27  29
HETATM   29  O   UNK N   1      29.480  17.724   3.642  0.00  0.00    -0.776 OA
HETATM   30  H   UNK N   1      29.398  17.983   2.746  0.00  0.00     0.167 HD
ENDBRANCH  27  29
ENDBRANCH  19  27
ENDBRANCH   7   8
ENDBRANCH   1   7
BRANCH   2  31
HETATM   31  O   UNK N   1      21.438  12.336   5.503  0.00  0.00    -0.346 OA
BRANCH  31  32
HETATM   32  C   UNK N   1      21.938  12.567   6.786  0.00  0.00     0.292 C 
HETATM   33  C   UNK N   1      22.983  11.567   7.278  0.00  0.00     0.204 C 
HETATM   34  C   UNK N   1      23.561  12.177   8.565  0.00  0.00     0.183 C 
HETATM   35  C   UNK N   1      22.456  12.624   9.536  0.00  0.00     0.180 C 
HETATM   36  C   UNK N   1      21.426  13.453   8.752  0.00  0.00     0.179 C 
HETATM   37  O   UNK N   1      20.898  12.666   7.716  0.00  0.00    -0.348 OA
BRANCH  33  38
HETATM   38  O   UNK N   1      24.004  11.429   6.336  0.00  0.00    -0.388 OA
HETATM   39  H   UNK N   1      24.683  10.737   6.309  0.00  0.00     0.210 HD
ENDBRANCH  33  38
BRANCH  34  40
HETATM   40  O   UNK N   1      24.434  11.284   9.187  0.00  0.00    -0.390 OA
HETATM   41  H   UNK N   1      25.359  11.200   8.906  0.00  0.00     0.210 HD
ENDBRANCH  34  40
BRANCH  35  42
HETATM   42  O   UNK N   1      23.021  13.399  10.551  0.00  0.00    -0.390 OA
HETATM   43  H   UNK N   1      22.814  14.291  10.869  0.00  0.00     0.210 HD
ENDBRANCH  35  42
BRANCH  36  44
HETATM   44  C   UNK N   1      20.295  13.946   9.637  0.00  0.00     0.198 C 
BRANCH  44  45
HETATM   45  O   UNK N   1      19.972  12.963  10.574  0.00  0.00    -0.398 OA
HETATM   46  H   UNK N   1      20.333  12.994  11.474  0.00  0.00     0.209 HD
ENDBRANCH  44  45
ENDBRANCH  36  44
ENDBRANCH  31  32
ENDBRANCH   2  31
BRANCH   3  47
HETATM   47  O   UNK N   1      19.828  15.483   5.372  0.00  0.00    -0.390 OA
HETATM   48  H   UNK N   1      19.362  16.325   5.487  0.00  0.00     0.210 HD
ENDBRANCH   3  47
BRANCH   5  49
HETATM   49  C   UNK N   1      19.399  13.311   1.252  0.00  0.00     0.198 C 
BRANCH  49  50
HETATM   50  O   UNK N   1      18.368  14.253   1.205  0.00  0.00    -0.398 OA
HETATM   51  H   UNK N   1      17.577  14.603   1.643  0.00  0.00     0.209 HD
ENDBRANCH  49  50
ENDBRANCH   5  49
BRANCH   4  52
HETATM   52  O   UNK N   1      18.025  13.180   3.830  0.00  0.00    -0.390 OA
HETATM   53  H   UNK N   1      17.274  12.744   3.400  0.00  0.00     0.210 HD
ENDBRANCH   4  52
TORSDOF 15
ENDMDL
MODEL 5
REMARK VINA RESULT:      -7.5      6.808     12.630
REMARK  15 active torsions:
REMARK  status: ('A' for Active; 'I' for Inactive)
REMARK    1  A    between atoms: C_6  and  C_43 
REMARK    2  A    between atoms: C_14  and  O_19 
REMARK    3  A    between atoms: C_20  and  O_19 
REMARK    4  A    between atoms: C_21  and  O_30 
REMARK    5  A    between atoms: C_22  and  O_29 
REMARK    6  A    between atoms: C_23  and  O_28 
REMARK    7  A    between atoms: C_24  and  C_26 
REMARK    8  A    between atoms: C_26  and  O_27 
REMARK    9  A    between atoms: C_31  and  O_30 
REMARK   10  A    between atoms: C_32  and  O_41 
REMARK   11  A    between atoms: C_33  and  O_40 
REMARK   12  A    between atoms: C_34  and  O_39 
REMARK   13  A    between atoms: C_35  and  C_37 
REMARK   14  A    between atoms: C_37  and  O_38 
REMARK   15  A    between atoms: C_43  and  O_45 
ROOT
HETATM    1  C   UNK N   1      21.008  13.609   2.659  0.00  0.00     0.293 C 
HETATM    2  C   UNK N   1      20.261  14.950   2.624  0.00  0.00     0.211 C 
HETATM    3  C   UNK N   1      19.563  15.254   1.294  0.00  0.00     0.183 C 
HETATM    4  C   UNK N   1      18.985  14.017   0.608  0.00  0.00     0.180 C 
HETATM    5  C   UNK N   1      19.256  12.736   1.396  0.00  0.00     0.179 C 
HETATM    6  O   UNK N   1      20.627  12.608   1.718  0.00  0.00    -0.348 OA
ENDROOT
BRANCH   1   7
HETATM    7  O   UNK N   1      21.356  13.201   3.982  0.00  0.00    -0.343 OA
BRANCH   7   8
HETATM    8  C   UNK N   1      22.716  13.349   4.359  0.00  0.00     0.087 C 
HETATM    9  C   UNK N   1      23.723  12.393   3.670  0.00  0.00     0.043 C 
HETATM   10  C   UNK N   1      25.170  12.592   4.161  0.00  0.00     0.009 C 
HETATM   11  C   UNK N   1      25.537  14.075   4.419  0.00  0.00     0.003 C 
HETATM   12  C   UNK N   1      24.380  14.847   5.119  0.00  0.00    -0.029 C 
HETATM   13  C   UNK N   1      26.093  14.806   3.160  0.00  0.00    -0.035 C 
HETATM   14  C   UNK N   1      24.823  16.266   5.465  0.00  0.00     0.011 C 
HETATM   15  C   UNK N   1      23.154  14.799   4.216  0.00  0.00     0.053 C 
HETATM   16  C   UNK N   1      23.893  14.132   6.386  0.00  0.00     0.046 C 
HETATM   17  C   UNK N   1      25.326  17.024   4.241  0.00  0.00     0.007 C 
HETATM   18  C   UNK N   1      26.452  16.280   3.498  0.00  0.00     0.013 C 
HETATM   19  C   UNK N   1      27.907  16.488   3.993  0.00  0.00     0.046 C 
HETATM   20  C   UNK N   1      28.870  16.017   2.880  0.00  0.00     0.020 C 
HETATM   21  C   UNK N   1      28.182  17.972   4.188  0.00  0.00     0.027 C 
HETATM   22  C   UNK N   1      28.313  14.937   1.937  0.00  0.00     0.002 C 
HETATM   23  C   UNK N   1      27.332  14.036   2.673  0.00  0.00     0.010 C 
HETATM   24  C   UNK N   1      22.874  13.187   5.838  0.00  0.00    -0.054 C 
HETATM   25  C   UNK N   1      22.564  12.058   6.476  0.00  0.00     0.017 C 
HETATM   26  C   UNK N   1      25.090  14.845   2.014  0.00  0.00     0.016 C 
BRANCH  19  27
HETATM   27  C   UNK N   1      28.187  15.771   5.303  0.00  0.00     0.148 C 
HETATM   28  O   UNK N   1      27.802  16.236   6.356  0.00  0.00    -0.649 OA
BRANCH  27  29
HETATM   29  O   UNK N   1      28.893  14.617   5.308  0.00  0.00    -0.776 OA
HETATM   30  H   UNK N   1      29.494  13.923   5.120  0.00  0.00     0.167 HD
ENDBRANCH  27  29
ENDBRANCH  19  27
ENDBRANCH   7   8
ENDBRANCH   1   7
BRANCH   2  31
HETATM   31  O   UNK N   1      19.419  15.132   3.724  0.00  0.00    -0.346 OA
BRANCH  31  32
HETATM   32  C   UNK N   1      20.187  15.994   4.509  0.00  0.00     0.292 C 
HETATM   33  C   UNK N   1      19.879  15.977   6.005  0.00  0.00     0.204 C 
HETATM   34  C   UNK N   1      21.009  16.783   6.666  0.00  0.00     0.183 C 
HETATM   35  C   UNK N   1      21.229  18.139   5.976  0.00  0.00     0.180 C 
HETATM   36  C   UNK N   1      21.310  17.905   4.459  0.00  0.00     0.179 C 
HETATM   37  O   UNK N   1      20.119  17.305   4.023  0.00  0.00    -0.348 OA
BRANCH  33  38
HETATM   38  O   UNK N   1      19.903  14.669   6.491  0.00  0.00    -0.388 OA
HETATM   39  H   UNK N   1      20.673  14.184   6.825  0.00  0.00     0.210 HD
ENDBRANCH  33  38
BRANCH  34  40
HETATM   40  O   UNK N   1      20.762  16.956   8.028  0.00  0.00    -0.390 OA
HETATM   41  H   UNK N   1      20.106  16.417   8.497  0.00  0.00     0.210 HD
ENDBRANCH  34  40
BRANCH  35  42
HETATM   42  O   UNK N   1      22.420  18.703   6.438  0.00  0.00    -0.390 OA
HETATM   43  H   UNK N   1      23.347  18.495   6.246  0.00  0.00     0.210 HD
ENDBRANCH  35  42
BRANCH  36  44
HETATM   44  C   UNK N   1      21.535  19.195   3.692  0.00  0.00     0.198 C 
BRANCH  44  45
HETATM   45  O   UNK N   1      20.688  20.187   4.188  0.00  0.00    -0.398 OA
HETATM   46  H   UNK N   1      21.045  20.980   4.617  0.00  0.00     0.209 HD
ENDBRANCH  44  45
ENDBRANCH  36  44
ENDBRANCH  31  32
ENDBRANCH   2  31
BRANCH   3  47
HETATM   47  O   UNK N   1      20.452  15.885   0.426  0.00  0.00    -0.390 OA
HETATM   48  H   UNK N   1      20.905  15.966  -0.427  0.00  0.00     0.210 HD
ENDBRANCH   3  47
BRANCH   5  49
HETATM   49  C   UNK N   1      18.788  11.517   0.608  0.00  0.00     0.198 C 
BRANCH  49  50
HETATM   50  O   UNK N   1      17.424  11.293   0.812  0.00  0.00    -0.398 OA
HETATM   51  H   UNK N   1      16.749  10.920   1.400  0.00  0.00     0.209 HD
ENDBRANCH  49  50
ENDBRANCH   5  49
BRANCH   4  52
HETATM   52  O   UNK N   1      17.614  14.188   0.406  0.00  0.00    -0.390 OA
HETATM   53  H   UNK N   1      16.804  14.638   0.690  0.00  0.00     0.210 HD
ENDBRANCH   4  52
TORSDOF 15
ENDMDL
MODEL 6
REMARK VINA RESULT:      -7.4      4.898     11.201
REMARK  15 active torsions:
REMARK  status: ('A' for Active; 'I' for Inactive)
REMARK    1  A    between atoms: C_6  and  C_43 
REMARK    2  A    between atoms: C_14  and  O_19 
REMARK    3  A    between atoms: C_20  and  O_19 
REMARK    4  A    between atoms: C_21  and  O_30 
REMARK    5  A    between atoms: C_22  and  O_29 
REMARK    6  A    between atoms: C_23  and  O_28 
REMARK    7  A    between atoms: C_24  and  C_26 
REMARK    8  A    between atoms: C_26  and  O_27 
REMARK    9  A    between atoms: C_31  and  O_30 
REMARK   10  A    between atoms: C_32  and  O_41 
REMARK   11  A    between atoms: C_33  and  O_40 
REMARK   12  A    between atoms: C_34  and  O_39 
REMARK   13  A    between atoms: C_35  and  C_37 
REMARK   14  A    between atoms: C_37  and  O_38 
REMARK   15  A    between atoms: C_43  and  O_45 
ROOT
HETATM    1  C   UNK N   1      25.274  16.112   4.543  0.00  0.00     0.293 C 
HETATM    2  C   UNK N   1      23.900  16.339   3.896  0.00  0.00     0.211 C 
HETATM    3  C   UNK N   1      23.249  15.073   3.327  0.00  0.00     0.183 C 
HETATM    4  C   UNK N   1      23.529  13.817   4.149  0.00  0.00     0.180 C 
HETATM    5  C   UNK N   1      24.427  14.098   5.354  0.00  0.00     0.179 C 
HETATM    6  O   UNK N   1      25.599  14.792   4.972  0.00  0.00    -0.348 OA
ENDROOT
BRANCH   1   7
HETATM    7  O   UNK N   1      25.699  17.212   5.347  0.00  0.00    -0.343 OA
BRANCH   7   8
HETATM    8  C   UNK N   1      27.098  17.366   5.529  0.00  0.00     0.087 C 
HETATM    9  C   UNK N   1      27.672  16.850   6.875  0.00  0.00     0.043 C 
HETATM   10  C   UNK N   1      29.187  17.089   7.010  0.00  0.00     0.009 C 
HETATM   11  C   UNK N   1      29.967  16.884   5.687  0.00  0.00     0.003 C 
HETATM   12  C   UNK N   1      29.206  17.479   4.465  0.00  0.00    -0.029 C 
HETATM   13  C   UNK N   1      30.437  15.414   5.464  0.00  0.00    -0.035 C 
HETATM   14  C   UNK N   1      30.058  17.366   3.204  0.00  0.00     0.011 C 
HETATM   15  C   UNK N   1      27.858  16.778   4.350  0.00  0.00     0.053 C 
HETATM   16  C   UNK N   1      28.807  18.943   4.692  0.00  0.00     0.046 C 
HETATM   17  C   UNK N   1      30.491  15.929   2.933  0.00  0.00     0.007 C 
HETATM   18  C   UNK N   1      31.222  15.289   4.128  0.00  0.00     0.013 C 
HETATM   19  C   UNK N   1      32.749  15.528   4.257  0.00  0.00     0.046 C 
HETATM   20  C   UNK N   1      33.323  14.479   5.236  0.00  0.00     0.020 C 
HETATM   21  C   UNK N   1      33.429  15.272   2.920  0.00  0.00     0.027 C 
HETATM   22  C   UNK N   1      32.334  13.944   6.286  0.00  0.00     0.002 C 
HETATM   23  C   UNK N   1      31.317  15.012   6.659  0.00  0.00     0.010 C 
HETATM   24  C   UNK N   1      27.493  18.802   5.388  0.00  0.00    -0.054 C 
HETATM   25  C   UNK N   1      27.033  19.759   6.195  0.00  0.00     0.017 C 
HETATM   26  C   UNK N   1      29.275  14.432   5.390  0.00  0.00     0.016 C 
BRANCH  19  27
HETATM   27  C   UNK N   1      33.084  16.940   4.705  0.00  0.00     0.148 C 
HETATM   28  O   UNK N   1      33.529  17.145   5.816  0.00  0.00    -0.649 OA
BRANCH  27  29
HETATM   29  O   UNK N   1      32.864  17.986   3.877  0.00  0.00    -0.776 OA
HETATM   30  H   UNK N   1      32.708  18.836   3.514  0.00  0.00     0.167 HD
ENDBRANCH  27  29
ENDBRANCH  19  27
ENDBRANCH   7   8
ENDBRANCH   1   7
BRANCH   2  31
HETATM   31  O   UNK N   1      23.030  17.069   4.711  0.00  0.00    -0.346 OA
BRANCH  31  32
HETATM   32  C   UNK N   1      22.457  17.936   3.779  0.00  0.00     0.292 C 
HETATM   33  C   UNK N   1      22.784  19.417   3.964  0.00  0.00     0.204 C 
HETATM   34  C   UNK N   1      22.275  20.112   2.692  0.00  0.00     0.183 C 
HETATM   35  C   UNK N   1      20.828  19.716   2.360  0.00  0.00     0.180 C 
HETATM   36  C   UNK N   1      20.714  18.185   2.431  0.00  0.00     0.179 C 
HETATM   37  O   UNK N   1      21.070  17.759   3.720  0.00  0.00    -0.348 OA
BRANCH  33  38
HETATM   38  O   UNK N   1      24.164  19.599   4.067  0.00  0.00    -0.388 OA
HETATM   39  H   UNK N   1      24.628  20.413   4.317  0.00  0.00     0.210 HD
ENDBRANCH  33  38
BRANCH  34  40
HETATM   40  O   UNK N   1      22.394  21.498   2.804  0.00  0.00    -0.390 OA
HETATM   41  H   UNK N   1      22.522  21.927   3.665  0.00  0.00     0.210 HD
ENDBRANCH  34  40
BRANCH  35  42
HETATM   42  O   UNK N   1      20.512  20.159   1.074  0.00  0.00    -0.390 OA
HETATM   43  H   UNK N   1      19.996  20.919   0.764  0.00  0.00     0.210 HD
ENDBRANCH  35  42
BRANCH  36  44
HETATM   44  C   UNK N   1      19.313  17.699   2.108  0.00  0.00     0.198 C 
BRANCH  44  45
HETATM   45  O   UNK N   1      18.390  18.704   2.403  0.00  0.00    -0.398 OA
HETATM   46  H   UNK N   1      17.526  18.733   1.963  0.00  0.00     0.209 HD
ENDBRANCH  44  45
ENDBRANCH  36  44
ENDBRANCH  31  32
ENDBRANCH   2  31
BRANCH   3  47
HETATM   47  O   UNK N   1      23.676  14.869   2.017  0.00  0.00    -0.390 OA
HETATM   48  H   UNK N   1      23.979  15.190   1.154  0.00  0.00     0.210 HD
ENDBRANCH   3  47
BRANCH   5  49
HETATM   49  C   UNK N   1      24.795  12.797   6.059  0.00  0.00     0.198 C 
BRANCH  49  50
HETATM   50  O   UNK N   1      23.845  12.481   7.033  0.00  0.00    -0.398 OA
HETATM   51  H   UNK N   1      22.921  12.566   7.313  0.00  0.00     0.209 HD
ENDBRANCH  49  50
ENDBRANCH   5  49
BRANCH   4  52
HETATM   52  O   UNK N   1      22.325  13.243   4.559  0.00  0.00    -0.390 OA
HETATM   53  H   UNK N   1      21.895  12.512   5.030  0.00  0.00     0.210 HD
ENDBRANCH   4  52
TORSDOF 15
ENDMDL
MODEL 7
REMARK VINA RESULT:      -7.4      2.985      6.933
REMARK  15 active torsions:
REMARK  status: ('A' for Active; 'I' for Inactive)
REMARK    1  A    between atoms: C_6  and  C_43 
REMARK    2  A    between atoms: C_14  and  O_19 
REMARK    3  A    between atoms: C_20  and  O_19 
REMARK    4  A    between atoms: C_21  and  O_30 
REMARK    5  A    between atoms: C_22  and  O_29 
REMARK    6  A    between atoms: C_23  and  O_28 
REMARK    7  A    between atoms: C_24  and  C_26 
REMARK    8  A    between atoms: C_26  and  O_27 
REMARK    9  A    between atoms: C_31  and  O_30 
REMARK   10  A    between atoms: C_32  and  O_41 
REMARK   11  A    between atoms: C_33  and  O_40 
REMARK   12  A    between atoms: C_34  and  O_39 
REMARK   13  A    between atoms: C_35  and  C_37 
REMARK   14  A    between atoms: C_37  and  O_38 
REMARK   15  A    between atoms: C_43  and  O_45 
ROOT
HETATM    1  C   UNK N   1      30.982  16.464   6.721  0.00  0.00     0.293 C 
HETATM    2  C   UNK N   1      31.885  16.419   7.962  0.00  0.00     0.211 C 
HETATM    3  C   UNK N   1      31.892  17.710   8.789  0.00  0.00     0.183 C 
HETATM    4  C   UNK N   1      30.541  18.422   8.828  0.00  0.00     0.180 C 
HETATM    5  C   UNK N   1      29.477  17.695   8.005  0.00  0.00     0.179 C 
HETATM    6  O   UNK N   1      29.933  17.429   6.692  0.00  0.00    -0.348 OA
ENDROOT
BRANCH   1   7
HETATM    7  O   UNK N   1      30.733  15.172   6.168  0.00  0.00    -0.343 OA
BRANCH   7   8
HETATM    8  C   UNK N   1      31.234  14.928   4.863  0.00  0.00     0.087 C 
HETATM    9  C   UNK N   1      32.476  15.756   4.443  0.00  0.00     0.043 C 
HETATM   10  C   UNK N   1      32.932  15.460   3.002  0.00  0.00     0.009 C 
HETATM   11  C   UNK N   1      32.806  13.968   2.606  0.00  0.00     0.003 C 
HETATM   12  C   UNK N   1      31.483  13.337   3.132  0.00  0.00    -0.029 C 
HETATM   13  C   UNK N   1      34.071  13.124   2.950  0.00  0.00    -0.035 C 
HETATM   14  C   UNK N   1      31.339  11.906   2.621  0.00  0.00     0.011 C 
HETATM   15  C   UNK N   1      31.472  13.440   4.652  0.00  0.00     0.053 C 
HETATM   16  C   UNK N   1      30.252  14.159   2.730  0.00  0.00     0.046 C 
HETATM   17  C   UNK N   1      32.541  11.043   2.987  0.00  0.00     0.007 C 
HETATM   18  C   UNK N   1      33.877  11.645   2.512  0.00  0.00     0.013 C 
HETATM   19  C   UNK N   1      34.335  11.340   1.062  0.00  0.00     0.046 C 
HETATM   20  C   UNK N   1      35.841  11.666   0.951  0.00  0.00     0.020 C 
HETATM   21  C   UNK N   1      34.204   9.851   0.779  0.00  0.00     0.027 C 
HETATM   22  C   UNK N   1      36.360  12.737   1.926  0.00  0.00     0.002 C 
HETATM   23  C   UNK N   1      35.274  13.757   2.230  0.00  0.00     0.010 C 
HETATM   24  C   UNK N   1      30.168  15.156   3.838  0.00  0.00    -0.054 C 
HETATM   25  C   UNK N   1      29.582  16.341   3.659  0.00  0.00     0.017 C 
HETATM   26  C   UNK N   1      34.377  13.109   4.442  0.00  0.00     0.016 C 
BRANCH  19  27
HETATM   27  C   UNK N   1      33.529  12.101   0.023  0.00  0.00     0.148 C 
HETATM   28  O   UNK N   1      32.403  11.750  -0.263  0.00  0.00    -0.649 OA
BRANCH  27  29
HETATM   29  O   UNK N   1      34.073  13.164  -0.613  0.00  0.00    -0.776 OA
HETATM   30  H   UNK N   1      34.487  13.978  -0.823  0.00  0.00     0.167 HD
ENDBRANCH  27  29
ENDBRANCH  19  27
ENDBRANCH   7   8
ENDBRANCH   1   7
BRANCH   2  31
HETATM   31  O   UNK N   1      31.673  15.283   8.748  0.00  0.00    -0.346 OA
BRANCH  31  32
HETATM   32  C   UNK N   1      32.981  14.821   8.907  0.00  0.00     0.292 C 
HETATM   33  C   UNK N   1      33.184  13.322   8.695  0.00  0.00     0.204 C 
HETATM   34  C   UNK N   1      34.706  13.115   8.658  0.00  0.00     0.183 C 
HETATM   35  C   UNK N   1      35.408  13.791   9.847  0.00  0.00     0.180 C 
HETATM   36  C   UNK N   1      34.885  15.232   9.966  0.00  0.00     0.179 C 
HETATM   37  O   UNK N   1      33.494  15.200  10.153  0.00  0.00    -0.348 OA
BRANCH  33  38
HETATM   38  O   UNK N   1      32.637  12.926   7.474  0.00  0.00    -0.388 OA
HETATM   39  H   UNK N   1      31.873  13.318   7.022  0.00  0.00     0.210 HD
ENDBRANCH  33  38
BRANCH  34  40
HETATM   40  O   UNK N   1      35.020  11.757   8.607  0.00  0.00    -0.390 OA
HETATM   41  H   UNK N   1      35.354  11.285   9.386  0.00  0.00     0.210 HD
ENDBRANCH  34  40
BRANCH  35  42
HETATM   42  O   UNK N   1      36.786  13.800   9.625  0.00  0.00    -0.390 OA
HETATM   43  H   UNK N   1      37.426  13.078   9.523  0.00  0.00     0.210 HD
ENDBRANCH  35  42
BRANCH  36  44
HETATM   44  C   UNK N   1      35.532  15.983  11.115  0.00  0.00     0.198 C 
BRANCH  44  45
HETATM   45  O   UNK N   1      36.875  16.223  10.820  0.00  0.00    -0.398 OA
HETATM   46  H   UNK N   1      37.191  17.119  10.626  0.00  0.00     0.209 HD
ENDBRANCH  44  45
ENDBRANCH  36  44
ENDBRANCH  31  32
ENDBRANCH   2  31
BRANCH   3  47
HETATM   47  O   UNK N   1      32.856  18.585   8.292  0.00  0.00    -0.390 OA
HETATM   48  H   UNK N   1      33.499  18.861   7.621  0.00  0.00     0.210 HD
ENDBRANCH   3  47
BRANCH   5  49
HETATM   49  C   UNK N   1      28.191  18.512   7.956  0.00  0.00     0.198 C 
BRANCH  49  50
HETATM   50  O   UNK N   1      27.479  18.380   9.151  0.00  0.00    -0.398 OA
HETATM   51  H   UNK N   1      27.534  18.245  10.109  0.00  0.00     0.209 HD
ENDBRANCH  49  50
ENDBRANCH   5  49
BRANCH   4  52
HETATM   52  O   UNK N   1      30.122  18.566  10.151  0.00  0.00    -0.390 OA
HETATM   53  H   UNK N   1      29.696  18.149  10.916  0.00  0.00     0.210 HD
ENDBRANCH   4  52
TORSDOF 15
ENDMDL
MODEL 8
REMARK VINA RESULT:      -7.4      2.256      3.142
REMARK  15 active torsions:
REMARK  status: ('A' for Active; 'I' for Inactive)
REMARK    1  A    between atoms: C_6  and  C_43 
REMARK    2  A    between atoms: C_14  and  O_19 
REMARK    3  A    between atoms: C_20  and  O_19 
REMARK    4  A    between atoms: C_21  and  O_30 
REMARK    5  A    between atoms: C_22  and  O_29 
REMARK    6  A    between atoms: C_23  and  O_28 
REMARK    7  A    between atoms: C_24  and  C_26 
REMARK    8  A    between atoms: C_26  and  O_27 
REMARK    9  A    between atoms: C_31  and  O_30 
REMARK   10  A    between atoms: C_32  and  O_41 
REMARK   11  A    between atoms: C_33  and  O_40 
REMARK   12  A    between atoms: C_34  and  O_39 
REMARK   13  A    between atoms: C_35  and  C_37 
REMARK   14  A    between atoms: C_37  and  O_38 
REMARK   15  A    between atoms: C_43  and  O_45 
ROOT
HETATM    1  C   UNK N   1      32.387  13.524   6.127  0.00  0.00     0.293 C 
HETATM    2  C   UNK N   1      33.253  13.742   7.376  0.00  0.00     0.211 C 
HETATM    3  C   UNK N   1      33.300  12.545   8.333  0.00  0.00     0.183 C 
HETATM    4  C   UNK N   1      33.273  11.192   7.625  0.00  0.00     0.180 C 
HETATM    5  C   UNK N   1      33.179  11.333   6.105  0.00  0.00     0.179 C 
HETATM    6  O   UNK N   1      32.111  12.183   5.732  0.00  0.00    -0.348 OA
ENDROOT
BRANCH   1   7
HETATM    7  O   UNK N   1      32.623  14.498   5.110  0.00  0.00    -0.343 OA
BRANCH   7   8
HETATM    8  C   UNK N   1      31.529  15.331   4.758  0.00  0.00     0.087 C 
HETATM    9  C   UNK N   1      31.193  15.413   3.247  0.00  0.00     0.043 C 
HETATM   10  C   UNK N   1      30.020  16.366   2.946  0.00  0.00     0.009 C 
HETATM   11  C   UNK N   1      28.892  16.312   4.006  0.00  0.00     0.003 C 
HETATM   12  C   UNK N   1      29.458  16.232   5.454  0.00  0.00    -0.029 C 
HETATM   13  C   UNK N   1      27.808  15.232   3.706  0.00  0.00    -0.035 C 
HETATM   14  C   UNK N   1      28.322  16.304   6.471  0.00  0.00     0.011 C 
HETATM   15  C   UNK N   1      30.297  14.967   5.573  0.00  0.00     0.053 C 
HETATM   16  C   UNK N   1      30.479  17.342   5.737  0.00  0.00     0.046 C 
HETATM   17  C   UNK N   1      27.270  15.225   6.233  0.00  0.00     0.007 C 
HETATM   18  C   UNK N   1      26.704  15.248   4.801  0.00  0.00     0.013 C 
HETATM   19  C   UNK N   1      25.520  16.205   4.504  0.00  0.00     0.046 C 
HETATM   20  C   UNK N   1      24.859  15.761   3.180  0.00  0.00     0.020 C 
HETATM   21  C   UNK N   1      24.453  16.058   5.578  0.00  0.00     0.027 C 
HETATM   22  C   UNK N   1      25.782  15.027   2.193  0.00  0.00     0.002 C 
HETATM   23  C   UNK N   1      27.212  15.530   2.320  0.00  0.00     0.010 C 
HETATM   24  C   UNK N   1      31.749  16.726   5.251  0.00  0.00    -0.054 C 
HETATM   25  C   UNK N   1      32.773  17.480   4.847  0.00  0.00     0.017 C 
HETATM   26  C   UNK N   1      28.381  13.821   3.673  0.00  0.00     0.016 C 
BRANCH  19  27
HETATM   27  C   UNK N   1      25.947  17.662   4.444  0.00  0.00     0.148 C 
HETATM   28  O   UNK N   1      26.089  18.219   3.376  0.00  0.00    -0.649 OA
BRANCH  27  29
HETATM   29  O   UNK N   1      26.198  18.344   5.585  0.00  0.00    -0.776 OA
HETATM   30  H   UNK N   1      26.301  18.604   6.479  0.00  0.00     0.167 HD
ENDBRANCH  27  29
ENDBRANCH  19  27
ENDBRANCH   7   8
ENDBRANCH   1   7
BRANCH   2  31
HETATM   31  O   UNK N   1      34.525  14.237   7.076  0.00  0.00    -0.346 OA
BRANCH  31  32
HETATM   32  C   UNK N   1      34.963  14.631   8.342  0.00  0.00     0.292 C 
HETATM   33  C   UNK N   1      35.048  16.138   8.574  0.00  0.00     0.204 C 
HETATM   34  C   UNK N   1      35.283  16.309  10.083  0.00  0.00     0.183 C 
HETATM   35  C   UNK N   1      36.431  15.422  10.590  0.00  0.00     0.180 C 
HETATM   36  C   UNK N   1      36.216  13.996  10.057  0.00  0.00     0.179 C 
HETATM   37  O   UNK N   1      36.188  14.031   8.654  0.00  0.00    -0.348 OA
BRANCH  33  38
HETATM   38  O   UNK N   1      33.844  16.752   8.224  0.00  0.00    -0.388 OA
HETATM   39  H   UNK N   1      32.950  16.395   8.345  0.00  0.00     0.210 HD
ENDBRANCH  33  38
BRANCH  34  40
HETATM   40  O   UNK N   1      35.517  17.648  10.398  0.00  0.00    -0.390 OA
HETATM   41  H   UNK N   1      35.123  18.060  11.183  0.00  0.00     0.210 HD
ENDBRANCH  34  40
BRANCH  35  42
HETATM   42  O   UNK N   1      36.427  15.417  11.986  0.00  0.00    -0.390 OA
HETATM   43  H   UNK N   1      35.754  15.138  12.626  0.00  0.00     0.210 HD
ENDBRANCH  35  42
BRANCH  36  44
HETATM   44  C   UNK N   1      37.304  13.043  10.516  0.00  0.00     0.198 C 
BRANCH  44  45
HETATM   45  O   UNK N   1      38.482  13.756  10.750  0.00  0.00    -0.398 OA
HETATM   46  H   UNK N   1      38.615  14.637  10.370  0.00  0.00     0.209 HD
ENDBRANCH  44  45
ENDBRANCH  36  44
ENDBRANCH  31  32
ENDBRANCH   2  31
BRANCH   3  47
HETATM   47  O   UNK N   1      32.236  12.613   9.229  0.00  0.00    -0.390 OA
HETATM   48  H   UNK N   1      31.335  12.389   9.509  0.00  0.00     0.210 HD
ENDBRANCH   3  47
BRANCH   5  49
HETATM   49  C   UNK N   1      33.012   9.965   5.452  0.00  0.00     0.198 C 
BRANCH  49  50
HETATM   50  O   UNK N   1      33.737   9.897   4.260  0.00  0.00    -0.398 OA
HETATM   51  H   UNK N   1      34.178  10.399   3.557  0.00  0.00     0.209 HD
ENDBRANCH  49  50
ENDBRANCH   5  49
BRANCH   4  52
HETATM   52  O   UNK N   1      34.403  10.452   7.978  0.00  0.00    -0.390 OA
HETATM   53  H   UNK N   1      35.030   9.760   7.720  0.00  0.00     0.210 HD
ENDBRANCH   4  52
TORSDOF 15
ENDMDL
MODEL 9
REMARK VINA RESULT:      -7.4      5.539     11.023
REMARK  15 active torsions:
REMARK  status: ('A' for Active; 'I' for Inactive)
REMARK    1  A    between atoms: C_6  and  C_43 
REMARK    2  A    between atoms: C_14  and  O_19 
REMARK    3  A    between atoms: C_20  and  O_19 
REMARK    4  A    between atoms: C_21  and  O_30 
REMARK    5  A    between atoms: C_22  and  O_29 
REMARK    6  A    between atoms: C_23  and  O_28 
REMARK    7  A    between atoms: C_24  and  C_26 
REMARK    8  A    between atoms: C_26  and  O_27 
REMARK    9  A    between atoms: C_31  and  O_30 
REMARK   10  A    between atoms: C_32  and  O_41 
REMARK   11  A    between atoms: C_33  and  O_40 
REMARK   12  A    between atoms: C_34  and  O_39 
REMARK   13  A    between atoms: C_35  and  C_37 
REMARK   14  A    between atoms: C_37  and  O_38 
REMARK   15  A    between atoms: C_43  and  O_45 
ROOT
HETATM    1  C   UNK N   1      25.105  15.400   5.341  0.00  0.00     0.293 C 
HETATM    2  C   UNK N   1      23.672  15.854   5.030  0.00  0.00     0.211 C 
HETATM    3  C   UNK N   1      22.613  14.754   5.168  0.00  0.00     0.183 C 
HETATM    4  C   UNK N   1      22.894  13.771   6.303  0.00  0.00     0.180 C 
HETATM    5  C   UNK N   1      24.194  14.090   7.040  0.00  0.00     0.179 C 
HETATM    6  O   UNK N   1      25.276  14.232   6.140  0.00  0.00    -0.348 OA
ENDROOT
BRANCH   1   7
HETATM    7  O   UNK N   1      26.004  16.492   5.532  0.00  0.00    -0.343 OA
BRANCH   7   8
HETATM    8  C   UNK N   1      27.229  16.442   4.818  0.00  0.00     0.087 C 
HETATM    9  C   UNK N   1      28.002  17.781   4.692  0.00  0.00     0.043 C 
HETATM   10  C   UNK N   1      29.299  17.648   3.871  0.00  0.00     0.009 C 
HETATM   11  C   UNK N   1      30.055  16.320   4.120  0.00  0.00     0.003 C 
HETATM   12  C   UNK N   1      29.084  15.106   4.213  0.00  0.00    -0.029 C 
HETATM   13  C   UNK N   1      31.067  16.393   5.304  0.00  0.00    -0.035 C 
HETATM   14  C   UNK N   1      29.873  13.805   4.336  0.00  0.00     0.011 C 
HETATM   15  C   UNK N   1      28.126  15.345   5.374  0.00  0.00     0.053 C 
HETATM   16  C   UNK N   1      28.140  15.029   3.006  0.00  0.00     0.046 C 
HETATM   17  C   UNK N   1      30.836  13.828   5.519  0.00  0.00     0.007 C 
HETATM   18  C   UNK N   1      31.797  15.032   5.483  0.00  0.00     0.013 C 
HETATM   19  C   UNK N   1      33.104  14.892   4.660  0.00  0.00     0.046 C 
HETATM   20  C   UNK N   1      34.078  16.007   5.105  0.00  0.00     0.020 C 
HETATM   21  C   UNK N   1      33.790  13.575   4.995  0.00  0.00     0.027 C 
HETATM   22  C   UNK N   1      33.417  17.277   5.665  0.00  0.00     0.002 C 
HETATM   23  C   UNK N   1      32.070  17.519   5.002  0.00  0.00     0.010 C 
HETATM   24  C   UNK N   1      27.014  15.910   3.437  0.00  0.00    -0.054 C 
HETATM   25  C   UNK N   1      26.233  16.520   2.544  0.00  0.00     0.017 C 
HETATM   26  C   UNK N   1      30.393  16.713   6.632  0.00  0.00     0.016 C 
BRANCH  19  27
HETATM   27  C   UNK N   1      32.860  14.941   3.162  0.00  0.00     0.148 C 
HETATM   28  O   UNK N   1      32.398  13.980   2.581  0.00  0.00    -0.649 OA
BRANCH  27  29
HETATM   29  O   UNK N   1      33.178  16.050   2.457  0.00  0.00    -0.776 OA
HETATM   30  H   UNK N   1      33.348  16.672   1.777  0.00  0.00     0.167 HD
ENDBRANCH  27  29
ENDBRANCH  19  27
ENDBRANCH   7   8
ENDBRANCH   1   7
BRANCH   2  31
HETATM   31  O   UNK N   1      23.315  17.027   5.701  0.00  0.00    -0.346 OA
BRANCH  31  32
HETATM   32  C   UNK N   1      22.844  17.807   4.642  0.00  0.00     0.292 C 
HETATM   33  C   UNK N   1      23.455  19.202   4.525  0.00  0.00     0.204 C 
HETATM   34  C   UNK N   1      22.990  19.741   3.164  0.00  0.00     0.183 C 
HETATM   35  C   UNK N   1      21.473  19.585   2.972  0.00  0.00     0.180 C 
HETATM   36  C   UNK N   1      21.081  18.146   3.342  0.00  0.00     0.179 C 
HETATM   37  O   UNK N   1      21.448  17.899   4.674  0.00  0.00    -0.348 OA
BRANCH  33  38
HETATM   38  O   UNK N   1      24.849  19.123   4.536  0.00  0.00    -0.388 OA
HETATM   39  H   UNK N   1      25.402  18.501   4.040  0.00  0.00     0.210 HD
ENDBRANCH  33  38
BRANCH  34  40
HETATM   40  O   UNK N   1      23.373  21.073   3.002  0.00  0.00    -0.390 OA
HETATM   41  H   UNK N   1      22.720  21.790   2.988  0.00  0.00     0.210 HD
ENDBRANCH  34  40
BRANCH  35  42
HETATM   42  O   UNK N   1      21.148  19.841   1.638  0.00  0.00    -0.390 OA
HETATM   43  H   UNK N   1      20.537  19.400   1.028  0.00  0.00     0.210 HD
ENDBRANCH  35  42
BRANCH  36  44
HETATM   44  C   UNK N   1      19.593  17.895   3.174  0.00  0.00     0.198 C 
BRANCH  44  45
HETATM   45  O   UNK N   1      19.271  17.886   1.815  0.00  0.00    -0.398 OA
HETATM   46  H   UNK N   1      18.808  17.133   1.418  0.00  0.00     0.209 HD
ENDBRANCH  44  45
ENDBRANCH  36  44
ENDBRANCH  31  32
ENDBRANCH   2  31
BRANCH   3  47
HETATM   47  O   UNK N   1      22.502  14.050   3.970  0.00  0.00    -0.390 OA
HETATM   48  H   UNK N   1      22.060  13.851   3.131  0.00  0.00     0.210 HD
ENDBRANCH   3  47
BRANCH   5  49
HETATM   49  C   UNK N   1      24.506  13.006   8.066  0.00  0.00     0.198 C 
BRANCH  49  50
HETATM   50  O   UNK N   1      23.905  13.303   9.292  0.00  0.00    -0.398 OA
HETATM   51  H   UNK N   1      23.280  13.874   9.764  0.00  0.00     0.209 HD
ENDBRANCH  49  50
ENDBRANCH   5  49
BRANCH   4  52
HETATM   52  O   UNK N   1      21.818  13.757   7.192  0.00  0.00    -0.390 OA
HETATM   53  H   UNK N   1      21.263  14.270   7.799  0.00  0.00     0.210 HD
ENDBRANCH   4  52
TORSDOF 15
ENDMDL
