MODEL 1
REMARK VINA RESULT:      -7.3      0.000      0.000
REMARK  8 active torsions:
REMARK  status: ('A' for Active; 'I' for Inactive)
REMARK    1  A    between atoms: C_4  and  C_3 
REMARK    2  A    between atoms: C_5  and  C_3 
REMARK    3  A    between atoms: N_21  and  C_4 
REMARK    4  A    between atoms: N_28  and  C_5 
REMARK    5  A    between atoms: N_21  and  C_10 
REMARK    6  A    between atoms: S_31  and  C_14 
REMARK    7  A    between atoms: N_20  and  C_16 
REMARK    8  A    between atoms: S_31  and  C_18 
ROOT
HETATM    1  C   UNK N   1      21.296  20.925   1.922  0.00  0.00     0.183 A 
HETATM    2  C   UNK N   1      21.084  18.520   3.180  0.00  0.00     0.123 A 
HETATM    3  C   UNK N   1      20.022  18.969   2.412  0.00  0.00     0.131 A 
HETATM    4  C   UNK N   1      22.197  19.275   3.307  0.00  0.00     0.141 A 
HETATM    5  C   UNK N   1      22.447  17.490   4.452  0.00  0.00     0.153 A 
HETATM    6  N   UNK N   1      20.148  20.179   1.790  0.00  0.00    -0.337 N 
ATOM      7  HN  UNK N   1      19.381  20.532   1.218  1.00  0.00     0.168 HD
HETATM    8  N   UNK N   1      22.335  20.475   2.694  0.00  0.00    -0.336 N 
ATOM      9  HN  UNK N   1      23.187  21.027   2.803  1.00  0.00     0.168 HD
HETATM   10  N   UNK N   1      21.215  17.381   3.881  0.00  0.00    -0.330 N 
ATOM     11  HN  UNK N   1      20.549  16.615   3.967  1.00  0.00     0.168 HD
HETATM   12  N   UNK N   1      23.071  18.651   4.109  0.00  0.00    -0.311 N 
ENDROOT
BRANCH   5  13
HETATM   13  S   UNK N   1      23.178  16.188   5.463  0.00  0.00    -0.052 SA
BRANCH  13  14
HETATM   14  C   UNK N   1      21.872  15.982   6.692  0.00  0.00     0.027 A 
HETATM   15  C   UNK N   1      21.082  17.082   7.087  0.00  0.00     0.060 A 
HETATM   16  C   UNK N   1      20.060  16.861   8.000  0.00  0.00     0.106 A 
HETATM   17  C   UNK N   1      19.800  15.650   8.503  0.00  0.00     0.106 A 
HETATM   18  O   UNK N   1      19.200  17.741   8.509  0.00  0.00    -0.323 OA
HETATM   19  C   UNK N   1      20.538  14.526   8.150  0.00  0.00     0.059 A 
HETATM   20  O   UNK N   1      18.768  15.734   9.340  0.00  0.00    -0.323 OA
HETATM   21  C   UNK N   1      21.591  14.691   7.230  0.00  0.00     0.026 A 
HETATM   22  I   UNK N   1      22.691  12.971   6.668  0.00  0.00    -0.043 I 
HETATM   23  C   UNK N   1      18.341  17.066   9.382  0.00  0.00     0.352 A 
ENDBRANCH  13  14
ENDBRANCH   5  13
BRANCH  12  24
HETATM   24  C   UNK N   1      24.385  19.146   4.517  0.00  0.00     0.134 C 
BRANCH  24  25
HETATM   25  C   UNK N   1      25.397  19.055   3.386  0.00  0.00     0.039 C 
BRANCH  25  26
HETATM   26  C   UNK N   1      26.373  20.207   3.431  0.00  0.00     0.115 C 
BRANCH  26  27
HETATM   27  N   UNK N   1      27.673  19.709   3.867  0.00  0.00    -0.418 N 
HETATM   28  H   UNK N   1      28.299  19.146   3.292  0.00  0.00     0.153 HD
BRANCH  27  29
HETATM   29  C   UNK N   1      27.962  20.124   5.243  0.00  0.00     0.068 C 
HETATM   30  C   UNK N   1      27.094  21.293   5.674  0.00  0.00     0.031 C 
HETATM   31  C   UNK N   1      27.867  18.969   6.231  0.00  0.00     0.031 C 
ENDBRANCH  27  29
ENDBRANCH  26  27
ENDBRANCH  25  26
ENDBRANCH  24  25
ENDBRANCH  12  24
BRANCH   3  32
HETATM   32  N   UNK N   1      18.839  18.213   2.283  0.00  0.00    -0.383 N 
HETATM   33  H   UNK N   1      18.641  17.252   2.374  0.00  0.00     0.157 HD
HETATM   34  H   UNK N   1      18.049  18.757   2.059  0.00  0.00     0.157 HD
ENDBRANCH   3  32
TORSDOF 8
ENDMDL
MODEL 2
REMARK VINA RESULT:      -6.7      1.914      2.329
REMARK  8 active torsions:
REMARK  status: ('A' for Active; 'I' for Inactive)
REMARK    1  A    between atoms: C_4  and  C_3 
REMARK    2  A    between atoms: C_5  and  C_3 
REMARK    3  A    between atoms: N_21  and  C_4 
REMARK    4  A    between atoms: N_28  and  C_5 
REMARK    5  A    between atoms: N_21  and  C_10 
REMARK    6  A    between atoms: S_31  and  C_14 
REMARK    7  A    between atoms: N_20  and  C_16 
REMARK    8  A    between atoms: S_31  and  C_18 
ROOT
HETATM    1  C   UNK N   1      21.532  20.105   3.112  0.00  0.00     0.183 A 
HETATM    2  C   UNK N   1      21.086  17.424   2.952  0.00  0.00     0.123 A 
HETATM    3  C   UNK N   1      20.191  18.288   2.343  0.00  0.00     0.131 A 
HETATM    4  C   UNK N   1      22.152  17.912   3.622  0.00  0.00     0.141 A 
HETATM    5  C   UNK N   1      22.179  15.781   3.752  0.00  0.00     0.153 A 
HETATM    6  N   UNK N   1      20.433  19.630   2.435  0.00  0.00    -0.337 N 
ATOM      7  HN  UNK N   1      19.790  20.288   1.995  1.00  0.00     0.168 HD
HETATM    8  N   UNK N   1      22.404  19.239   3.720  0.00  0.00    -0.336 N 
ATOM      9  HN  UNK N   1      23.217  19.584   4.231  1.00  0.00     0.168 HD
HETATM   10  N   UNK N   1      21.082  16.081   3.005  0.00  0.00    -0.330 N 
ATOM     11  HN  UNK N   1      20.412  15.437   2.585  1.00  0.00     0.168 HD
HETATM   12  N   UNK N   1      22.856  16.896   4.143  0.00  0.00    -0.311 N 
ENDROOT
BRANCH   5  13
HETATM   13  S   UNK N   1      22.705  14.088   4.088  0.00  0.00    -0.052 SA
BRANCH  13  14
HETATM   14  C   UNK N   1      22.439  14.032   5.873  0.00  0.00     0.027 A 
HETATM   15  C   UNK N   1      21.157  14.269   6.413  0.00  0.00     0.060 A 
HETATM   16  C   UNK N   1      20.996  14.167   7.789  0.00  0.00     0.106 A 
HETATM   17  C   UNK N   1      22.005  13.848   8.605  0.00  0.00     0.106 A 
HETATM   18  O   UNK N   1      19.890  14.348   8.507  0.00  0.00    -0.323 OA
HETATM   19  C   UNK N   1      23.289  13.598   8.135  0.00  0.00     0.059 A 
HETATM   20  O   UNK N   1      21.561  13.815   9.859  0.00  0.00    -0.323 OA
HETATM   21  C   UNK N   1      23.513  13.691   6.747  0.00  0.00     0.026 A 
HETATM   22  I   UNK N   1      25.462  13.276   6.031  0.00  0.00    -0.043 I 
HETATM   23  C   UNK N   1      20.198  14.132   9.854  0.00  0.00     0.352 A 
ENDBRANCH  13  14
ENDBRANCH   5  13
BRANCH  12  24
HETATM   24  C   UNK N   1      24.066  17.003   4.957  0.00  0.00     0.134 C 
BRANCH  24  25
HETATM   25  C   UNK N   1      25.324  16.809   4.124  0.00  0.00     0.039 C 
BRANCH  25  26
HETATM   26  C   UNK N   1      26.176  18.057   4.123  0.00  0.00     0.115 C 
BRANCH  26  27
HETATM   27  N   UNK N   1      25.741  18.927   5.211  0.00  0.00    -0.418 N 
HETATM   28  H   UNK N   1      25.389  18.597   6.109  0.00  0.00     0.153 HD
BRANCH  27  29
HETATM   29  C   UNK N   1      25.877  20.339   4.841  0.00  0.00     0.068 C 
HETATM   30  C   UNK N   1      26.803  21.083   5.787  0.00  0.00     0.031 C 
HETATM   31  C   UNK N   1      26.302  20.522   3.390  0.00  0.00     0.031 C 
ENDBRANCH  27  29
ENDBRANCH  26  27
ENDBRANCH  25  26
ENDBRANCH  24  25
ENDBRANCH  12  24
BRANCH   3  32
HETATM   32  N   UNK N   1      19.057  17.806   1.658  0.00  0.00    -0.383 N 
HETATM   33  H   UNK N   1      18.370  17.136   1.881  0.00  0.00     0.157 HD
HETATM   34  H   UNK N   1      18.923  18.227   0.778  0.00  0.00     0.157 HD
ENDBRANCH   3  32
TORSDOF 8
ENDMDL
MODEL 3
REMARK VINA RESULT:      -6.6      4.413      7.706
REMARK  8 active torsions:
REMARK  status: ('A' for Active; 'I' for Inactive)
REMARK    1  A    between atoms: C_4  and  C_3 
REMARK    2  A    between atoms: C_5  and  C_3 
REMARK    3  A    between atoms: N_21  and  C_4 
REMARK    4  A    between atoms: N_28  and  C_5 
REMARK    5  A    between atoms: N_21  and  C_10 
REMARK    6  A    between atoms: S_31  and  C_14 
REMARK    7  A    between atoms: N_20  and  C_16 
REMARK    8  A    between atoms: S_31  and  C_18 
ROOT
HETATM    1  C   UNK N   1      20.773  15.346   7.851  0.00  0.00     0.183 A 
HETATM    2  C   UNK N   1      22.578  16.628   6.267  0.00  0.00     0.123 A 
HETATM    3  C   UNK N   1      21.379  17.257   6.557  0.00  0.00     0.131 A 
HETATM    4  C   UNK N   1      22.834  15.394   6.755  0.00  0.00     0.141 A 
HETATM    5  C   UNK N   1      24.496  16.018   5.568  0.00  0.00     0.153 A 
HETATM    6  N   UNK N   1      20.487  16.597   7.354  0.00  0.00    -0.337 N 
ATOM      7  HN  UNK N   1      19.596  17.038   7.584  1.00  0.00     0.168 HD
HETATM    8  N   UNK N   1      21.959  14.730   7.546  0.00  0.00    -0.336 N 
ATOM      9  HN  UNK N   1      22.174  13.799   7.905  1.00  0.00     0.168 HD
HETATM   10  N   UNK N   1      23.614  17.055   5.524  0.00  0.00    -0.330 N 
ATOM     11  HN  UNK N   1      23.716  17.946   5.039  1.00  0.00     0.168 HD
HETATM   12  N   UNK N   1      24.035  14.984   6.324  0.00  0.00    -0.311 N 
ENDROOT
BRANCH   5  13
HETATM   13  S   UNK N   1      26.120  16.078   4.785  0.00  0.00    -0.052 SA
BRANCH  13  14
HETATM   14  C   UNK N   1      26.993  17.128   5.966  0.00  0.00     0.027 A 
HETATM   15  C   UNK N   1      27.560  16.574   7.133  0.00  0.00     0.060 A 
HETATM   16  C   UNK N   1      28.261  17.417   7.985  0.00  0.00     0.106 A 
HETATM   17  C   UNK N   1      28.420  18.719   7.731  0.00  0.00     0.106 A 
HETATM   18  O   UNK N   1      28.872  17.115   9.129  0.00  0.00    -0.323 OA
HETATM   19  C   UNK N   1      27.890  19.324   6.597  0.00  0.00     0.059 A 
HETATM   20  O   UNK N   1      29.136  19.273   8.707  0.00  0.00    -0.323 OA
HETATM   21  C   UNK N   1      27.164  18.519   5.698  0.00  0.00     0.026 A 
HETATM   22  I   UNK N   1      26.388  19.436   3.955  0.00  0.00    -0.043 I 
HETATM   23  C   UNK N   1      29.455  18.279   9.638  0.00  0.00     0.352 A 
ENDBRANCH  13  14
ENDBRANCH   5  13
BRANCH  12  24
HETATM   24  C   UNK N   1      24.669  13.697   6.610  0.00  0.00     0.134 C 
BRANCH  24  25
HETATM   25  C   UNK N   1      25.244  13.652   8.017  0.00  0.00     0.039 C 
BRANCH  25  26
HETATM   26  C   UNK N   1      24.559  12.598   8.854  0.00  0.00     0.115 C 
BRANCH  26  27
HETATM   27  N   UNK N   1      24.310  13.140  10.186  0.00  0.00    -0.418 N 
HETATM   28  H   UNK N   1      24.939  13.773  10.679  0.00  0.00     0.153 HD
BRANCH  27  29
HETATM   29  C   UNK N   1      23.034  12.655  10.721  0.00  0.00     0.068 C 
HETATM   30  C   UNK N   1      22.292  11.792   9.717  0.00  0.00     0.031 C 
HETATM   31  C   UNK N   1      23.199  11.937  12.055  0.00  0.00     0.031 C 
ENDBRANCH  27  29
ENDBRANCH  26  27
ENDBRANCH  25  26
ENDBRANCH  24  25
ENDBRANCH  12  24
BRANCH   3  32
HETATM   32  N   UNK N   1      21.077  18.534   6.041  0.00  0.00    -0.383 N 
HETATM   33  H   UNK N   1      21.366  19.443   6.283  0.00  0.00     0.157 HD
HETATM   34  H   UNK N   1      20.449  18.510   5.282  0.00  0.00     0.157 HD
ENDBRANCH   3  32
TORSDOF 8
ENDMDL
MODEL 4
REMARK VINA RESULT:      -6.5      9.189     12.767
REMARK  8 active torsions:
REMARK  status: ('A' for Active; 'I' for Inactive)
REMARK    1  A    between atoms: C_4  and  C_3 
REMARK    2  A    between atoms: C_5  and  C_3 
REMARK    3  A    between atoms: N_21  and  C_4 
REMARK    4  A    between atoms: N_28  and  C_5 
REMARK    5  A    between atoms: N_21  and  C_10 
REMARK    6  A    between atoms: S_31  and  C_14 
REMARK    7  A    between atoms: N_20  and  C_16 
REMARK    8  A    between atoms: S_31  and  C_18 
ROOT
HETATM    1  C   UNK N   1      35.917  12.439  10.151  0.00  0.00     0.183 A 
HETATM    2  C   UNK N   1      35.413  15.106   9.940  0.00  0.00     0.123 A 
HETATM    3  C   UNK N   1      35.911  14.612  11.134  0.00  0.00     0.131 A 
HETATM    4  C   UNK N   1      35.172  14.269   8.907  0.00  0.00     0.141 A 
HETATM    5  C   UNK N   1      34.634  16.251   8.322  0.00  0.00     0.153 A 
HETATM    6  N   UNK N   1      36.157  13.272  11.220  0.00  0.00    -0.337 N 
ATOM      7  HN  UNK N   1      36.525  12.882  12.088  1.00  0.00     0.168 HD
HETATM    8  N   UNK N   1      35.413  12.939   8.978  0.00  0.00    -0.336 N 
ATOM      9  HN  UNK N   1      35.225  12.326   8.184  1.00  0.00     0.168 HD
HETATM   10  N   UNK N   1      35.094  16.367   9.598  0.00  0.00    -0.330 N 
ATOM     11  HN  UNK N   1      35.178  17.212  10.162  1.00  0.00     0.168 HD
HETATM   12  N   UNK N   1      34.675  14.965   7.875  0.00  0.00    -0.311 N 
ENDROOT
BRANCH   5  13
HETATM   13  S   UNK N   1      34.126  17.670   7.330  0.00  0.00    -0.052 SA
BRANCH  13  14
HETATM   14  C   UNK N   1      32.333  17.474   7.409  0.00  0.00     0.027 A 
HETATM   15  C   UNK N   1      31.659  17.550   8.647  0.00  0.00     0.060 A 
HETATM   16  C   UNK N   1      30.275  17.440   8.647  0.00  0.00     0.106 A 
HETATM   17  C   UNK N   1      29.571  17.276   7.524  0.00  0.00     0.106 A 
HETATM   18  O   UNK N   1      29.443  17.481   9.685  0.00  0.00    -0.323 OA
HETATM   19  C   UNK N   1      30.174  17.199   6.273  0.00  0.00     0.059 A 
HETATM   20  O   UNK N   1      28.275  17.211   7.823  0.00  0.00    -0.323 OA
HETATM   21  C   UNK N   1      31.578  17.299   6.212  0.00  0.00     0.026 A 
HETATM   22  I   UNK N   1      32.491  17.216   4.304  0.00  0.00    -0.043 I 
HETATM   23  C   UNK N   1      28.136  17.339   9.209  0.00  0.00     0.352 A 
ENDBRANCH  13  14
ENDBRANCH   5  13
BRANCH  12  24
HETATM   24  C   UNK N   1      34.263  14.426   6.579  0.00  0.00     0.134 C 
BRANCH  24  25
HETATM   25  C   UNK N   1      32.871  13.815   6.640  0.00  0.00     0.039 C 
BRANCH  25  26
HETATM   26  C   UNK N   1      32.833  12.473   5.948  0.00  0.00     0.115 C 
BRANCH  26  27
HETATM   27  N   UNK N   1      31.519  12.291   5.341  0.00  0.00    -0.418 N 
HETATM   28  H   UNK N   1      30.966  11.437   5.404  0.00  0.00     0.153 HD
BRANCH  27  29
HETATM   29  C   UNK N   1      31.098  13.500   4.627  0.00  0.00     0.068 C 
HETATM   30  C   UNK N   1      31.467  13.445   3.155  0.00  0.00     0.031 C 
HETATM   31  C   UNK N   1      29.617  13.801   4.816  0.00  0.00     0.031 C 
ENDBRANCH  27  29
ENDBRANCH  26  27
ENDBRANCH  25  26
ENDBRANCH  24  25
ENDBRANCH  12  24
BRANCH   3  32
HETATM   32  N   UNK N   1      36.147  15.460  12.236  0.00  0.00    -0.383 N 
HETATM   33  H   UNK N   1      35.624  16.182  12.654  0.00  0.00     0.157 HD
HETATM   34  H   UNK N   1      37.011  15.295  12.678  0.00  0.00     0.157 HD
ENDBRANCH   3  32
TORSDOF 8
ENDMDL
MODEL 5
REMARK VINA RESULT:      -6.4      2.256      3.106
REMARK  8 active torsions:
REMARK  status: ('A' for Active; 'I' for Inactive)
REMARK    1  A    between atoms: C_4  and  C_3 
REMARK    2  A    between atoms: C_5  and  C_3 
REMARK    3  A    between atoms: N_21  and  C_4 
REMARK    4  A    between atoms: N_28  and  C_5 
REMARK    5  A    between atoms: N_21  and  C_10 
REMARK    6  A    between atoms: S_31  and  C_14 
REMARK    7  A    between atoms: N_20  and  C_16 
REMARK    8  A    between atoms: S_31  and  C_18 
ROOT
HETATM    1  C   UNK N   1      19.787  16.159   0.425  0.00  0.00     0.183 A 
HETATM    2  C   UNK N   1      20.666  17.281   2.744  0.00  0.00     0.123 A 
HETATM    3  C   UNK N   1      19.707  17.948   2.000  0.00  0.00     0.131 A 
HETATM    4  C   UNK N   1      21.160  16.101   2.312  0.00  0.00     0.141 A 
HETATM    5  C   UNK N   1      22.121  16.614   4.149  0.00  0.00     0.153 A 
HETATM    6  N   UNK N   1      19.279  17.369   0.839  0.00  0.00    -0.337 N 
ATOM      7  HN  UNK N   1      18.573  17.839   0.273  1.00  0.00     0.168 HD
HETATM    8  N   UNK N   1      20.744  15.515   1.164  0.00  0.00    -0.336 N 
ATOM      9  HN  UNK N   1      21.132  14.621   0.859  1.00  0.00     0.168 HD
HETATM   10  N   UNK N   1      21.243  17.626   3.908  0.00  0.00    -0.330 N 
ATOM     11  HN  UNK N   1      21.066  18.454   4.477  1.00  0.00     0.168 HD
HETATM   12  N   UNK N   1      22.085  15.660   3.177  0.00  0.00    -0.311 N 
ENDROOT
BRANCH   5  13
HETATM   13  S   UNK N   1      23.131  16.525   5.641  0.00  0.00    -0.052 SA
BRANCH  13  14
HETATM   14  C   UNK N   1      21.851  16.144   6.857  0.00  0.00     0.027 A 
HETATM   15  C   UNK N   1      20.881  17.109   7.200  0.00  0.00     0.060 A 
HETATM   16  C   UNK N   1      19.891  16.750   8.105  0.00  0.00     0.106 A 
HETATM   17  C   UNK N   1      19.826  15.530   8.647  0.00  0.00     0.106 A 
HETATM   18  O   UNK N   1      18.886  17.490   8.569  0.00  0.00    -0.323 OA
HETATM   19  C   UNK N   1      20.749  14.534   8.346  0.00  0.00     0.059 A 
HETATM   20  O   UNK N   1      18.778  15.468   9.464  0.00  0.00    -0.323 OA
HETATM   21  C   UNK N   1      21.779  14.843   7.437  0.00  0.00     0.026 A 
HETATM   22  I   UNK N   1      23.162  13.314   6.954  0.00  0.00    -0.043 I 
HETATM   23  C   UNK N   1      18.134  16.710   9.452  0.00  0.00     0.352 A 
ENDBRANCH  13  14
ENDBRANCH   5  13
BRANCH  12  24
HETATM   24  C   UNK N   1      22.871  14.433   3.061  0.00  0.00     0.134 C 
BRANCH  24  25
HETATM   25  C   UNK N   1      23.940  14.549   1.985  0.00  0.00     0.039 C 
BRANCH  25  26
HETATM   26  C   UNK N   1      25.308  14.220   2.537  0.00  0.00     0.115 C 
BRANCH  26  27
HETATM   27  N   UNK N   1      25.666  15.220   3.538  0.00  0.00    -0.418 N 
HETATM   28  H   UNK N   1      25.372  15.191   4.514  0.00  0.00     0.153 HD
BRANCH  27  29
HETATM   29  C   UNK N   1      26.505  16.271   2.955  0.00  0.00     0.068 C 
HETATM   30  C   UNK N   1      26.320  17.600   3.665  0.00  0.00     0.031 C 
HETATM   31  C   UNK N   1      27.975  15.874   2.895  0.00  0.00     0.031 C 
ENDBRANCH  27  29
ENDBRANCH  26  27
ENDBRANCH  25  26
ENDBRANCH  24  25
ENDBRANCH  12  24
BRANCH   3  32
HETATM   32  N   UNK N   1      19.192  19.194   2.416  0.00  0.00    -0.383 N 
HETATM   33  H   UNK N   1      18.280  19.560   2.470  0.00  0.00     0.157 HD
HETATM   34  H   UNK N   1      19.887  19.825   2.713  0.00  0.00     0.157 HD
ENDBRANCH   3  32
TORSDOF 8
ENDMDL
MODEL 6
REMARK VINA RESULT:      -6.4      3.659      4.750
REMARK  8 active torsions:
REMARK  status: ('A' for Active; 'I' for Inactive)
REMARK    1  A    between atoms: C_4  and  C_3 
REMARK    2  A    between atoms: C_5  and  C_3 
REMARK    3  A    between atoms: N_21  and  C_4 
REMARK    4  A    between atoms: N_28  and  C_5 
REMARK    5  A    between atoms: N_21  and  C_10 
REMARK    6  A    between atoms: S_31  and  C_14 
REMARK    7  A    between atoms: N_20  and  C_16 
REMARK    8  A    between atoms: S_31  and  C_18 
ROOT
HETATM    1  C   UNK N   1      21.241  20.882   1.883  0.00  0.00     0.183 A 
HETATM    2  C   UNK N   1      21.058  18.548   3.272  0.00  0.00     0.123 A 
HETATM    3  C   UNK N   1      19.986  18.948   2.492  0.00  0.00     0.131 A 
HETATM    4  C   UNK N   1      22.167  19.316   3.346  0.00  0.00     0.141 A 
HETATM    5  C   UNK N   1      22.441  17.597   4.584  0.00  0.00     0.153 A 
HETATM    6  N   UNK N   1      20.097  20.122   1.803  0.00  0.00    -0.337 N 
ATOM      7  HN  UNK N   1      19.322  20.439   1.221  1.00  0.00     0.168 HD
HETATM    8  N   UNK N   1      22.291  20.481   2.668  0.00  0.00    -0.336 N 
ATOM      9  HN  UNK N   1      23.140  21.044   2.738  1.00  0.00     0.168 HD
HETATM   10  N   UNK N   1      21.205  17.449   4.033  0.00  0.00    -0.330 N 
ATOM     11  HN  UNK N   1      20.544  16.684   4.167  1.00  0.00     0.168 HD
HETATM   12  N   UNK N   1      23.053  18.742   4.172  0.00  0.00    -0.311 N 
ENDROOT
BRANCH   5  13
HETATM   13  S   UNK N   1      23.191  16.356   5.656  0.00  0.00    -0.052 SA
BRANCH  13  14
HETATM   14  C   UNK N   1      24.226  15.495   4.453  0.00  0.00     0.027 A 
HETATM   15  C   UNK N   1      25.555  15.910   4.226  0.00  0.00     0.060 A 
HETATM   16  C   UNK N   1      26.324  15.185   3.325  0.00  0.00     0.106 A 
HETATM   17  C   UNK N   1      25.850  14.114   2.681  0.00  0.00     0.106 A 
HETATM   18  O   UNK N   1      27.587  15.394   2.959  0.00  0.00    -0.323 OA
HETATM   19  C   UNK N   1      24.551  13.652   2.865  0.00  0.00     0.059 A 
HETATM   20  O   UNK N   1      26.802  13.618   1.895  0.00  0.00    -0.323 OA
HETATM   21  C   UNK N   1      23.724  14.351   3.764  0.00  0.00     0.026 A 
HETATM   22  I   UNK N   1      21.758  13.624   4.067  0.00  0.00    -0.043 I 
HETATM   23  C   UNK N   1      27.948  14.408   2.036  0.00  0.00     0.352 A 
ENDBRANCH  13  14
ENDBRANCH   5  13
BRANCH  12  24
HETATM   24  C   UNK N   1      24.368  19.266   4.539  0.00  0.00     0.134 C 
BRANCH  24  25
HETATM   25  C   UNK N   1      25.316  19.291   3.350  0.00  0.00     0.039 C 
BRANCH  25  26
HETATM   26  C   UNK N   1      26.353  20.380   3.501  0.00  0.00     0.115 C 
BRANCH  26  27
HETATM   27  N   UNK N   1      27.654  19.764   3.739  0.00  0.00    -0.418 N 
HETATM   28  H   UNK N   1      28.201  19.277   3.030  0.00  0.00     0.153 HD
BRANCH  27  29
HETATM   29  C   UNK N   1      28.071  19.939   5.134  0.00  0.00     0.068 C 
HETATM   30  C   UNK N   1      27.371  21.115   5.790  0.00  0.00     0.031 C 
HETATM   31  C   UNK N   1      27.904  18.666   5.954  0.00  0.00     0.031 C 
ENDBRANCH  27  29
ENDBRANCH  26  27
ENDBRANCH  25  26
ENDBRANCH  24  25
ENDBRANCH  12  24
BRANCH   3  32
HETATM   32  N   UNK N   1      18.807  18.178   2.417  0.00  0.00    -0.383 N 
HETATM   33  H   UNK N   1      18.619  17.264   2.100  0.00  0.00     0.157 HD
HETATM   34  H   UNK N   1      18.009  18.650   2.749  0.00  0.00     0.157 HD
ENDBRANCH   3  32
TORSDOF 8
ENDMDL
MODEL 7
REMARK VINA RESULT:      -6.4      4.318      7.776
REMARK  8 active torsions:
REMARK  status: ('A' for Active; 'I' for Inactive)
REMARK    1  A    between atoms: C_4  and  C_3 
REMARK    2  A    between atoms: C_5  and  C_3 
REMARK    3  A    between atoms: N_21  and  C_4 
REMARK    4  A    between atoms: N_28  and  C_5 
REMARK    5  A    between atoms: N_21  and  C_10 
REMARK    6  A    between atoms: S_31  and  C_14 
REMARK    7  A    between atoms: N_20  and  C_16 
REMARK    8  A    between atoms: S_31  and  C_18 
ROOT
HETATM    1  C   UNK N   1      25.155  13.428   7.363  0.00  0.00     0.183 A 
HETATM    2  C   UNK N   1      24.301  15.730   6.187  0.00  0.00     0.123 A 
HETATM    3  C   UNK N   1      25.644  15.401   6.115  0.00  0.00     0.131 A 
HETATM    4  C   UNK N   1      23.439  14.923   6.843  0.00  0.00     0.141 A 
HETATM    5  C   UNK N   1      22.361  16.605   6.088  0.00  0.00     0.153 A 
HETATM    6  N   UNK N   1      26.052  14.242   6.711  0.00  0.00    -0.337 N 
ATOM      7  HN  UNK N   1      27.036  13.976   6.671  1.00  0.00     0.168 HD
HETATM    8  N   UNK N   1      23.830  13.771   7.438  0.00  0.00    -0.336 N 
ATOM      9  HN  UNK N   1      23.160  13.177   7.926  1.00  0.00     0.168 HD
HETATM   10  N   UNK N   1      23.649  16.795   5.688  0.00  0.00    -0.330 N 
ATOM     11  HN  UNK N   1      24.030  17.565   5.139  1.00  0.00     0.168 HD
HETATM   12  N   UNK N   1      22.208  15.455   6.801  0.00  0.00    -0.311 N 
ENDROOT
BRANCH   5  13
HETATM   13  S   UNK N   1      21.018  17.718   5.628  0.00  0.00    -0.052 SA
BRANCH  13  14
HETATM   14  C   UNK N   1      20.617  17.057   3.996  0.00  0.00     0.027 A 
HETATM   15  C   UNK N   1      20.301  15.692   3.835  0.00  0.00     0.060 A 
HETATM   16  C   UNK N   1      19.954  15.245   2.567  0.00  0.00     0.106 A 
HETATM   17  C   UNK N   1      19.902  16.061   1.511  0.00  0.00     0.106 A 
HETATM   18  O   UNK N   1      19.624  14.012   2.187  0.00  0.00    -0.323 OA
HETATM   19  C   UNK N   1      20.196  17.417   1.605  0.00  0.00     0.059 A 
HETATM   20  O   UNK N   1      19.535  15.366   0.436  0.00  0.00    -0.323 OA
HETATM   21  C   UNK N   1      20.559  17.926   2.866  0.00  0.00     0.026 A 
HETATM   22  I   UNK N   1      20.973  19.998   3.013  0.00  0.00    -0.043 I 
HETATM   23  C   UNK N   1      19.342  14.034   0.817  0.00  0.00     0.352 A 
ENDBRANCH  13  14
ENDBRANCH   5  13
BRANCH  12  24
HETATM   24  C   UNK N   1      21.000  14.903   7.411  0.00  0.00     0.134 C 
BRANCH  24  25
HETATM   25  C   UNK N   1      20.905  15.252   8.889  0.00  0.00     0.039 C 
BRANCH  25  26
HETATM   26  C   UNK N   1      20.675  14.017   9.728  0.00  0.00     0.115 C 
BRANCH  26  27
HETATM   27  N   UNK N   1      21.967  13.484  10.149  0.00  0.00    -0.418 N 
HETATM   28  H   UNK N   1      22.865  13.926   9.954  0.00  0.00     0.153 HD
BRANCH  27  29
HETATM   29  C   UNK N   1      21.803  12.229  10.888  0.00  0.00     0.068 C 
HETATM   30  C   UNK N   1      22.942  11.996  11.865  0.00  0.00     0.031 C 
HETATM   31  C   UNK N   1      20.450  12.135  11.580  0.00  0.00     0.031 C 
ENDBRANCH  27  29
ENDBRANCH  26  27
ENDBRANCH  25  26
ENDBRANCH  24  25
ENDBRANCH  12  24
BRANCH   3  32
HETATM   32  N   UNK N   1      26.569  16.238   5.457  0.00  0.00    -0.383 N 
HETATM   33  H   UNK N   1      26.613  17.211   5.315  0.00  0.00     0.157 HD
HETATM   34  H   UNK N   1      27.327  15.749   5.062  0.00  0.00     0.157 HD
ENDBRANCH   3  32
TORSDOF 8
ENDMDL
MODEL 8
REMARK VINA RESULT:      -6.3      3.332      4.698
REMARK  8 active torsions:
REMARK  status: ('A' for Active; 'I' for Inactive)
REMARK    1  A    between atoms: C_4  and  C_3 
REMARK    2  A    between atoms: C_5  and  C_3 
REMARK    3  A    between atoms: N_21  and  C_4 
REMARK    4  A    between atoms: N_28  and  C_5 
REMARK    5  A    between atoms: N_21  and  C_10 
REMARK    6  A    between atoms: S_31  and  C_14 
REMARK    7  A    between atoms: N_20  and  C_16 
REMARK    8  A    between atoms: S_31  and  C_18 
ROOT
HETATM    1  C   UNK N   1      19.823  16.048   0.458  0.00  0.00     0.183 A 
HETATM    2  C   UNK N   1      20.684  17.232   2.753  0.00  0.00     0.123 A 
HETATM    3  C   UNK N   1      19.735  17.881   1.981  0.00  0.00     0.131 A 
HETATM    4  C   UNK N   1      21.178  16.038   2.359  0.00  0.00     0.141 A 
HETATM    5  C   UNK N   1      22.122  16.599   4.191  0.00  0.00     0.153 A 
HETATM    6  N   UNK N   1      19.316  17.271   0.833  0.00  0.00    -0.337 N 
ATOM      7  HN  UNK N   1      18.618  17.727   0.247  1.00  0.00     0.168 HD
HETATM    8  N   UNK N   1      20.770  15.421   1.225  0.00  0.00    -0.336 N 
ATOM      9  HN  UNK N   1      21.156  14.518   0.949  1.00  0.00     0.168 HD
HETATM   10  N   UNK N   1      21.252  17.608   3.912  0.00  0.00    -0.330 N 
ATOM     11  HN  UNK N   1      21.073  18.452   4.456  1.00  0.00     0.168 HD
HETATM   12  N   UNK N   1      22.092  15.618   3.246  0.00  0.00    -0.311 N 
ENDROOT
BRANCH   5  13
HETATM   13  S   UNK N   1      23.118  16.549   5.694  0.00  0.00    -0.052 SA
BRANCH  13  14
HETATM   14  C   UNK N   1      21.832  16.163   6.902  0.00  0.00     0.027 A 
HETATM   15  C   UNK N   1      20.844  17.117   7.224  0.00  0.00     0.060 A 
HETATM   16  C   UNK N   1      19.851  16.753   8.124  0.00  0.00     0.106 A 
HETATM   17  C   UNK N   1      19.799  15.539   8.678  0.00  0.00     0.106 A 
HETATM   18  O   UNK N   1      18.831  17.484   8.569  0.00  0.00    -0.323 OA
HETATM   19  C   UNK N   1      20.739  14.553   8.398  0.00  0.00     0.059 A 
HETATM   20  O   UNK N   1      18.743  15.470   9.487  0.00  0.00    -0.323 OA
HETATM   21  C   UNK N   1      21.773  14.867   7.495  0.00  0.00     0.026 A 
HETATM   22  I   UNK N   1      23.183  13.353   7.044  0.00  0.00    -0.043 I 
HETATM   23  C   UNK N   1      18.081  16.702   9.454  0.00  0.00     0.352 A 
ENDBRANCH  13  14
ENDBRANCH   5  13
BRANCH  12  24
HETATM   24  C   UNK N   1      22.874  14.385   3.172  0.00  0.00     0.134 C 
BRANCH  24  25
HETATM   25  C   UNK N   1      24.271  14.636   2.626  0.00  0.00     0.039 C 
BRANCH  25  26
HETATM   26  C   UNK N   1      24.860  13.378   2.033  0.00  0.00     0.115 C 
BRANCH  26  27
HETATM   27  N   UNK N   1      23.850  12.325   2.059  0.00  0.00    -0.418 N 
HETATM   28  H   UNK N   1      23.058  12.300   2.701  0.00  0.00     0.153 HD
BRANCH  27  29
HETATM   29  C   UNK N   1      24.123  11.308   1.040  0.00  0.00     0.068 C 
HETATM   30  C   UNK N   1      23.566  11.703  -0.316  0.00  0.00     0.031 C 
HETATM   31  C   UNK N   1      25.603  10.957   0.951  0.00  0.00     0.031 C 
ENDBRANCH  27  29
ENDBRANCH  26  27
ENDBRANCH  25  26
ENDBRANCH  24  25
ENDBRANCH  12  24
BRANCH   3  32
HETATM   32  N   UNK N   1      19.221  19.140   2.356  0.00  0.00    -0.383 N 
HETATM   33  H   UNK N   1      19.642  20.013   2.533  0.00  0.00     0.157 HD
HETATM   34  H   UNK N   1      18.242  19.148   2.461  0.00  0.00     0.157 HD
ENDBRANCH   3  32
TORSDOF 8
ENDMDL
MODEL 9
REMARK VINA RESULT:      -6.3     14.049     17.242
REMARK  8 active torsions:
REMARK  status: ('A' for Active; 'I' for Inactive)
REMARK    1  A    between atoms: C_4  and  C_3 
REMARK    2  A    between atoms: C_5  and  C_3 
REMARK    3  A    between atoms: N_21  and  C_4 
REMARK    4  A    between atoms: N_28  and  C_5 
REMARK    5  A    between atoms: N_21  and  C_10 
REMARK    6  A    between atoms: S_31  and  C_14 
REMARK    7  A    between atoms: N_20  and  C_16 
REMARK    8  A    between atoms: S_31  and  C_18 
ROOT
HETATM    1  C   UNK N   1      34.906  12.973  16.664  0.00  0.00     0.183 A 
HETATM    2  C   UNK N   1      36.347  13.638  14.452  0.00  0.00     0.123 A 
HETATM    3  C   UNK N   1      36.581  14.322  15.633  0.00  0.00     0.131 A 
HETATM    4  C   UNK N   1      35.408  12.668  14.404  0.00  0.00     0.141 A 
HETATM    5  C   UNK N   1      36.283  12.868  12.467  0.00  0.00     0.153 A 
HETATM    6  N   UNK N   1      35.848  13.973  16.731  0.00  0.00    -0.337 N 
ATOM      7  HN  UNK N   1      36.002  14.461  17.614  1.00  0.00     0.168 HD
HETATM    8  N   UNK N   1      34.675  12.311  15.486  0.00  0.00    -0.336 N 
ATOM      9  HN  UNK N   1      33.972  11.574  15.426  1.00  0.00     0.168 HD
HETATM   10  N   UNK N   1      36.926  13.780  13.247  0.00  0.00    -0.330 N 
ATOM     11  HN  UNK N   1      37.672  14.422  12.979  1.00  0.00     0.168 HD
HETATM   12  N   UNK N   1      35.343  12.169  13.161  0.00  0.00    -0.311 N 
ENDROOT
BRANCH   5  13
HETATM   13  S   UNK N   1      36.716  12.576  10.740  0.00  0.00    -0.052 SA
BRANCH  13  14
HETATM   14  C   UNK N   1      35.655  13.803   9.946  0.00  0.00     0.027 A 
HETATM   15  C   UNK N   1      35.911  15.181  10.107  0.00  0.00     0.060 A 
HETATM   16  C   UNK N   1      35.094  16.082   9.436  0.00  0.00     0.106 A 
HETATM   17  C   UNK N   1      34.092  15.687   8.647  0.00  0.00     0.106 A 
HETATM   18  O   UNK N   1      35.150  17.412   9.443  0.00  0.00    -0.323 OA
HETATM   19  C   UNK N   1      33.792  14.344   8.443  0.00  0.00     0.059 A 
HETATM   20  O   UNK N   1      33.490  16.757   8.132  0.00  0.00    -0.323 OA
HETATM   21  C   UNK N   1      34.584  13.385   9.101  0.00  0.00     0.026 A 
HETATM   22  I   UNK N   1      34.147  11.341   8.761  0.00  0.00    -0.043 I 
HETATM   23  C   UNK N   1      34.135  17.901   8.615  0.00  0.00     0.352 A 
ENDBRANCH  13  14
ENDBRANCH   5  13
BRANCH  12  24
HETATM   24  C   UNK N   1      34.440  11.120  12.690  0.00  0.00     0.134 C 
BRANCH  24  25
HETATM   25  C   UNK N   1      34.765   9.773  13.316  0.00  0.00     0.039 C 
BRANCH  25  26
HETATM   26  C   UNK N   1      36.228   9.433  13.151  0.00  0.00     0.115 C 
BRANCH  26  27
HETATM   27  N   UNK N   1      36.637   8.562  14.248  0.00  0.00    -0.418 N 
HETATM   28  H   UNK N   1      36.314   7.603  14.376  0.00  0.00     0.153 HD
BRANCH  27  29
HETATM   29  C   UNK N   1      37.574   9.247  15.143  0.00  0.00     0.068 C 
HETATM   30  C   UNK N   1      38.299  10.381  14.440  0.00  0.00     0.031 C 
HETATM   31  C   UNK N   1      36.909   9.725  16.426  0.00  0.00     0.031 C 
ENDBRANCH  27  29
ENDBRANCH  26  27
ENDBRANCH  25  26
ENDBRANCH  24  25
ENDBRANCH  12  24
BRANCH   3  32
HETATM   32  N   UNK N   1      37.538  15.356  15.703  0.00  0.00    -0.383 N 
HETATM   33  H   UNK N   1      37.550  16.231  16.154  0.00  0.00     0.157 HD
HETATM   34  H   UNK N   1      38.362  15.162  15.200  0.00  0.00     0.157 HD
ENDBRANCH   3  32
TORSDOF 8
ENDMDL
