MODEL 1
REMARK VINA RESULT:      -6.6      0.000      0.000
REMARK  4 active torsions:
REMARK  status: ('A' for Active; 'I' for Inactive)
REMARK    1  A    between atoms: C_15  and  C_12 
REMARK    2  A    between atoms: C_17  and  C_12 
REMARK    3  A    between atoms: O_21  and  C_15 
REMARK    4  A    between atoms: N_18  and  C_16 
ROOT
HETATM    1  C   UNK N   1      27.150  24.780  -3.589  0.00  0.00     0.118 C 
HETATM    2  N   UNK N   1      28.327  24.637  -4.102  0.00  0.00    -0.340 N 
ATOM      3  HN  UNK N   1      28.816  25.493  -4.360  1.00  0.00     0.167 HD
ENDROOT
BRANCH   1   4
HETATM    4  C   UNK N   1      26.662  26.169  -3.336  0.00  0.00     0.125 C 
BRANCH   4   5
HETATM    5  C   UNK N   1      26.171  26.914  -4.596  0.00  0.00     0.167 C 
HETATM    6  C   UNK N   1      25.428  28.219  -4.321  0.00  0.00     0.044 C 
HETATM    7  C   UNK N   1      26.537  29.230  -4.200  0.00  0.00     0.033 C 
HETATM    8  C   UNK N   1      27.656  28.663  -5.060  0.00  0.00     0.273 C 
HETATM    9  N   UNK N   1      27.325  27.280  -5.408  0.00  0.00     0.098 N 
HETATM   10  C   UNK N   1      26.858  27.265  -6.790  0.00  0.00     0.273 C 
HETATM   11  C   UNK N   1      25.691  26.298  -6.869  0.00  0.00     0.033 C 
HETATM   12  C   UNK N   1      25.324  25.982  -5.433  0.00  0.00     0.044 C 
ENDBRANCH   4   5
ENDBRANCH   1   4
BRANCH   1  13
HETATM   13  O   UNK N   1      26.427  23.727  -3.159  0.00  0.00    -0.349 OA
HETATM   14  H   UNK N   1      26.505  22.848  -2.843  0.00  0.00     0.219 HD
ENDBRANCH   1  13
BRANCH   2  15
HETATM   15  C   UNK N   1      29.018  23.415  -4.349  0.00  0.00     0.045 A 
HETATM   16  C   UNK N   1      28.967  22.888  -5.656  0.00  0.00    -0.035 A 
HETATM   17  C   UNK N   1      28.227  23.604  -6.737  0.00  0.00     0.050 C 
HETATM   18  C   UNK N   1      29.617  21.694  -5.966  0.00  0.00     0.009 A 
HETATM   19  C   UNK N   1      30.317  21.000  -4.982  0.00  0.00     0.001 A 
HETATM   20  C   UNK N   1      30.357  21.491  -3.677  0.00  0.00     0.009 A 
HETATM   21  C   UNK N   1      29.716  22.689  -3.346  0.00  0.00    -0.035 A 
HETATM   22  C   UNK N   1      29.749  23.115  -1.917  0.00  0.00     0.050 C 
ENDBRANCH   2  15
TORSDOF 4
ENDMDL
MODEL 2
REMARK VINA RESULT:      -6.6     20.537     23.868
REMARK  4 active torsions:
REMARK  status: ('A' for Active; 'I' for Inactive)
REMARK    1  A    between atoms: C_15  and  C_12 
REMARK    2  A    between atoms: C_17  and  C_12 
REMARK    3  A    between atoms: O_21  and  C_15 
REMARK    4  A    between atoms: N_18  and  C_16 
ROOT
HETATM    1  C   UNK N   1      36.394  13.837  14.578  0.00  0.00     0.118 C 
HETATM    2  N   UNK N   1      35.322  13.249  14.997  0.00  0.00    -0.340 N 
ATOM      3  HN  UNK N   1      34.449  13.528  14.551  1.00  0.00     0.167 HD
ENDROOT
BRANCH   1   4
HETATM    4  C   UNK N   1      36.268  14.785  13.430  0.00  0.00     0.125 C 
BRANCH   4   5
HETATM    5  C   UNK N   1      36.203  14.105  12.045  0.00  0.00     0.167 C 
HETATM    6  C   UNK N   1      34.806  13.669  11.609  0.00  0.00     0.044 C 
HETATM    7  C   UNK N   1      34.233  14.914  10.986  0.00  0.00     0.033 C 
HETATM    8  C   UNK N   1      35.451  15.672  10.476  0.00  0.00     0.273 C 
HETATM    9  N   UNK N   1      36.655  15.052  11.033  0.00  0.00     0.098 N 
HETATM   10  C   UNK N   1      37.271  14.247   9.984  0.00  0.00     0.273 C 
HETATM   11  C   UNK N   1      37.770  12.964  10.624  0.00  0.00     0.033 C 
HETATM   12  C   UNK N   1      37.163  12.937  12.011  0.00  0.00     0.044 C 
ENDBRANCH   4   5
ENDBRANCH   1   4
BRANCH   1  13
HETATM   13  O   UNK N   1      37.614  13.515  15.051  0.00  0.00    -0.349 OA
HETATM   14  H   UNK N   1      38.517  13.761  15.013  0.00  0.00     0.219 HD
ENDBRANCH   1  13
BRANCH   2  15
HETATM   15  C   UNK N   1      35.224  12.255  16.014  0.00  0.00     0.045 A 
HETATM   16  C   UNK N   1      35.044  10.917  15.604  0.00  0.00    -0.035 A 
HETATM   17  C   UNK N   1      34.978  10.567  14.155  0.00  0.00     0.050 C 
HETATM   18  C   UNK N   1      34.936   9.896  16.546  0.00  0.00     0.009 A 
HETATM   19  C   UNK N   1      34.994  10.186  17.907  0.00  0.00     0.001 A 
HETATM   20  C   UNK N   1      35.145  11.506  18.333  0.00  0.00     0.009 A 
HETATM   21  C   UNK N   1      35.260  12.546  17.405  0.00  0.00    -0.035 A 
HETATM   22  C   UNK N   1      35.353  13.936  17.936  0.00  0.00     0.050 C 
ENDBRANCH   2  15
TORSDOF 4
ENDMDL
MODEL 3
REMARK VINA RESULT:      -6.3     20.532     23.908
REMARK  4 active torsions:
REMARK  status: ('A' for Active; 'I' for Inactive)
REMARK    1  A    between atoms: C_15  and  C_12 
REMARK    2  A    between atoms: C_17  and  C_12 
REMARK    3  A    between atoms: O_21  and  C_15 
REMARK    4  A    between atoms: N_18  and  C_16 
ROOT
HETATM    1  C   UNK N   1      36.345  13.670  14.515  0.00  0.00     0.118 C 
HETATM    2  N   UNK N   1      35.257  13.163  14.995  0.00  0.00    -0.340 N 
ATOM      3  HN  UNK N   1      34.383  13.548  14.639  1.00  0.00     0.167 HD
ENDROOT
BRANCH   1   4
HETATM    4  C   UNK N   1      36.221  14.690  13.431  0.00  0.00     0.125 C 
BRANCH   4   5
HETATM    5  C   UNK N   1      36.182  14.102  12.003  0.00  0.00     0.167 C 
HETATM    6  C   UNK N   1      34.804  13.636  11.539  0.00  0.00     0.044 C 
HETATM    7  C   UNK N   1      34.176  14.894  11.001  0.00  0.00     0.033 C 
HETATM    8  C   UNK N   1      35.357  15.737  10.543  0.00  0.00     0.273 C 
HETATM    9  N   UNK N   1      36.589  15.135  11.057  0.00  0.00     0.098 N 
HETATM   10  C   UNK N   1      37.236  14.429   9.956  0.00  0.00     0.273 C 
HETATM   11  C   UNK N   1      37.793  13.130  10.509  0.00  0.00     0.033 C 
HETATM   12  C   UNK N   1      37.193  12.983  11.891  0.00  0.00     0.044 C 
ENDBRANCH   4   5
ENDBRANCH   1   4
BRANCH   1  13
HETATM   13  O   UNK N   1      37.561  13.207  14.866  0.00  0.00    -0.349 OA
HETATM   14  H   UNK N   1      38.044  12.419  15.018  0.00  0.00     0.219 HD
ENDBRANCH   1  13
BRANCH   2  15
HETATM   15  C   UNK N   1      35.144  12.125  15.966  0.00  0.00     0.045 A 
HETATM   16  C   UNK N   1      35.226  12.490  17.325  0.00  0.00    -0.035 A 
HETATM   17  C   UNK N   1      35.409  13.918  17.720  0.00  0.00     0.050 C 
HETATM   18  C   UNK N   1      35.127  11.526  18.326  0.00  0.00     0.009 A 
HETATM   19  C   UNK N   1      34.956  10.184  17.994  0.00  0.00     0.001 A 
HETATM   20  C   UNK N   1      34.899   9.799  16.654  0.00  0.00     0.009 A 
HETATM   21  C   UNK N   1      34.990  10.751  15.634  0.00  0.00    -0.035 A 
HETATM   22  C   UNK N   1      34.986  10.256  14.228  0.00  0.00     0.050 C 
ENDBRANCH   2  15
TORSDOF 4
ENDMDL
MODEL 4
REMARK VINA RESULT:      -5.7      2.107      2.915
REMARK  4 active torsions:
REMARK  status: ('A' for Active; 'I' for Inactive)
REMARK    1  A    between atoms: C_15  and  C_12 
REMARK    2  A    between atoms: C_17  and  C_12 
REMARK    3  A    between atoms: O_21  and  C_15 
REMARK    4  A    between atoms: N_18  and  C_16 
ROOT
HETATM    1  C   UNK N   1      29.443  25.511  -4.493  0.00  0.00     0.118 C 
HETATM    2  N   UNK N   1      30.275  25.078  -3.605  0.00  0.00    -0.340 N 
ATOM      3  HN  UNK N   1      30.315  25.599  -2.730  1.00  0.00     0.167 HD
ENDROOT
BRANCH   1   4
HETATM    4  C   UNK N   1      28.560  26.658  -4.124  0.00  0.00     0.125 C 
BRANCH   4   5
HETATM    5  C   UNK N   1      27.054  26.321  -4.093  0.00  0.00     0.167 C 
HETATM    6  C   UNK N   1      26.215  27.214  -3.182  0.00  0.00     0.044 C 
HETATM    7  C   UNK N   1      25.896  28.398  -4.055  0.00  0.00     0.033 C 
HETATM    8  C   UNK N   1      25.918  27.838  -5.469  0.00  0.00     0.273 C 
HETATM    9  N   UNK N   1      26.504  26.496  -5.433  0.00  0.00     0.098 N 
HETATM   10  C   UNK N   1      25.417  25.530  -5.544  0.00  0.00     0.273 C 
HETATM   11  C   UNK N   1      25.724  24.384  -4.597  0.00  0.00     0.033 C 
HETATM   12  C   UNK N   1      26.871  24.864  -3.732  0.00  0.00     0.044 C 
ENDBRANCH   4   5
ENDBRANCH   1   4
BRANCH   1  13
HETATM   13  O   UNK N   1      29.260  24.875  -5.667  0.00  0.00    -0.349 OA
HETATM   14  H   UNK N   1      29.627  24.768  -6.523  0.00  0.00     0.219 HD
ENDBRANCH   1  13
BRANCH   2  15
HETATM   15  C   UNK N   1      31.145  23.954  -3.712  0.00  0.00     0.045 A 
HETATM   16  C   UNK N   1      30.849  22.822  -2.925  0.00  0.00    -0.035 A 
HETATM   17  C   UNK N   1      29.655  22.808  -2.030  0.00  0.00     0.050 C 
HETATM   18  C   UNK N   1      31.660  21.689  -2.978  0.00  0.00     0.009 A 
HETATM   19  C   UNK N   1      32.782  21.667  -3.803  0.00  0.00     0.001 A 
HETATM   20  C   UNK N   1      33.107  22.787  -4.569  0.00  0.00     0.009 A 
HETATM   21  C   UNK N   1      32.304  23.931  -4.536  0.00  0.00    -0.035 A 
HETATM   22  C   UNK N   1      32.752  25.110  -5.331  0.00  0.00     0.050 C 
ENDBRANCH   2  15
TORSDOF 4
ENDMDL
MODEL 5
REMARK VINA RESULT:      -5.7      1.048      2.438
REMARK  4 active torsions:
REMARK  status: ('A' for Active; 'I' for Inactive)
REMARK    1  A    between atoms: C_15  and  C_12 
REMARK    2  A    between atoms: C_17  and  C_12 
REMARK    3  A    between atoms: O_21  and  C_15 
REMARK    4  A    between atoms: N_18  and  C_16 
ROOT
HETATM    1  C   UNK N   1      28.106  25.181  -4.346  0.00  0.00     0.118 C 
HETATM    2  N   UNK N   1      29.202  24.731  -4.860  0.00  0.00    -0.340 N 
ATOM      3  HN  UNK N   1      29.883  25.429  -5.158  1.00  0.00     0.167 HD
ENDROOT
BRANCH   1   4
HETATM    4  C   UNK N   1      27.980  26.656  -4.150  0.00  0.00     0.125 C 
BRANCH   4   5
HETATM    5  C   UNK N   1      26.975  27.344  -5.100  0.00  0.00     0.167 C 
HETATM    6  C   UNK N   1      27.349  28.766  -5.509  0.00  0.00     0.044 C 
HETATM    7  C   UNK N   1      28.265  28.559  -6.686  0.00  0.00     0.033 C 
HETATM    8  C   UNK N   1      27.812  27.234  -7.284  0.00  0.00     0.273 C 
HETATM    9  N   UNK N   1      26.902  26.582  -6.340  0.00  0.00     0.098 N 
HETATM   10  C   UNK N   1      25.541  26.761  -6.835  0.00  0.00     0.273 C 
HETATM   11  C   UNK N   1      24.652  27.046  -5.638  0.00  0.00     0.033 C 
HETATM   12  C   UNK N   1      25.595  27.309  -4.483  0.00  0.00     0.044 C 
ENDBRANCH   4   5
ENDBRANCH   1   4
BRANCH   1  13
HETATM   13  O   UNK N   1      27.154  24.357  -3.866  0.00  0.00    -0.349 OA
HETATM   14  H   UNK N   1      26.598  24.211  -3.125  0.00  0.00     0.219 HD
ENDBRANCH   1  13
BRANCH   2  15
HETATM   15  C   UNK N   1      29.567  23.367  -5.058  0.00  0.00     0.045 A 
HETATM   16  C   UNK N   1      30.303  22.732  -4.036  0.00  0.00    -0.035 A 
HETATM   17  C   UNK N   1      30.666  23.469  -2.790  0.00  0.00     0.050 C 
HETATM   18  C   UNK N   1      30.696  21.401  -4.166  0.00  0.00     0.009 A 
HETATM   19  C   UNK N   1      30.374  20.684  -5.316  0.00  0.00     0.001 A 
HETATM   20  C   UNK N   1      29.669  21.301  -6.349  0.00  0.00     0.009 A 
HETATM   21  C   UNK N   1      29.261  22.634  -6.237  0.00  0.00    -0.035 A 
HETATM   22  C   UNK N   1      28.570  23.243  -7.409  0.00  0.00     0.050 C 
ENDBRANCH   2  15
TORSDOF 4
ENDMDL
MODEL 6
REMARK VINA RESULT:      -5.6     19.513     22.963
REMARK  4 active torsions:
REMARK  status: ('A' for Active; 'I' for Inactive)
REMARK    1  A    between atoms: C_15  and  C_12 
REMARK    2  A    between atoms: C_17  and  C_12 
REMARK    3  A    between atoms: O_21  and  C_15 
REMARK    4  A    between atoms: N_18  and  C_16 
ROOT
HETATM    1  C   UNK N   1      35.665  12.620  12.633  0.00  0.00     0.118 C 
HETATM    2  N   UNK N   1      36.374  12.348  13.678  0.00  0.00    -0.340 N 
ATOM      3  HN  UNK N   1      37.353  12.115  13.514  1.00  0.00     0.167 HD
ENDROOT
BRANCH   1   4
HETATM    4  C   UNK N   1      36.358  12.664  11.311  0.00  0.00     0.125 C 
BRANCH   4   5
HETATM    5  C   UNK N   1      36.387  14.059  10.650  0.00  0.00     0.167 C 
HETATM    6  C   UNK N   1      37.619  14.338   9.793  0.00  0.00     0.044 C 
HETATM    7  C   UNK N   1      37.251  13.752   8.456  0.00  0.00     0.033 C 
HETATM    8  C   UNK N   1      35.732  13.843   8.412  0.00  0.00     0.273 C 
HETATM    9  N   UNK N   1      35.245  14.180   9.751  0.00  0.00     0.098 N 
HETATM   10  C   UNK N   1      34.885  15.594   9.755  0.00  0.00     0.273 C 
HETATM   11  C   UNK N   1      35.337  16.178  11.081  0.00  0.00     0.033 C 
HETATM   12  C   UNK N   1      36.221  15.123  11.712  0.00  0.00     0.044 C 
ENDBRANCH   4   5
ENDBRANCH   1   4
BRANCH   1  13
HETATM   13  O   UNK N   1      34.374  12.995  12.726  0.00  0.00    -0.349 OA
HETATM   14  H   UNK N   1      33.752  13.616  12.400  0.00  0.00     0.219 HD
ENDBRANCH   1  13
BRANCH   2  15
HETATM   15  C   UNK N   1      35.940  12.335  15.036  0.00  0.00     0.045 A 
HETATM   16  C   UNK N   1      36.191  13.485  15.813  0.00  0.00    -0.035 A 
HETATM   17  C   UNK N   1      36.872  14.672  15.217  0.00  0.00     0.050 C 
HETATM   18  C   UNK N   1      35.798  13.539  17.149  0.00  0.00     0.009 A 
HETATM   19  C   UNK N   1      35.161  12.449  17.737  0.00  0.00     0.001 A 
HETATM   20  C   UNK N   1      34.927  11.292  16.994  0.00  0.00     0.009 A 
HETATM   21  C   UNK N   1      35.308  11.219  15.650  0.00  0.00    -0.035 A 
HETATM   22  C   UNK N   1      35.084   9.928  14.940  0.00  0.00     0.050 C 
ENDBRANCH   2  15
TORSDOF 4
ENDMDL
MODEL 7
REMARK VINA RESULT:      -5.6     10.164     12.750
REMARK  4 active torsions:
REMARK  status: ('A' for Active; 'I' for Inactive)
REMARK    1  A    between atoms: C_15  and  C_12 
REMARK    2  A    between atoms: C_17  and  C_12 
REMARK    3  A    between atoms: O_21  and  C_15 
REMARK    4  A    between atoms: N_18  and  C_16 
ROOT
HETATM    1  C   UNK N   1      28.173  17.502   4.991  0.00  0.00     0.118 C 
HETATM    2  N   UNK N   1      29.318  17.889   5.446  0.00  0.00    -0.340 N 
ATOM      3  HN  UNK N   1      29.761  18.665   4.956  1.00  0.00     0.167 HD
ENDROOT
BRANCH   1   4
HETATM    4  C   UNK N   1      27.569  18.278   3.867  0.00  0.00     0.125 C 
BRANCH   4   5
HETATM    5  C   UNK N   1      26.993  19.651   4.276  0.00  0.00     0.167 C 
HETATM    6  C   UNK N   1      26.300  20.417   3.152  0.00  0.00     0.044 C 
HETATM    7  C   UNK N   1      24.899  19.865   3.169  0.00  0.00     0.033 C 
HETATM    8  C   UNK N   1      24.687  19.428   4.611  0.00  0.00     0.273 C 
HETATM    9  N   UNK N   1      25.978  19.450   5.303  0.00  0.00     0.098 N 
HETATM   10  C   UNK N   1      26.017  20.646   6.138  0.00  0.00     0.273 C 
HETATM   11  C   UNK N   1      27.416  21.226   6.041  0.00  0.00     0.033 C 
HETATM   12  C   UNK N   1      28.086  20.489   4.900  0.00  0.00     0.044 C 
ENDBRANCH   4   5
ENDBRANCH   1   4
BRANCH   1  13
HETATM   13  O   UNK N   1      27.464  16.522   5.586  0.00  0.00    -0.349 OA
HETATM   14  H   UNK N   1      26.703  15.985   5.485  0.00  0.00     0.219 HD
ENDBRANCH   1  13
BRANCH   2  15
HETATM   15  C   UNK N   1      30.033  17.352   6.557  0.00  0.00     0.045 A 
HETATM   16  C   UNK N   1      31.058  16.422   6.286  0.00  0.00    -0.035 A 
HETATM   17  C   UNK N   1      31.384  16.036   4.882  0.00  0.00     0.050 C 
HETATM   18  C   UNK N   1      31.793  15.854   7.326  0.00  0.00     0.009 A 
HETATM   19  C   UNK N   1      31.515  16.192   8.648  0.00  0.00     0.001 A 
HETATM   20  C   UNK N   1      30.487  17.090   8.938  0.00  0.00     0.009 A 
HETATM   21  C   UNK N   1      29.741  17.675   7.910  0.00  0.00    -0.035 A 
HETATM   22  C   UNK N   1      28.618  18.574   8.301  0.00  0.00     0.050 C 
ENDBRANCH   2  15
TORSDOF 4
ENDMDL
MODEL 8
REMARK VINA RESULT:      -5.6     10.902     13.283
REMARK  4 active torsions:
REMARK  status: ('A' for Active; 'I' for Inactive)
REMARK    1  A    between atoms: C_15  and  C_12 
REMARK    2  A    between atoms: C_17  and  C_12 
REMARK    3  A    between atoms: O_21  and  C_15 
REMARK    4  A    between atoms: N_18  and  C_16 
ROOT
HETATM    1  C   UNK N   1      29.188  16.551   5.885  0.00  0.00     0.118 C 
HETATM    2  N   UNK N   1      30.017  17.500   6.173  0.00  0.00    -0.340 N 
ATOM      3  HN  UNK N   1      29.628  18.441   6.222  1.00  0.00     0.167 HD
ENDROOT
BRANCH   1   4
HETATM    4  C   UNK N   1      27.743  16.903   5.748  0.00  0.00     0.125 C 
BRANCH   4   5
HETATM    5  C   UNK N   1      27.371  17.559   4.400  0.00  0.00     0.167 C 
HETATM    6  C   UNK N   1      28.019  16.919   3.174  0.00  0.00     0.044 C 
HETATM    7  C   UNK N   1      27.085  15.786   2.840  0.00  0.00     0.033 C 
HETATM    8  C   UNK N   1      25.731  16.252   3.357  0.00  0.00     0.273 C 
HETATM    9  N   UNK N   1      25.932  17.435   4.197  0.00  0.00     0.098 N 
HETATM   10  C   UNK N   1      25.540  18.606   3.420  0.00  0.00     0.273 C 
HETATM   11  C   UNK N   1      26.542  19.708   3.715  0.00  0.00     0.033 C 
HETATM   12  C   UNK N   1      27.679  19.038   4.458  0.00  0.00     0.044 C 
ENDBRANCH   4   5
ENDBRANCH   1   4
BRANCH   1  13
HETATM   13  O   UNK N   1      29.571  15.259   5.846  0.00  0.00    -0.349 OA
HETATM   14  H   UNK N   1      29.515  14.480   5.328  0.00  0.00     0.219 HD
ENDBRANCH   1  13
BRANCH   2  15
HETATM   15  C   UNK N   1      31.413  17.378   6.430  0.00  0.00     0.045 A 
HETATM   16  C   UNK N   1      31.828  17.333   7.778  0.00  0.00    -0.035 A 
HETATM   17  C   UNK N   1      30.829  17.394   8.884  0.00  0.00     0.050 C 
HETATM   18  C   UNK N   1      33.179  17.219   8.101  0.00  0.00     0.009 A 
HETATM   19  C   UNK N   1      34.139  17.159   7.093  0.00  0.00     0.001 A 
HETATM   20  C   UNK N   1      33.751  17.228   5.755  0.00  0.00     0.009 A 
HETATM   21  C   UNK N   1      32.401  17.337   5.408  0.00  0.00    -0.035 A 
HETATM   22  C   UNK N   1      32.070  17.472   3.961  0.00  0.00     0.050 C 
ENDBRANCH   2  15
TORSDOF 4
ENDMDL
MODEL 9
REMARK VINA RESULT:      -5.5     16.505     19.719
REMARK  4 active torsions:
REMARK  status: ('A' for Active; 'I' for Inactive)
REMARK    1  A    between atoms: C_15  and  C_12 
REMARK    2  A    between atoms: C_17  and  C_12 
REMARK    3  A    between atoms: O_21  and  C_15 
REMARK    4  A    between atoms: N_18  and  C_16 
ROOT
HETATM    1  C   UNK N   1      34.445  14.859  10.680  0.00  0.00     0.118 C 
HETATM    2  N   UNK N   1      35.373  14.028  11.022  0.00  0.00    -0.340 N 
ATOM      3  HN  UNK N   1      36.266  14.122  10.540  1.00  0.00     0.167 HD
ENDROOT
BRANCH   1   4
HETATM    4  C   UNK N   1      34.792  15.927   9.694  0.00  0.00     0.125 C 
BRANCH   4   5
HETATM    5  C   UNK N   1      33.951  15.898   8.399  0.00  0.00     0.167 C 
HETATM    6  C   UNK N   1      32.518  16.401   8.553  0.00  0.00     0.044 C 
HETATM    7  C   UNK N   1      32.655  17.891   8.389  0.00  0.00     0.033 C 
HETATM    8  C   UNK N   1      33.880  18.060   7.503  0.00  0.00     0.273 C 
HETATM    9  N   UNK N   1      34.574  16.773   7.413  0.00  0.00     0.098 N 
HETATM   10  C   UNK N   1      34.265  16.188   6.113  0.00  0.00     0.273 C 
HETATM   11  C   UNK N   1      34.055  14.699   6.319  0.00  0.00     0.033 C 
HETATM   12  C   UNK N   1      33.970  14.502   7.818  0.00  0.00     0.044 C 
ENDBRANCH   4   5
ENDBRANCH   1   4
BRANCH   1  13
HETATM   13  O   UNK N   1      33.241  14.870  11.284  0.00  0.00    -0.349 OA
HETATM   14  H   UNK N   1      32.794  15.168  12.051  0.00  0.00     0.219 HD
ENDBRANCH   1  13
BRANCH   2  15
HETATM   15  C   UNK N   1      35.288  12.993  11.999  0.00  0.00     0.045 A 
HETATM   16  C   UNK N   1      35.769  13.275  13.294  0.00  0.00    -0.035 A 
HETATM   17  C   UNK N   1      36.329  14.619  13.621  0.00  0.00     0.050 C 
HETATM   18  C   UNK N   1      35.720  12.308  14.296  0.00  0.00     0.009 A 
HETATM   19  C   UNK N   1      35.203  11.043  14.025  0.00  0.00     0.001 A 
HETATM   20  C   UNK N   1      34.746  10.735  12.743  0.00  0.00     0.009 A 
HETATM   21  C   UNK N   1      34.782  11.693  11.725  0.00  0.00    -0.035 A 
HETATM   22  C   UNK N   1      34.337  11.269  10.366  0.00  0.00     0.050 C 
ENDBRANCH   2  15
TORSDOF 4
ENDMDL
