MODEL 1
REMARK VINA RESULT:      -7.9      0.000      0.000
REMARK  5 active torsions:
REMARK  status: ('A' for Active; 'I' for Inactive)
REMARK    1  A    between atoms: N_7  and  C_8 
REMARK    2  A    between atoms: C_12  and  C_28 
REMARK       I    between atoms: C_18  and  N_21 
REMARK    3  A    between atoms: C_31  and  O_36 
REMARK    4  A    between atoms: C_32  and  C_34 
REMARK    5  A    between atoms: C_34  and  O_35 
ROOT
HETATM    1  C   UNK N   1      22.794  15.743   6.002  0.00  0.00     0.133 A 
HETATM    2  C   UNK N   1      24.209  15.889   6.093  0.00  0.00     0.053 A 
HETATM    3  C   UNK N   1      25.044  15.003   6.787  0.00  0.00     0.021 A 
HETATM    4  C   UNK N   1      26.422  15.201   6.825  0.00  0.00     0.031 A 
HETATM    5  C   UNK N   1      26.972  16.302   6.161  0.00  0.00     0.044 A 
HETATM    6  N   UNK N   1      26.155  17.149   5.480  0.00  0.00    -0.341 N 
ATOM      7  HN  UNK N   1      26.566  17.946   4.996  1.00  0.00     0.167 HD
HETATM    8  C   UNK N   1      24.812  16.971   5.425  0.00  0.00     0.135 A 
HETATM    9  N   UNK N   1      24.059  17.840   4.718  0.00  0.00    -0.175 N 
ATOM     10  HN  UNK N   1      24.513  18.619   4.241  1.00  0.00     0.186 HD
HETATM   11  C   UNK N   1      22.714  17.705   4.629  0.00  0.00     0.684 A 
HETATM   12  N   UNK N   1      22.099  16.663   5.265  0.00  0.00    -0.176 N 
ATOM     13  HN  UNK N   1      21.087  16.568   5.186  1.00  0.00     0.186 HD
HETATM   14  N   UNK N   1      21.962  18.657   3.874  0.00  0.00    -0.209 N 
HETATM   15  C   UNK N   1      22.699  19.726   3.201  0.00  0.00     0.168 C 
HETATM   16  C   UNK N   1      21.786  20.700   2.461  0.00  0.00     0.188 C 
HETATM   17  O   UNK N   1      20.641  20.930   3.227  0.00  0.00    -0.388 OA
HETATM   18  C   UNK N   1      19.888  19.765   3.057  0.00  0.00     0.193 C 
HETATM   19  C   UNK N   1      20.497  18.620   3.873  0.00  0.00     0.122 C 
HETATM   20  C   UNK N   1      19.978  17.315   3.294  0.00  0.00     0.035 C 
ENDROOT
BRANCH   5  21
HETATM   21  C   UNK N   1      28.417  16.583   6.215  0.00  0.00    -0.009 A 
HETATM   22  C   UNK N   1      29.270  16.242   5.162  0.00  0.00     0.016 A 
HETATM   23  C   UNK N   1      30.640  16.481   5.267  0.00  0.00     0.038 A 
HETATM   24  C   UNK N   1      31.190  17.053   6.422  0.00  0.00     0.076 A 
HETATM   25  C   UNK N   1      30.321  17.408   7.496  0.00  0.00    -0.001 A 
HETATM   26  C   UNK N   1      28.950  17.166   7.365  0.00  0.00     0.026 A 
BRANCH  24  27
HETATM   27  O   UNK N   1      32.540  17.228   6.440  0.00  0.00    -0.355 OA
HETATM   28  C   UNK N   1      33.354  17.424   5.349  0.00  0.00     0.210 C 
ENDBRANCH  24  27
BRANCH  25  29
HETATM   29  C   UNK N   1      30.820  18.026   8.775  0.00  0.00     0.205 C 
BRANCH  29  30
HETATM   30  O   UNK N   1      32.021  17.455   9.205  0.00  0.00    -0.396 OA
HETATM   31  H   UNK N   1      32.012  16.748   9.869  0.00  0.00     0.209 HD
ENDBRANCH  29  30
ENDBRANCH  25  29
ENDBRANCH   5  21
BRANCH   1  32
HETATM   32  N   UNK N   1      22.073  14.649   6.620  0.00  0.00    -0.358 N 
HETATM   33  C   UNK N   1      21.497  14.801   7.958  0.00  0.00     0.151 C 
HETATM   34  C   UNK N   1      20.949  13.500   8.535  0.00  0.00     0.187 C 
HETATM   35  O   UNK N   1      21.779  12.447   8.151  0.00  0.00    -0.388 OA
HETATM   36  C   UNK N   1      21.437  12.241   6.812  0.00  0.00     0.192 C 
HETATM   37  C   UNK N   1      22.044  13.347   5.943  0.00  0.00     0.105 C 
HETATM   38  C   UNK N   1      21.264  13.408   4.641  0.00  0.00     0.034 C 
ENDBRANCH   1  32
TORSDOF 5
ENDMDL
MODEL 2
REMARK VINA RESULT:      -7.8      3.589      9.613
REMARK  5 active torsions:
REMARK  status: ('A' for Active; 'I' for Inactive)
REMARK    1  A    between atoms: N_7  and  C_8 
REMARK    2  A    between atoms: C_12  and  C_28 
REMARK       I    between atoms: C_18  and  N_21 
REMARK    3  A    between atoms: C_31  and  O_36 
REMARK    4  A    between atoms: C_32  and  C_34 
REMARK    5  A    between atoms: C_34  and  O_35 
ROOT
HETATM    1  C   UNK N   1      30.456  16.066   5.006  0.00  0.00     0.133 A 
HETATM    2  C   UNK N   1      29.267  16.811   4.753  0.00  0.00     0.053 A 
HETATM    3  C   UNK N   1      28.895  17.957   5.471  0.00  0.00     0.021 A 
HETATM    4  C   UNK N   1      27.723  18.643   5.161  0.00  0.00     0.031 A 
HETATM    5  C   UNK N   1      26.913  18.178   4.121  0.00  0.00     0.044 A 
HETATM    6  N   UNK N   1      27.289  17.073   3.424  0.00  0.00    -0.341 N 
ATOM      7  HN  UNK N   1      26.694  16.744   2.664  1.00  0.00     0.167 HD
HETATM    8  C   UNK N   1      28.429  16.394   3.704  0.00  0.00     0.135 A 
HETATM    9  N   UNK N   1      28.752  15.313   2.962  0.00  0.00    -0.175 N 
ATOM     10  HN  UNK N   1      28.132  15.025   2.205  1.00  0.00     0.186 HD
HETATM   11  C   UNK N   1      29.881  14.602   3.199  0.00  0.00     0.684 A 
HETATM   12  N   UNK N   1      30.717  14.984   4.209  0.00  0.00    -0.176 N 
ATOM     13  HN  UNK N   1      31.566  14.445   4.375  1.00  0.00     0.186 HD
HETATM   14  N   UNK N   1      30.174  13.461   2.388  0.00  0.00    -0.209 N 
HETATM   15  C   UNK N   1      29.242  13.136   1.310  0.00  0.00     0.168 C 
HETATM   16  C   UNK N   1      29.640  11.879   0.542  0.00  0.00     0.188 C 
HETATM   17  O   UNK N   1      30.127  10.926   1.439  0.00  0.00    -0.388 OA
HETATM   18  C   UNK N   1      31.406  11.393   1.757  0.00  0.00     0.193 C 
HETATM   19  C   UNK N   1      31.309  12.591   2.707  0.00  0.00     0.122 C 
HETATM   20  C   UNK N   1      32.624  13.349   2.629  0.00  0.00     0.035 C 
ENDROOT
BRANCH   5  21
HETATM   21  C   UNK N   1      25.639  18.839   3.791  0.00  0.00    -0.009 A 
HETATM   22  C   UNK N   1      25.593  19.972   2.973  0.00  0.00     0.016 A 
HETATM   23  C   UNK N   1      24.373  20.600   2.719  0.00  0.00     0.038 A 
HETATM   24  C   UNK N   1      23.180  20.123   3.279  0.00  0.00     0.076 A 
HETATM   25  C   UNK N   1      23.225  18.964   4.109  0.00  0.00    -0.001 A 
HETATM   26  C   UNK N   1      24.457  18.345   4.344  0.00  0.00     0.026 A 
BRANCH  24  27
HETATM   27  O   UNK N   1      22.044  20.815   2.991  0.00  0.00    -0.355 OA
HETATM   28  C   UNK N   1      21.216  20.614   1.911  0.00  0.00     0.210 C 
ENDBRANCH  24  27
BRANCH  25  29
HETATM   29  C   UNK N   1      21.997  18.379   4.755  0.00  0.00     0.205 C 
BRANCH  29  30
HETATM   30  O   UNK N   1      21.134  19.365   5.241  0.00  0.00    -0.396 OA
HETATM   31  H   UNK N   1      20.290  19.115   5.647  0.00  0.00     0.209 HD
ENDBRANCH  29  30
ENDBRANCH  25  29
ENDBRANCH   5  21
BRANCH   1  32
HETATM   32  N   UNK N   1      31.407  16.425   6.036  0.00  0.00    -0.358 N 
HETATM   33  C   UNK N   1      31.202  15.994   7.421  0.00  0.00     0.151 C 
HETATM   34  C   UNK N   1      32.184  16.621   8.405  0.00  0.00     0.187 C 
HETATM   35  O   UNK N   1      32.435  17.938   8.021  0.00  0.00    -0.388 OA
HETATM   36  C   UNK N   1      33.297  17.794   6.930  0.00  0.00     0.192 C 
HETATM   37  C   UNK N   1      32.507  17.337   5.700  0.00  0.00     0.105 C 
HETATM   38  C   UNK N   1      33.481  16.705   4.721  0.00  0.00     0.034 C 
ENDBRANCH   1  32
TORSDOF 5
ENDMDL
MODEL 3
REMARK VINA RESULT:      -7.7      2.038      5.586
REMARK  5 active torsions:
REMARK  status: ('A' for Active; 'I' for Inactive)
REMARK    1  A    between atoms: N_7  and  C_8 
REMARK    2  A    between atoms: C_12  and  C_28 
REMARK       I    between atoms: C_18  and  N_21 
REMARK    3  A    between atoms: C_31  and  O_36 
REMARK    4  A    between atoms: C_32  and  C_34 
REMARK    5  A    between atoms: C_34  and  O_35 
ROOT
HETATM    1  C   UNK N   1      23.523  15.711   5.898  0.00  0.00     0.133 A 
HETATM    2  C   UNK N   1      24.912  15.998   5.749  0.00  0.00     0.053 A 
HETATM    3  C   UNK N   1      25.434  16.843   4.760  0.00  0.00     0.021 A 
HETATM    4  C   UNK N   1      26.803  17.089   4.681  0.00  0.00     0.031 A 
HETATM    5  C   UNK N   1      27.661  16.480   5.602  0.00  0.00     0.044 A 
HETATM    6  N   UNK N   1      27.142  15.671   6.564  0.00  0.00    -0.341 N 
ATOM      7  HN  UNK N   1      27.776  15.235   7.233  1.00  0.00     0.167 HD
HETATM    8  C   UNK N   1      25.813  15.424   6.664  0.00  0.00     0.135 A 
HETATM    9  N   UNK N   1      25.363  14.624   7.653  0.00  0.00    -0.175 N 
ATOM     10  HN  UNK N   1      26.031  14.216   8.307  1.00  0.00     0.186 HD
HETATM   11  C   UNK N   1      24.044  14.349   7.798  0.00  0.00     0.684 A 
HETATM   12  N   UNK N   1      23.143  14.894   6.927  0.00  0.00    -0.176 N 
ATOM     13  HN  UNK N   1      22.153  14.684   7.049  1.00  0.00     0.186 HD
HETATM   14  N   UNK N   1      23.619  13.490   8.859  0.00  0.00    -0.209 N 
HETATM   15  C   UNK N   1      24.644  12.970   9.765  0.00  0.00     0.168 C 
HETATM   16  C   UNK N   1      24.075  12.036  10.829  0.00  0.00     0.188 C 
HETATM   17  O   UNK N   1      23.087  11.232  10.256  0.00  0.00    -0.388 OA
HETATM   18  C   UNK N   1      21.994  12.092  10.123  0.00  0.00     0.193 C 
HETATM   19  C   UNK N   1      22.222  13.060   8.958  0.00  0.00     0.122 C 
HETATM   20  C   UNK N   1      21.293  14.246   9.155  0.00  0.00     0.035 C 
ENDROOT
BRANCH   5  21
HETATM   21  C   UNK N   1      29.119  16.666   5.526  0.00  0.00    -0.009 A 
HETATM   22  C   UNK N   1      29.894  16.854   6.674  0.00  0.00     0.016 A 
HETATM   23  C   UNK N   1      31.267  17.075   6.563  0.00  0.00     0.038 A 
HETATM   24  C   UNK N   1      31.895  17.122   5.311  0.00  0.00     0.076 A 
HETATM   25  C   UNK N   1      31.108  16.924   4.138  0.00  0.00    -0.001 A 
HETATM   26  C   UNK N   1      29.734  16.697   4.274  0.00  0.00     0.026 A 
BRANCH  24  27
HETATM   27  O   UNK N   1      33.235  17.364   5.302  0.00  0.00    -0.355 OA
HETATM   28  C   UNK N   1      34.199  16.644   5.966  0.00  0.00     0.210 C 
ENDBRANCH  24  27
BRANCH  25  29
HETATM   29  C   UNK N   1      31.692  16.959   2.751  0.00  0.00     0.205 C 
BRANCH  29  30
HETATM   30  O   UNK N   1      32.866  16.205   2.653  0.00  0.00    -0.396 OA
HETATM   31  H   UNK N   1      33.284  15.851   3.453  0.00  0.00     0.209 HD
ENDBRANCH  29  30
ENDBRANCH  25  29
ENDBRANCH   5  21
BRANCH   1  32
HETATM   32  N   UNK N   1      22.505  16.274   5.036  0.00  0.00    -0.358 N 
HETATM   33  C   UNK N   1      22.098  15.578   3.813  0.00  0.00     0.151 C 
HETATM   34  C   UNK N   1      21.167  16.398   2.928  0.00  0.00     0.187 C 
HETATM   35  O   UNK N   1      21.554  17.737   2.978  0.00  0.00    -0.388 OA
HETATM   36  C   UNK N   1      21.083  18.161   4.223  0.00  0.00     0.192 C 
HETATM   37  C   UNK N   1      21.985  17.614   5.334  0.00  0.00     0.105 C 
HETATM   38  C   UNK N   1      21.199  17.635   6.634  0.00  0.00     0.034 C 
ENDBRANCH   1  32
TORSDOF 5
ENDMDL
MODEL 4
REMARK VINA RESULT:      -7.6      1.850      5.094
REMARK  5 active torsions:
REMARK  status: ('A' for Active; 'I' for Inactive)
REMARK    1  A    between atoms: N_7  and  C_8 
REMARK    2  A    between atoms: C_12  and  C_28 
REMARK       I    between atoms: C_18  and  N_21 
REMARK    3  A    between atoms: C_31  and  O_36 
REMARK    4  A    between atoms: C_32  and  C_34 
REMARK    5  A    between atoms: C_34  and  O_35 
ROOT
HETATM    1  C   UNK N   1      23.698  15.989   5.649  0.00  0.00     0.133 A 
HETATM    2  C   UNK N   1      25.094  16.265   5.564  0.00  0.00     0.053 A 
HETATM    3  C   UNK N   1      25.662  17.147   4.634  0.00  0.00     0.021 A 
HETATM    4  C   UNK N   1      27.035  17.378   4.615  0.00  0.00     0.031 A 
HETATM    5  C   UNK N   1      27.852  16.718   5.538  0.00  0.00     0.044 A 
HETATM    6  N   UNK N   1      27.289  15.873   6.444  0.00  0.00    -0.341 N 
ATOM      7  HN  UNK N   1      27.893  15.401   7.116  1.00  0.00     0.167 HD
HETATM    8  C   UNK N   1      25.955  15.640   6.484  0.00  0.00     0.135 A 
HETATM    9  N   UNK N   1      25.459  14.802   7.420  0.00  0.00    -0.175 N 
ATOM     10  HN  UNK N   1      26.099  14.357   8.079  1.00  0.00     0.186 HD
HETATM   11  C   UNK N   1      24.133  14.537   7.504  0.00  0.00     0.684 A 
HETATM   12  N   UNK N   1      23.271  15.132   6.626  0.00  0.00    -0.176 N 
ATOM     13  HN  UNK N   1      22.275  14.929   6.703  1.00  0.00     0.186 HD
HETATM   14  N   UNK N   1      23.661  13.637   8.509  0.00  0.00    -0.209 N 
HETATM   15  C   UNK N   1      24.645  13.065   9.427  0.00  0.00     0.168 C 
HETATM   16  C   UNK N   1      24.027  12.091  10.427  0.00  0.00     0.188 C 
HETATM   17  O   UNK N   1      23.053  11.326   9.783  0.00  0.00    -0.388 OA
HETATM   18  C   UNK N   1      21.974  12.205   9.650  0.00  0.00     0.193 C 
HETATM   19  C   UNK N   1      22.255  13.221   8.538  0.00  0.00     0.122 C 
HETATM   20  C   UNK N   1      21.334  14.409   8.755  0.00  0.00     0.035 C 
ENDROOT
BRANCH   5  21
HETATM   21  C   UNK N   1      29.314  16.889   5.524  0.00  0.00    -0.009 A 
HETATM   22  C   UNK N   1      30.045  16.840   4.334  0.00  0.00     0.016 A 
HETATM   23  C   UNK N   1      31.435  16.959   4.362  0.00  0.00     0.038 A 
HETATM   24  C   UNK N   1      32.125  17.118   5.571  0.00  0.00     0.076 A 
HETATM   25  C   UNK N   1      31.381  17.174   6.787  0.00  0.00    -0.001 A 
HETATM   26  C   UNK N   1      29.988  17.061   6.734  0.00  0.00     0.026 A 
BRANCH  24  27
HETATM   27  O   UNK N   1      33.482  17.204   5.500  0.00  0.00    -0.355 OA
HETATM   28  C   UNK N   1      34.370  16.155   5.528  0.00  0.00     0.210 C 
ENDBRANCH  24  27
BRANCH  25  29
HETATM   29  C   UNK N   1      32.034  17.342   8.133  0.00  0.00     0.205 C 
BRANCH  29  30
HETATM   30  O   UNK N   1      33.028  18.325   8.120  0.00  0.00    -0.396 OA
HETATM   31  H   UNK N   1      33.940  18.089   7.891  0.00  0.00     0.209 HD
ENDBRANCH  29  30
ENDBRANCH  25  29
ENDBRANCH   5  21
BRANCH   1  32
HETATM   32  N   UNK N   1      22.719  16.603   4.777  0.00  0.00    -0.358 N 
HETATM   33  C   UNK N   1      22.328  18.002   4.966  0.00  0.00     0.151 C 
HETATM   34  C   UNK N   1      21.151  18.427   4.095  0.00  0.00     0.187 C 
HETATM   35  O   UNK N   1      20.251  17.366   3.996  0.00  0.00    -0.388 OA
HETATM   36  C   UNK N   1      20.875  16.499   3.094  0.00  0.00     0.192 C 
HETATM   37  C   UNK N   1      22.027  15.767   3.788  0.00  0.00     0.105 C 
HETATM   38  C   UNK N   1      22.978  15.260   2.718  0.00  0.00     0.034 C 
ENDBRANCH   1  32
TORSDOF 5
ENDMDL
MODEL 5
REMARK VINA RESULT:      -7.4     11.188     14.325
REMARK  5 active torsions:
REMARK  status: ('A' for Active; 'I' for Inactive)
REMARK    1  A    between atoms: N_7  and  C_8 
REMARK    2  A    between atoms: C_12  and  C_28 
REMARK       I    between atoms: C_18  and  N_21 
REMARK    3  A    between atoms: C_31  and  O_36 
REMARK    4  A    between atoms: C_32  and  C_34 
REMARK    5  A    between atoms: C_34  and  O_35 
ROOT
HETATM    1  C   UNK N   1      34.480  10.988  10.756  0.00  0.00     0.133 A 
HETATM    2  C   UNK N   1      34.603  10.848  12.170  0.00  0.00     0.053 A 
HETATM    3  C   UNK N   1      34.528   9.621  12.844  0.00  0.00     0.021 A 
HETATM    4  C   UNK N   1      34.669   9.557  14.228  0.00  0.00     0.031 A 
HETATM    5  C   UNK N   1      34.888  10.736  14.948  0.00  0.00     0.044 A 
HETATM    6  N   UNK N   1      34.971  11.919  14.283  0.00  0.00    -0.341 N 
ATOM      7  HN  UNK N   1      35.134  12.772  14.817  1.00  0.00     0.167 HD
HETATM    8  C   UNK N   1      34.843  12.003  12.936  0.00  0.00     0.135 A 
HETATM    9  N   UNK N   1      34.952  13.208  12.336  0.00  0.00    -0.175 N 
ATOM     10  HN  UNK N   1      35.126  14.035  12.908  1.00  0.00     0.186 HD
HETATM   11  C   UNK N   1      34.836  13.345  10.994  0.00  0.00     0.684 A 
HETATM   12  N   UNK N   1      34.606  12.241  10.222  0.00  0.00    -0.176 N 
ATOM     13  HN  UNK N   1      34.525  12.356   9.212  1.00  0.00     0.186 HD
HETATM   14  N   UNK N   1      34.953  14.644  10.409  0.00  0.00    -0.209 N 
HETATM   15  C   UNK N   1      35.228  15.770  11.302  0.00  0.00     0.168 C 
HETATM   16  C   UNK N   1      35.291  17.106  10.568  0.00  0.00     0.188 C 
HETATM   17  O   UNK N   1      34.300  17.140   9.585  0.00  0.00    -0.388 OA
HETATM   18  C   UNK N   1      34.808  16.319   8.573  0.00  0.00     0.193 C 
HETATM   19  C   UNK N   1      34.693  14.847   8.981  0.00  0.00     0.122 C 
HETATM   20  C   UNK N   1      35.667  14.054   8.126  0.00  0.00     0.035 C 
ENDROOT
BRANCH   5  21
HETATM   21  C   UNK N   1      34.990  10.726  16.416  0.00  0.00    -0.009 A 
HETATM   22  C   UNK N   1      34.913   9.537  17.148  0.00  0.00     0.016 A 
HETATM   23  C   UNK N   1      34.967   9.569  18.541  0.00  0.00     0.038 A 
HETATM   24  C   UNK N   1      35.089  10.781  19.235  0.00  0.00     0.076 A 
HETATM   25  C   UNK N   1      35.174  11.995  18.491  0.00  0.00    -0.001 A 
HETATM   26  C   UNK N   1      35.125  11.938  17.094  0.00  0.00     0.026 A 
BRANCH  24  27
HETATM   27  O   UNK N   1      35.112  10.713  20.595  0.00  0.00    -0.355 OA
HETATM   28  C   UNK N   1      34.228  10.028  21.394  0.00  0.00     0.210 C 
ENDBRANCH  24  27
BRANCH  25  29
HETATM   29  C   UNK N   1      35.304  13.343  19.147  0.00  0.00     0.205 C 
BRANCH  29  30
HETATM   30  O   UNK N   1      34.678  13.387  20.397  0.00  0.00    -0.396 OA
HETATM   31  H   UNK N   1      35.040  12.878  21.138  0.00  0.00     0.209 HD
ENDBRANCH  29  30
ENDBRANCH  25  29
ENDBRANCH   5  21
BRANCH   1  32
HETATM   32  N   UNK N   1      34.267   9.864   9.869  0.00  0.00    -0.358 N 
HETATM   33  C   UNK N   1      32.912   9.481   9.466  0.00  0.00     0.151 C 
HETATM   34  C   UNK N   1      32.856   8.167   8.695  0.00  0.00     0.187 C 
HETATM   35  O   UNK N   1      33.796   7.286   9.229  0.00  0.00    -0.388 OA
HETATM   36  C   UNK N   1      35.008   7.768   8.728  0.00  0.00     0.192 C 
HETATM   37  C   UNK N   1      35.417   9.035   9.486  0.00  0.00     0.105 C 
HETATM   38  C   UNK N   1      36.402   9.805   8.624  0.00  0.00     0.034 C 
ENDBRANCH   1  32
TORSDOF 5
ENDMDL
MODEL 6
REMARK VINA RESULT:      -7.4      6.755     12.638
REMARK  5 active torsions:
REMARK  status: ('A' for Active; 'I' for Inactive)
REMARK    1  A    between atoms: N_7  and  C_8 
REMARK    2  A    between atoms: C_12  and  C_28 
REMARK       I    between atoms: C_18  and  N_21 
REMARK    3  A    between atoms: C_31  and  O_36 
REMARK    4  A    between atoms: C_32  and  C_34 
REMARK    5  A    between atoms: C_34  and  O_35 
ROOT
HETATM    1  C   UNK N   1      35.476  13.876   9.637  0.00  0.00     0.133 A 
HETATM    2  C   UNK N   1      34.327  14.544   9.122  0.00  0.00     0.053 A 
HETATM    3  C   UNK N   1      33.220  14.908   9.902  0.00  0.00     0.021 A 
HETATM    4  C   UNK N   1      32.134  15.570   9.334  0.00  0.00     0.031 A 
HETATM    5  C   UNK N   1      32.155  15.872   7.969  0.00  0.00     0.044 A 
HETATM    6  N   UNK N   1      33.240  15.525   7.224  0.00  0.00    -0.341 N 
ATOM      7  HN  UNK N   1      33.247  15.754   6.231  1.00  0.00     0.167 HD
HETATM    8  C   UNK N   1      34.309  14.886   7.758  0.00  0.00     0.135 A 
HETATM    9  N   UNK N   1      35.360  14.585   6.966  0.00  0.00    -0.175 N 
ATOM     10  HN  UNK N   1      35.330  14.841   5.979  1.00  0.00     0.186 HD
HETATM   11  C   UNK N   1      36.454  13.950   7.451  0.00  0.00     0.684 A 
HETATM   12  N   UNK N   1      36.503  13.607   8.773  0.00  0.00    -0.176 N 
ATOM     13  HN  UNK N   1      37.334  13.134   9.128  1.00  0.00     0.186 HD
HETATM   14  N   UNK N   1      37.538  13.647   6.569  0.00  0.00    -0.209 N 
HETATM   15  C   UNK N   1      37.419  14.074   5.175  0.00  0.00     0.168 C 
HETATM   16  C   UNK N   1      38.618  13.661   4.325  0.00  0.00     0.188 C 
HETATM   17  O   UNK N   1      39.025  12.377   4.696  0.00  0.00    -0.388 OA
HETATM   18  C   UNK N   1      39.687  12.577   5.911  0.00  0.00     0.193 C 
HETATM   19  C   UNK N   1      38.672  12.839   7.028  0.00  0.00     0.122 C 
HETATM   20  C   UNK N   1      39.407  13.520   8.170  0.00  0.00     0.035 C 
ENDROOT
BRANCH   5  21
HETATM   21  C   UNK N   1      31.010  16.524   7.313  0.00  0.00    -0.009 A 
HETATM   22  C   UNK N   1      30.787  16.401   5.938  0.00  0.00     0.016 A 
HETATM   23  C   UNK N   1      29.718  17.070   5.341  0.00  0.00     0.038 A 
HETATM   24  C   UNK N   1      28.858  17.882   6.094  0.00  0.00     0.076 A 
HETATM   25  C   UNK N   1      29.081  18.005   7.497  0.00  0.00    -0.001 A 
HETATM   26  C   UNK N   1      30.154  17.318   8.076  0.00  0.00     0.026 A 
BRANCH  24  27
HETATM   27  O   UNK N   1      27.857  18.512   5.420  0.00  0.00    -0.355 OA
HETATM   28  C   UNK N   1      27.959  19.689   4.718  0.00  0.00     0.210 C 
ENDBRANCH  24  27
BRANCH  25  29
HETATM   29  C   UNK N   1      28.212  18.853   8.387  0.00  0.00     0.205 C 
BRANCH  29  30
HETATM   30  O   UNK N   1      27.523  18.091   9.336  0.00  0.00    -0.396 OA
HETATM   31  H   UNK N   1      26.634  17.759   9.139  0.00  0.00     0.209 HD
ENDBRANCH  29  30
ENDBRANCH  25  29
ENDBRANCH   5  21
BRANCH   1  32
HETATM   32  N   UNK N   1      35.616  13.507  11.030  0.00  0.00    -0.358 N 
HETATM   33  C   UNK N   1      35.741  14.538  12.063  0.00  0.00     0.151 C 
HETATM   34  C   UNK N   1      36.077  13.981  13.441  0.00  0.00     0.187 C 
HETATM   35  O   UNK N   1      36.951  12.904  13.296  0.00  0.00    -0.388 OA
HETATM   36  C   UNK N   1      36.119  11.873  12.852  0.00  0.00     0.192 C 
HETATM   37  C   UNK N   1      35.765  12.089  11.377  0.00  0.00     0.105 C 
HETATM   38  C   UNK N   1      34.503  11.301  11.074  0.00  0.00     0.034 C 
ENDBRANCH   1  32
TORSDOF 5
ENDMDL
MODEL 7
REMARK VINA RESULT:      -7.2      7.277     13.652
REMARK  5 active torsions:
REMARK  status: ('A' for Active; 'I' for Inactive)
REMARK    1  A    between atoms: N_7  and  C_8 
REMARK    2  A    between atoms: C_12  and  C_28 
REMARK       I    between atoms: C_18  and  N_21 
REMARK    3  A    between atoms: C_31  and  O_36 
REMARK    4  A    between atoms: C_32  and  C_34 
REMARK    5  A    between atoms: C_34  and  O_35 
ROOT
HETATM    1  C   UNK N   1      36.641  13.368   9.212  0.00  0.00     0.133 A 
HETATM    2  C   UNK N   1      35.470  14.061   8.786  0.00  0.00     0.053 A 
HETATM    3  C   UNK N   1      35.259  14.507   7.474  0.00  0.00     0.021 A 
HETATM    4  C   UNK N   1      34.083  15.168   7.126  0.00  0.00     0.031 A 
HETATM    5  C   UNK N   1      33.106  15.386   8.102  0.00  0.00     0.044 A 
HETATM    6  N   UNK N   1      33.317  14.939   9.369  0.00  0.00    -0.341 N 
ATOM      7  HN  UNK N   1      32.596  15.099  10.073  1.00  0.00     0.167 HD
HETATM    8  C   UNK N   1      34.450  14.288   9.728  0.00  0.00     0.135 A 
HETATM    9  N   UNK N   1      34.588  13.855  11.000  0.00  0.00    -0.175 N 
ATOM     10  HN  UNK N   1      33.838  14.028  11.669  1.00  0.00     0.186 HD
HETATM   11  C   UNK N   1      35.700  13.197  11.408  0.00  0.00     0.684 A 
HETATM   12  N   UNK N   1      36.707  12.959  10.516  0.00  0.00    -0.176 N 
ATOM     13  HN  UNK N   1      37.536  12.458  10.833  1.00  0.00     0.186 HD
HETATM   14  N   UNK N   1      35.800  12.766  12.767  0.00  0.00    -0.209 N 
HETATM   15  C   UNK N   1      34.666  13.035  13.651  0.00  0.00     0.168 C 
HETATM   16  C   UNK N   1      34.906  12.565  15.083  0.00  0.00     0.188 C 
HETATM   17  O   UNK N   1      36.229  12.832  15.440  0.00  0.00    -0.388 OA
HETATM   18  C   UNK N   1      36.960  11.848  14.769  0.00  0.00     0.193 C 
HETATM   19  C   UNK N   1      37.043  12.178  13.275  0.00  0.00     0.122 C 
HETATM   20  C   UNK N   1      37.387  10.895  12.537  0.00  0.00     0.035 C 
ENDROOT
BRANCH   5  21
HETATM   21  C   UNK N   1      31.871  16.125   7.795  0.00  0.00    -0.009 A 
HETATM   22  C   UNK N   1      31.509  16.432   6.480  0.00  0.00     0.016 A 
HETATM   23  C   UNK N   1      30.356  17.175   6.228  0.00  0.00     0.038 A 
HETATM   24  C   UNK N   1      29.546  17.636   7.275  0.00  0.00     0.076 A 
HETATM   25  C   UNK N   1      29.910  17.320   8.618  0.00  0.00    -0.001 A 
HETATM   26  C   UNK N   1      31.067  16.567   8.846  0.00  0.00     0.026 A 
BRANCH  24  27
HETATM   27  O   UNK N   1      28.453  18.371   6.932  0.00  0.00    -0.355 OA
HETATM   28  C   UNK N   1      27.912  18.494   5.674  0.00  0.00     0.210 C 
ENDBRANCH  24  27
BRANCH  25  29
HETATM   29  C   UNK N   1      29.105  17.771   9.807  0.00  0.00     0.205 C 
BRANCH  29  30
HETATM   30  O   UNK N   1      27.748  17.919   9.501  0.00  0.00    -0.396 OA
HETATM   31  H   UNK N   1      27.458  18.635   8.915  0.00  0.00     0.209 HD
ENDBRANCH  29  30
ENDBRANCH  25  29
ENDBRANCH   5  21
BRANCH   1  32
HETATM   32  N   UNK N   1      37.737  13.051   8.320  0.00  0.00    -0.358 N 
HETATM   33  C   UNK N   1      38.934  13.894   8.283  0.00  0.00     0.151 C 
HETATM   34  C   UNK N   1      39.896  13.535   7.157  0.00  0.00     0.187 C 
HETATM   35  O   UNK N   1      39.161  13.163   6.031  0.00  0.00    -0.388 OA
HETATM   36  C   UNK N   1      38.721  11.875   6.347  0.00  0.00     0.192 C 
HETATM   37  C   UNK N   1      37.575  11.951   7.361  0.00  0.00     0.105 C 
HETATM   38  C   UNK N   1      37.472  10.607   8.060  0.00  0.00     0.034 C 
ENDBRANCH   1  32
TORSDOF 5
ENDMDL
MODEL 8
REMARK VINA RESULT:      -7.1      9.908     15.077
REMARK  5 active torsions:
REMARK  status: ('A' for Active; 'I' for Inactive)
REMARK    1  A    between atoms: N_7  and  C_8 
REMARK    2  A    between atoms: C_12  and  C_28 
REMARK       I    between atoms: C_18  and  N_21 
REMARK    3  A    between atoms: C_31  and  O_36 
REMARK    4  A    between atoms: C_32  and  C_34 
REMARK    5  A    between atoms: C_34  and  O_35 
ROOT
HETATM    1  C   UNK N   1      36.063  14.446   9.440  0.00  0.00     0.133 A 
HETATM    2  C   UNK N   1      35.994  13.935  10.769  0.00  0.00     0.053 A 
HETATM    3  C   UNK N   1      34.944  14.205  11.658  0.00  0.00     0.021 A 
HETATM    4  C   UNK N   1      34.936  13.661  12.940  0.00  0.00     0.031 A 
HETATM    5  C   UNK N   1      35.992  12.837  13.339  0.00  0.00     0.044 A 
HETATM    6  N   UNK N   1      37.001  12.572  12.465  0.00  0.00    -0.341 N 
ATOM      7  HN  UNK N   1      37.764  11.966  12.765  1.00  0.00     0.167 HD
HETATM    8  C   UNK N   1      37.025  13.085  11.211  0.00  0.00     0.135 A 
HETATM    9  N   UNK N   1      38.047  12.769  10.388  0.00  0.00    -0.175 N 
ATOM     10  HN  UNK N   1      38.785  12.151  10.725  1.00  0.00     0.186 HD
HETATM   11  C   UNK N   1      38.116  13.253   9.124  0.00  0.00     0.684 A 
HETATM   12  N   UNK N   1      37.129  14.078   8.665  0.00  0.00    -0.176 N 
ATOM     13  HN  UNK N   1      37.189  14.432   7.710  1.00  0.00     0.186 HD
HETATM   14  N   UNK N   1      39.224  12.893   8.295  0.00  0.00    -0.209 N 
HETATM   15  C   UNK N   1      40.223  11.982   8.853  0.00  0.00     0.168 C 
HETATM   16  C   UNK N   1      41.374  11.704   7.891  0.00  0.00     0.188 C 
HETATM   17  O   UNK N   1      41.709  12.882   7.220  0.00  0.00    -0.388 OA
HETATM   18  C   UNK N   1      40.682  13.035   6.284  0.00  0.00     0.193 C 
HETATM   19  C   UNK N   1      39.401  13.508   6.977  0.00  0.00     0.122 C 
HETATM   20  C   UNK N   1      38.234  13.190   6.058  0.00  0.00     0.035 C 
ENDROOT
BRANCH   5  21
HETATM   21  C   UNK N   1      36.055  12.281  14.701  0.00  0.00    -0.009 A 
HETATM   22  C   UNK N   1      36.595  11.016  14.951  0.00  0.00     0.016 A 
HETATM   23  C   UNK N   1      36.596  10.501  16.248  0.00  0.00     0.038 A 
HETATM   24  C   UNK N   1      36.053  11.226  17.317  0.00  0.00     0.076 A 
HETATM   25  C   UNK N   1      35.508  12.520  17.066  0.00  0.00    -0.001 A 
HETATM   26  C   UNK N   1      35.524  13.019  15.759  0.00  0.00     0.026 A 
BRANCH  24  27
HETATM   27  O   UNK N   1      36.081  10.632  18.542  0.00  0.00    -0.355 OA
HETATM   28  C   UNK N   1      35.150   9.754  19.046  0.00  0.00     0.210 C 
ENDBRANCH  24  27
BRANCH  25  29
HETATM   29  C   UNK N   1      34.902  13.372  18.149  0.00  0.00     0.205 C 
BRANCH  29  30
HETATM   30  O   UNK N   1      35.604  13.272  19.355  0.00  0.00    -0.396 OA
HETATM   31  H   UNK N   1      36.166  14.003  19.651  0.00  0.00     0.209 HD
ENDBRANCH  29  30
ENDBRANCH  25  29
ENDBRANCH   5  21
BRANCH   1  32
HETATM   32  N   UNK N   1      35.042  15.300   8.870  0.00  0.00    -0.358 N 
HETATM   33  C   UNK N   1      35.000  16.728   9.196  0.00  0.00     0.151 C 
HETATM   34  C   UNK N   1      33.755  17.434   8.673  0.00  0.00     0.187 C 
HETATM   35  O   UNK N   1      32.664  16.571   8.779  0.00  0.00    -0.388 OA
HETATM   36  C   UNK N   1      32.857  15.679   7.720  0.00  0.00     0.192 C 
HETATM   37  C   UNK N   1      33.973  14.691   8.070  0.00  0.00     0.105 C 
HETATM   38  C   UNK N   1      34.507  14.103   6.775  0.00  0.00     0.034 C 
ENDBRANCH   1  32
TORSDOF 5
ENDMDL
MODEL 9
REMARK VINA RESULT:      -7.1      6.798     12.878
REMARK  5 active torsions:
REMARK  status: ('A' for Active; 'I' for Inactive)
REMARK    1  A    between atoms: N_7  and  C_8 
REMARK    2  A    between atoms: C_12  and  C_28 
REMARK       I    between atoms: C_18  and  N_21 
REMARK    3  A    between atoms: C_31  and  O_36 
REMARK    4  A    between atoms: C_32  and  C_34 
REMARK    5  A    between atoms: C_34  and  O_35 
ROOT
HETATM    1  C   UNK N   1      35.659  13.104   7.568  0.00  0.00     0.133 A 
HETATM    2  C   UNK N   1      34.498  13.896   7.331  0.00  0.00     0.053 A 
HETATM    3  C   UNK N   1      33.996  14.186   6.054  0.00  0.00     0.021 A 
HETATM    4  C   UNK N   1      32.848  14.958   5.897  0.00  0.00     0.031 A 
HETATM    5  C   UNK N   1      32.194  15.449   7.031  0.00  0.00     0.044 A 
HETATM    6  N   UNK N   1      32.683  15.153   8.266  0.00  0.00    -0.341 N 
ATOM      7  HN  UNK N   1      32.196  15.512   9.086  1.00  0.00     0.167 HD
HETATM    8  C   UNK N   1      33.795  14.397   8.441  0.00  0.00     0.135 A 
HETATM    9  N   UNK N   1      34.218  14.127   9.695  0.00  0.00    -0.175 N 
ATOM     10  HN  UNK N   1      33.694  14.499  10.488  1.00  0.00     0.186 HD
HETATM   11  C   UNK N   1      35.320  13.374   9.924  0.00  0.00     0.684 A 
HETATM   12  N   UNK N   1      36.024  12.871   8.866  0.00  0.00    -0.176 N 
ATOM     13  HN  UNK N   1      36.849  12.302   9.052  1.00  0.00     0.186 HD
HETATM   14  N   UNK N   1      35.730  13.123  11.271  0.00  0.00    -0.209 N 
HETATM   15  C   UNK N   1      34.906  13.674  12.346  0.00  0.00     0.168 C 
HETATM   16  C   UNK N   1      35.465  13.374  13.734  0.00  0.00     0.188 C 
HETATM   17  O   UNK N   1      36.856  13.490  13.705  0.00  0.00    -0.388 OA
HETATM   18  C   UNK N   1      37.274  12.326  13.053  0.00  0.00     0.193 C 
HETATM   19  C   UNK N   1      36.993  12.434  11.551  0.00  0.00     0.122 C 
HETATM   20  C   UNK N   1      36.990  11.026  10.980  0.00  0.00     0.035 C 
ENDROOT
BRANCH   5  21
HETATM   21  C   UNK N   1      31.008  16.313   6.915  0.00  0.00    -0.009 A 
HETATM   22  C   UNK N   1      30.444  16.620   5.673  0.00  0.00     0.016 A 
HETATM   23  C   UNK N   1      29.349  17.480   5.596  0.00  0.00     0.038 A 
HETATM   24  C   UNK N   1      28.799  18.060   6.747  0.00  0.00     0.076 A 
HETATM   25  C   UNK N   1      29.368  17.744   8.016  0.00  0.00    -0.001 A 
HETATM   26  C   UNK N   1      30.461  16.873   8.071  0.00  0.00     0.026 A 
BRANCH  24  27
HETATM   27  O   UNK N   1      27.744  18.903   6.570  0.00  0.00    -0.355 OA
HETATM   28  C   UNK N   1      27.771  20.122   5.935  0.00  0.00     0.210 C 
ENDBRANCH  24  27
BRANCH  25  29
HETATM   29  C   UNK N   1      28.847  18.317   9.307  0.00  0.00     0.205 C 
BRANCH  29  30
HETATM   30  O   UNK N   1      27.451  18.284   9.375  0.00  0.00    -0.396 OA
HETATM   31  H   UNK N   1      26.938  17.920   8.637  0.00  0.00     0.209 HD
ENDBRANCH  29  30
ENDBRANCH  25  29
ENDBRANCH   5  21
BRANCH   1  32
HETATM   32  N   UNK N   1      36.439  12.510   6.503  0.00  0.00    -0.358 N 
HETATM   33  C   UNK N   1      35.982  11.287   5.840  0.00  0.00     0.151 C 
HETATM   34  C   UNK N   1      37.012  10.692   4.885  0.00  0.00     0.187 C 
HETATM   35  O   UNK N   1      38.286  10.864   5.425  0.00  0.00    -0.388 OA
HETATM   36  C   UNK N   1      38.550  12.217   5.198  0.00  0.00     0.192 C 
HETATM   37  C   UNK N   1      37.757  13.075   6.188  0.00  0.00     0.105 C 
HETATM   38  C   UNK N   1      37.645  14.477   5.615  0.00  0.00     0.034 C 
ENDBRANCH   1  32
TORSDOF 5
ENDMDL
