MODEL 1
REMARK VINA RESULT:      -8.5      0.000      0.000
REMARK  7 active torsions:
REMARK  status: ('A' for Active; 'I' for Inactive)
REMARK    1  A    between atoms: C_2  and  C_4 
REMARK    2  A    between atoms: C_7  and  N_11 
REMARK    3  A    between atoms: C_14  and  C_17 
REMARK    4  A    between atoms: C_17  and  O_18 
REMARK    5  A    between atoms: O_18  and  C_19 
REMARK    6  A    between atoms: C_22  and  C_26 
REMARK    7  A    between atoms: C_29  and  S_32 
ROOT
HETATM    1  O   UNK N   1      30.631  16.317   6.198  0.00  0.00    -0.349 OA
ENDROOT
BRANCH   1   2
HETATM    2  C   UNK N   1      31.809  16.978   6.472  0.00  0.00     0.180 C 
BRANCH   2   3
HETATM    3  C   UNK N   1      31.749  17.561   7.883  0.00  0.00     0.013 C 
HETATM    4  C   UNK N   1      31.564  16.436   8.905  0.00  0.00     0.027 C 
HETATM    5  C   UNK N   1      32.745  15.481   8.797  0.00  0.00     0.127 C 
HETATM    6  N   UNK N   1      33.960  16.228   9.012  0.00  0.00    -0.346 N 
HETATM    7  C   UNK N   1      34.244  17.392   8.199  0.00  0.00     0.127 C 
HETATM    8  C   UNK N   1      33.035  18.333   8.197  0.00  0.00     0.027 C 
BRANCH   6   9
HETATM    9  C   UNK N   1      34.849  15.815  10.024  0.00  0.00     0.246 A 
HETATM   10  N   UNK N   1      34.660  14.716  10.773  0.00  0.00    -0.308 N 
HETATM   11  C   UNK N   1      35.752  14.709  11.559  0.00  0.00     0.108 A 
ATOM     12  HN  UNK N   1      33.883  14.055  10.752  1.00  0.00     0.170 HD
HETATM   13  N   UNK N   1      36.555  15.761  11.294  0.00  0.00    -0.245 N 
HETATM   14  O   UNK N   1      35.967  16.419  10.339  0.00  0.00    -0.199 OA
ATOM     15  HN  UNK N   1      37.438  15.992  11.748  1.00  0.00     0.196 HD
BRANCH  11  16
HETATM   16  C   UNK N   1      36.046  13.657  12.583  0.00  0.00     0.047 C 
HETATM   17  C   UNK N   1      36.394  14.314  13.903  0.00  0.00     0.017 C 
HETATM   18  C   UNK N   1      37.205  12.771  12.155  0.00  0.00     0.017 C 
ENDBRANCH  11  16
ENDBRANCH   6   9
ENDBRANCH   2   3
ENDBRANCH   1   2
BRANCH   1  19
HETATM   19  C   UNK N   1      29.531  16.961   5.762  0.00  0.00     0.084 A 
HETATM   20  C   UNK N   1      28.335  16.843   6.469  0.00  0.00     0.040 A 
HETATM   21  C   UNK N   1      27.181  17.450   5.977  0.00  0.00     0.033 A 
HETATM   22  C   UNK N   1      27.243  18.177   4.778  0.00  0.00     0.042 A 
HETATM   23  N   UNK N   1      28.433  18.309   4.131  0.00  0.00    -0.363 N 
HETATM   24  C   UNK N   1      29.563  17.731   4.594  0.00  0.00     0.125 A 
ATOM     25  HN  UNK N   1      28.472  18.859   3.273  1.00  0.00     0.165 HD
BRANCH  22  26
HETATM   26  C   UNK N   1      26.024  18.675   4.129  0.00  0.00    -0.009 A 
HETATM   27  C   UNK N   1      26.039  19.846   3.357  0.00  0.00     0.015 A 
HETATM   28  C   UNK N   1      24.841  20.386   2.885  0.00  0.00     0.024 A 
HETATM   29  C   UNK N   1      23.626  19.763   3.189  0.00  0.00     0.058 A 
HETATM   30  C   UNK N   1      23.611  18.583   3.936  0.00  0.00     0.024 A 
HETATM   31  C   UNK N   1      24.804  18.043   4.403  0.00  0.00     0.015 A 
BRANCH  29  32
HETATM   32  S   UNK N   1      22.089  20.507   2.684  0.00  0.00     0.171 S 
HETATM   33  O   UNK N   1      22.220  22.027   2.851  0.00  0.00    -0.223 OA
HETATM   34  O   UNK N   1      22.054  20.433   1.148  0.00  0.00    -0.223 OA
HETATM   35  C   UNK N   1      20.448  19.997   3.259  0.00  0.00     0.167 C 
ENDBRANCH  29  32
ENDBRANCH  22  26
ENDBRANCH   1  19
TORSDOF 7
ENDMDL
MODEL 2
REMARK VINA RESULT:      -8.0      1.181      1.653
REMARK  7 active torsions:
REMARK  status: ('A' for Active; 'I' for Inactive)
REMARK    1  A    between atoms: C_2  and  C_4 
REMARK    2  A    between atoms: C_7  and  N_11 
REMARK    3  A    between atoms: C_14  and  C_17 
REMARK    4  A    between atoms: C_17  and  O_18 
REMARK    5  A    between atoms: O_18  and  C_19 
REMARK    6  A    between atoms: C_22  and  C_26 
REMARK    7  A    between atoms: C_29  and  S_32 
ROOT
HETATM    1  O   UNK N   1      30.874  16.655   4.631  0.00  0.00    -0.349 OA
ENDROOT
BRANCH   1   2
HETATM    2  C   UNK N   1      31.624  16.959   5.746  0.00  0.00     0.180 C 
BRANCH   2   3
HETATM    3  C   UNK N   1      31.069  16.205   6.954  0.00  0.00     0.013 C 
HETATM    4  C   UNK N   1      31.937  14.979   7.248  0.00  0.00     0.027 C 
HETATM    5  C   UNK N   1      33.354  15.445   7.545  0.00  0.00     0.127 C 
HETATM    6  N   UNK N   1      33.310  16.368   8.653  0.00  0.00    -0.346 N 
HETATM    7  C   UNK N   1      32.456  17.534   8.586  0.00  0.00     0.127 C 
HETATM    8  C   UNK N   1      31.037  17.118   8.185  0.00  0.00     0.027 C 
BRANCH   6   9
HETATM    9  C   UNK N   1      34.097  16.109   9.793  0.00  0.00     0.246 A 
HETATM   10  N   UNK N   1      34.013  14.977  10.511  0.00  0.00    -0.308 N 
HETATM   11  C   UNK N   1      34.953  15.161  11.456  0.00  0.00     0.108 A 
ATOM     12  HN  UNK N   1      33.391  14.180  10.375  1.00  0.00     0.170 HD
HETATM   13  N   UNK N   1      35.568  16.353  11.311  0.00  0.00    -0.245 N 
HETATM   14  O   UNK N   1      35.016  16.909  10.273  0.00  0.00    -0.199 OA
ATOM     15  HN  UNK N   1      36.311  16.739  11.894  1.00  0.00     0.196 HD
BRANCH  11  16
HETATM   16  C   UNK N   1      35.285  14.162  12.520  0.00  0.00     0.047 C 
HETATM   17  C   UNK N   1      36.348  14.730  13.438  0.00  0.00     0.017 C 
HETATM   18  C   UNK N   1      35.798  12.861  11.922  0.00  0.00     0.017 C 
ENDBRANCH  11  16
ENDBRANCH   6   9
ENDBRANCH   2   3
ENDBRANCH   1   2
BRANCH   1  19
HETATM   19  C   UNK N   1      29.677  17.226   4.394  0.00  0.00     0.084 A 
HETATM   20  C   UNK N   1      29.323  18.394   5.069  0.00  0.00     0.040 A 
HETATM   21  C   UNK N   1      28.056  18.943   4.879  0.00  0.00     0.033 A 
HETATM   22  C   UNK N   1      27.157  18.313   4.005  0.00  0.00     0.042 A 
HETATM   23  N   UNK N   1      27.545  17.197   3.328  0.00  0.00    -0.363 N 
HETATM   24  C   UNK N   1      28.770  16.652   3.498  0.00  0.00     0.125 A 
ATOM     25  HN  UNK N   1      26.892  16.760   2.677  1.00  0.00     0.165 HD
BRANCH  22  26
HETATM   26  C   UNK N   1      25.758  18.746   3.914  0.00  0.00    -0.009 A 
HETATM   27  C   UNK N   1      24.708  17.893   4.284  0.00  0.00     0.015 A 
HETATM   28  C   UNK N   1      23.385  18.268   4.038  0.00  0.00     0.024 A 
HETATM   29  C   UNK N   1      23.109  19.489   3.415  0.00  0.00     0.058 A 
HETATM   30  C   UNK N   1      24.151  20.350   3.069  0.00  0.00     0.024 A 
HETATM   31  C   UNK N   1      25.469  19.980   3.317  0.00  0.00     0.015 A 
BRANCH  29  32
HETATM   32  S   UNK N   1      21.432  19.921   2.999  0.00  0.00     0.171 S 
HETATM   33  O   UNK N   1      20.671  20.179   4.306  0.00  0.00    -0.223 OA
HETATM   34  O   UNK N   1      21.475  21.358   2.454  0.00  0.00    -0.223 OA
HETATM   35  C   UNK N   1      20.363  18.979   1.878  0.00  0.00     0.167 C 
ENDBRANCH  29  32
ENDBRANCH  22  26
ENDBRANCH   1  19
TORSDOF 7
ENDMDL
MODEL 3
REMARK VINA RESULT:      -7.7      5.038     13.178
REMARK  7 active torsions:
REMARK  status: ('A' for Active; 'I' for Inactive)
REMARK    1  A    between atoms: C_2  and  C_4 
REMARK    2  A    between atoms: C_7  and  N_11 
REMARK    3  A    between atoms: C_14  and  C_17 
REMARK    4  A    between atoms: C_17  and  O_18 
REMARK    5  A    between atoms: O_18  and  C_19 
REMARK    6  A    between atoms: C_22  and  C_26 
REMARK    7  A    between atoms: C_29  and  S_32 
ROOT
HETATM    1  O   UNK N   1      35.269  16.025   8.826  0.00  0.00    -0.349 OA
ENDROOT
BRANCH   1   2
HETATM    2  C   UNK N   1      34.109  16.044   8.082  0.00  0.00     0.180 C 
BRANCH   2   3
HETATM    3  C   UNK N   1      33.801  17.480   7.658  0.00  0.00     0.013 C 
HETATM    4  C   UNK N   1      33.753  17.574   6.131  0.00  0.00     0.027 C 
HETATM    5  C   UNK N   1      32.662  16.645   5.619  0.00  0.00     0.127 C 
HETATM    6  N   UNK N   1      31.412  17.022   6.235  0.00  0.00    -0.346 N 
HETATM    7  C   UNK N   1      31.311  17.088   7.676  0.00  0.00     0.127 C 
HETATM    8  C   UNK N   1      32.457  17.932   8.242  0.00  0.00     0.027 C 
BRANCH   6   9
HETATM    9  C   UNK N   1      30.311  17.333   5.413  0.00  0.00     0.246 A 
HETATM   10  N   UNK N   1      29.204  17.950   5.859  0.00  0.00    -0.308 N 
HETATM   11  C   UNK N   1      28.463  18.061   4.741  0.00  0.00     0.108 A 
ATOM     12  HN  UNK N   1      28.981  18.255   6.807  1.00  0.00     0.170 HD
HETATM   13  N   UNK N   1      29.099  17.531   3.676  0.00  0.00    -0.245 N 
HETATM   14  O   UNK N   1      30.237  17.094   4.128  0.00  0.00    -0.199 OA
ATOM     15  HN  UNK N   1      28.757  17.481   2.716  1.00  0.00     0.196 HD
BRANCH  11  16
HETATM   16  C   UNK N   1      27.115  18.710   4.685  0.00  0.00     0.047 C 
HETATM   17  C   UNK N   1      26.087  17.709   4.199  0.00  0.00     0.017 C 
HETATM   18  C   UNK N   1      27.112  19.910   3.751  0.00  0.00     0.017 C 
ENDBRANCH  11  16
ENDBRANCH   6   9
ENDBRANCH   2   3
ENDBRANCH   1   2
BRANCH   1  19
HETATM   19  C   UNK N   1      35.380  15.312   9.964  0.00  0.00     0.084 A 
HETATM   20  C   UNK N   1      34.859  14.020  10.023  0.00  0.00     0.040 A 
HETATM   21  C   UNK N   1      34.908  13.311  11.223  0.00  0.00     0.033 A 
HETATM   22  C   UNK N   1      35.488  13.909  12.352  0.00  0.00     0.042 A 
HETATM   23  N   UNK N   1      36.024  15.156  12.254  0.00  0.00    -0.363 N 
HETATM   24  C   UNK N   1      35.989  15.857  11.099  0.00  0.00     0.125 A 
ATOM     25  HN  UNK N   1      36.464  15.572  13.075  1.00  0.00     0.165 HD
BRANCH  22  26
HETATM   26  C   UNK N   1      35.398  13.278  13.674  0.00  0.00    -0.009 A 
HETATM   27  C   UNK N   1      36.229  13.683  14.729  0.00  0.00     0.015 A 
HETATM   28  C   UNK N   1      36.237  12.962  15.926  0.00  0.00     0.024 A 
HETATM   29  C   UNK N   1      35.423  11.834  16.068  0.00  0.00     0.058 A 
HETATM   30  C   UNK N   1      34.576  11.445  15.029  0.00  0.00     0.024 A 
HETATM   31  C   UNK N   1      34.565  12.164  13.838  0.00  0.00     0.015 A 
BRANCH  29  32
HETATM   32  S   UNK N   1      35.511  10.849  17.550  0.00  0.00     0.171 S 
HETATM   33  O   UNK N   1      34.477   9.721  17.432  0.00  0.00    -0.223 OA
HETATM   34  O   UNK N   1      36.797  10.013  17.440  0.00  0.00    -0.223 OA
HETATM   35  C   UNK N   1      35.469  11.506  19.239  0.00  0.00     0.167 C 
ENDBRANCH  29  32
ENDBRANCH  22  26
ENDBRANCH   1  19
TORSDOF 7
ENDMDL
MODEL 4
REMARK VINA RESULT:      -7.7      6.711     14.479
REMARK  7 active torsions:
REMARK  status: ('A' for Active; 'I' for Inactive)
REMARK    1  A    between atoms: C_2  and  C_4 
REMARK    2  A    between atoms: C_7  and  N_11 
REMARK    3  A    between atoms: C_14  and  C_17 
REMARK    4  A    between atoms: C_17  and  O_18 
REMARK    5  A    between atoms: O_18  and  C_19 
REMARK    6  A    between atoms: C_22  and  C_26 
REMARK    7  A    between atoms: C_29  and  S_32 
ROOT
HETATM    1  O   UNK N   1      36.891  13.401  12.412  0.00  0.00    -0.349 OA
ENDROOT
BRANCH   1   2
HETATM    2  C   UNK N   1      36.266  13.077  11.227  0.00  0.00     0.180 C 
BRANCH   2   3
HETATM    3  C   UNK N   1      36.654  14.092  10.152  0.00  0.00     0.013 C 
HETATM    4  C   UNK N   1      35.822  13.858   8.889  0.00  0.00     0.027 C 
HETATM    5  C   UNK N   1      34.350  14.023   9.238  0.00  0.00     0.127 C 
HETATM    6  N   UNK N   1      34.155  15.341   9.791  0.00  0.00    -0.346 N 
HETATM    7  C   UNK N   1      34.940  15.768  10.930  0.00  0.00     0.127 C 
HETATM    8  C   UNK N   1      36.427  15.521  10.660  0.00  0.00     0.027 C 
BRANCH   6   9
HETATM    9  C   UNK N   1      33.205  16.199   9.201  0.00  0.00     0.246 A 
HETATM   10  N   UNK N   1      31.879  16.000   9.275  0.00  0.00    -0.308 N 
HETATM   11  C   UNK N   1      31.388  17.062   8.612  0.00  0.00     0.108 A 
ATOM     12  HN  UNK N   1      31.372  15.235   9.722  1.00  0.00     0.170 HD
HETATM   13  N   UNK N   1      32.378  17.858   8.158  0.00  0.00    -0.245 N 
HETATM   14  O   UNK N   1      33.485  17.295   8.542  0.00  0.00    -0.199 OA
ATOM     15  HN  UNK N   1      32.279  18.720   7.622  1.00  0.00     0.196 HD
BRANCH  11  16
HETATM   16  C   UNK N   1      29.928  17.335   8.421  0.00  0.00     0.047 C 
HETATM   17  C   UNK N   1      29.626  17.478   6.943  0.00  0.00     0.017 C 
HETATM   18  C   UNK N   1      29.500  18.607   9.135  0.00  0.00     0.017 C 
ENDBRANCH  11  16
ENDBRANCH   6   9
ENDBRANCH   2   3
ENDBRANCH   1   2
BRANCH   1  19
HETATM   19  C   UNK N   1      36.441  12.964  13.604  0.00  0.00     0.084 A 
HETATM   20  C   UNK N   1      36.423  13.831  14.696  0.00  0.00     0.040 A 
HETATM   21  C   UNK N   1      36.026  13.357  15.946  0.00  0.00     0.033 A 
HETATM   22  C   UNK N   1      35.645  12.014  16.083  0.00  0.00     0.042 A 
HETATM   23  N   UNK N   1      35.633  11.201  14.991  0.00  0.00    -0.363 N 
HETATM   24  C   UNK N   1      36.011  11.643  13.771  0.00  0.00     0.125 A 
ATOM     25  HN  UNK N   1      35.332  10.233  15.097  1.00  0.00     0.165 HD
BRANCH  22  26
HETATM   26  C   UNK N   1      35.398  11.427  17.405  0.00  0.00    -0.009 A 
HETATM   27  C   UNK N   1      34.989  10.092  17.542  0.00  0.00     0.015 A 
HETATM   28  C   UNK N   1      34.606   9.605  18.794  0.00  0.00     0.024 A 
HETATM   29  C   UNK N   1      34.624  10.451  19.908  0.00  0.00     0.058 A 
HETATM   30  C   UNK N   1      35.054  11.772  19.779  0.00  0.00     0.024 A 
HETATM   31  C   UNK N   1      35.439  12.257  18.533  0.00  0.00     0.015 A 
BRANCH  29  32
HETATM   32  S   UNK N   1      34.032   9.866  21.483  0.00  0.00     0.171 S 
HETATM   33  O   UNK N   1      33.037  10.898  22.029  0.00  0.00    -0.223 OA
HETATM   34  O   UNK N   1      33.052   8.719  21.181  0.00  0.00    -0.223 OA
HETATM   35  C   UNK N   1      35.086   9.295  22.843  0.00  0.00     0.167 C 
ENDBRANCH  29  32
ENDBRANCH  22  26
ENDBRANCH   1  19
TORSDOF 7
ENDMDL
MODEL 5
REMARK VINA RESULT:      -7.6      5.520     13.551
REMARK  7 active torsions:
REMARK  status: ('A' for Active; 'I' for Inactive)
REMARK    1  A    between atoms: C_2  and  C_4 
REMARK    2  A    between atoms: C_7  and  N_11 
REMARK    3  A    between atoms: C_14  and  C_17 
REMARK    4  A    between atoms: C_17  and  O_18 
REMARK    5  A    between atoms: O_18  and  C_19 
REMARK    6  A    between atoms: C_22  and  C_26 
REMARK    7  A    between atoms: C_29  and  S_32 
ROOT
HETATM    1  O   UNK N   1      35.167  15.266   9.681  0.00  0.00    -0.349 OA
ENDROOT
BRANCH   1   2
HETATM    2  C   UNK N   1      34.142  16.182   9.583  0.00  0.00     0.180 C 
BRANCH   2   3
HETATM    3  C   UNK N   1      33.524  16.106   8.187  0.00  0.00     0.013 C 
HETATM    4  C   UNK N   1      32.167  15.401   8.254  0.00  0.00     0.027 C 
HETATM    5  C   UNK N   1      31.251  16.194   9.175  0.00  0.00     0.127 C 
HETATM    6  N   UNK N   1      31.148  17.542   8.670  0.00  0.00    -0.346 N 
HETATM    7  C   UNK N   1      32.347  18.320   8.446  0.00  0.00     0.127 C 
HETATM    8  C   UNK N   1      33.343  17.514   7.606  0.00  0.00     0.027 C 
BRANCH   6   9
HETATM    9  C   UNK N   1      29.873  18.074   8.392  0.00  0.00     0.246 A 
HETATM   10  N   UNK N   1      29.480  18.455   7.166  0.00  0.00    -0.308 N 
HETATM   11  C   UNK N   1      28.213  18.855   7.378  0.00  0.00     0.108 A 
ATOM     12  HN  UNK N   1      30.009  18.444   6.294  1.00  0.00     0.170 HD
HETATM   13  N   UNK N   1      27.867  18.723   8.676  0.00  0.00    -0.245 N 
HETATM   14  O   UNK N   1      28.916  18.236   9.271  0.00  0.00    -0.199 OA
ATOM     15  HN  UNK N   1      26.971  18.958   9.102  1.00  0.00     0.196 HD
BRANCH  11  16
HETATM   16  C   UNK N   1      27.298  19.362   6.307  0.00  0.00     0.047 C 
HETATM   17  C   UNK N   1      27.953  19.183   4.952  0.00  0.00     0.017 C 
HETATM   18  C   UNK N   1      26.970  20.833   6.504  0.00  0.00     0.017 C 
ENDBRANCH  11  16
ENDBRANCH   6   9
ENDBRANCH   2   3
ENDBRANCH   1   2
BRANCH   1  19
HETATM   19  C   UNK N   1      35.443  14.620  10.830  0.00  0.00     0.084 A 
HETATM   20  C   UNK N   1      35.093  13.278  10.970  0.00  0.00     0.040 A 
HETATM   21  C   UNK N   1      35.312  12.631  12.186  0.00  0.00     0.033 A 
HETATM   22  C   UNK N   1      35.889  13.342  13.249  0.00  0.00     0.042 A 
HETATM   23  N   UNK N   1      36.258  14.639  13.071  0.00  0.00    -0.363 N 
HETATM   24  C   UNK N   1      36.056  15.282  11.900  0.00  0.00     0.125 A 
ATOM     25  HN  UNK N   1      36.698  15.140  13.843  1.00  0.00     0.165 HD
BRANCH  22  26
HETATM   26  C   UNK N   1      35.969  12.761  14.594  0.00  0.00    -0.009 A 
HETATM   27  C   UNK N   1      36.586  11.520  14.813  0.00  0.00     0.015 A 
HETATM   28  C   UNK N   1      36.508  10.914  16.070  0.00  0.00     0.024 A 
HETATM   29  C   UNK N   1      35.809  11.542  17.106  0.00  0.00     0.058 A 
HETATM   30  C   UNK N   1      35.217  12.789  16.897  0.00  0.00     0.024 A 
HETATM   31  C   UNK N   1      35.297  13.394  15.647  0.00  0.00     0.015 A 
BRANCH  29  32
HETATM   32  S   UNK N   1      35.614  10.724  18.676  0.00  0.00     0.171 S 
HETATM   33  O   UNK N   1      35.020  11.734  19.667  0.00  0.00    -0.223 OA
HETATM   34  O   UNK N   1      34.405   9.785  18.530  0.00  0.00    -0.223 OA
HETATM   35  C   UNK N   1      36.904   9.770  19.519  0.00  0.00     0.167 C 
ENDBRANCH  29  32
ENDBRANCH  22  26
ENDBRANCH   1  19
TORSDOF 7
ENDMDL
MODEL 6
REMARK VINA RESULT:      -7.5      3.310      5.349
REMARK  7 active torsions:
REMARK  status: ('A' for Active; 'I' for Inactive)
REMARK    1  A    between atoms: C_2  and  C_4 
REMARK    2  A    between atoms: C_7  and  N_11 
REMARK    3  A    between atoms: C_14  and  C_17 
REMARK    4  A    between atoms: C_17  and  O_18 
REMARK    5  A    between atoms: O_18  and  C_19 
REMARK    6  A    between atoms: C_22  and  C_26 
REMARK    7  A    between atoms: C_29  and  S_32 
ROOT
HETATM    1  O   UNK N   1      34.182  13.751   8.656  0.00  0.00    -0.349 OA
ENDROOT
BRANCH   1   2
HETATM    2  C   UNK N   1      35.445  14.148   9.035  0.00  0.00     0.180 C 
BRANCH   2   3
HETATM    3  C   UNK N   1      36.150  12.995   9.748  0.00  0.00     0.013 C 
HETATM    4  C   UNK N   1      37.293  13.534  10.610  0.00  0.00     0.027 C 
HETATM    5  C   UNK N   1      36.716  14.495  11.640  0.00  0.00     0.127 C 
HETATM    6  N   UNK N   1      35.723  13.792  12.417  0.00  0.00    -0.346 N 
HETATM    7  C   UNK N   1      34.623  13.130  11.750  0.00  0.00     0.127 C 
HETATM    8  C   UNK N   1      35.158  12.229  10.632  0.00  0.00     0.027 C 
BRANCH   6   9
HETATM    9  C   UNK N   1      35.852  13.754  13.820  0.00  0.00     0.246 A 
HETATM   10  N   UNK N   1      35.034  13.052  14.621  0.00  0.00    -0.308 N 
HETATM   11  C   UNK N   1      35.550  13.286  15.841  0.00  0.00     0.108 A 
ATOM     12  HN  UNK N   1      34.224  12.485  14.367  1.00  0.00     0.170 HD
HETATM   13  N   UNK N   1      36.627  14.096  15.771  0.00  0.00    -0.245 N 
HETATM   14  O   UNK N   1      36.785  14.362  14.508  0.00  0.00    -0.199 OA
ATOM     15  HN  UNK N   1      37.197  14.431  16.547  1.00  0.00     0.196 HD
BRANCH  11  16
HETATM   16  C   UNK N   1      35.010  12.704  17.110  0.00  0.00     0.047 C 
HETATM   17  C   UNK N   1      35.214  13.685  18.247  0.00  0.00     0.017 C 
HETATM   18  C   UNK N   1      35.700  11.395  17.461  0.00  0.00     0.017 C 
ENDBRANCH  11  16
ENDBRANCH   6   9
ENDBRANCH   2   3
ENDBRANCH   1   2
BRANCH   1  19
HETATM   19  C   UNK N   1      33.281  14.614   8.148  0.00  0.00     0.084 A 
HETATM   20  C   UNK N   1      33.021  15.812   8.812  0.00  0.00     0.040 A 
HETATM   21  C   UNK N   1      32.035  16.670   8.326  0.00  0.00     0.033 A 
HETATM   22  C   UNK N   1      31.323  16.315   7.170  0.00  0.00     0.042 A 
HETATM   23  N   UNK N   1      31.626  15.159   6.520  0.00  0.00    -0.363 N 
HETATM   24  C   UNK N   1      32.580  14.316   6.975  0.00  0.00     0.125 A 
ATOM     25  HN  UNK N   1      31.118  14.921   5.668  1.00  0.00     0.165 HD
BRANCH  22  26
HETATM   26  C   UNK N   1      30.159  17.092   6.729  0.00  0.00    -0.009 A 
HETATM   27  C   UNK N   1      29.927  17.343   5.368  0.00  0.00     0.015 A 
HETATM   28  C   UNK N   1      28.907  18.216   4.983  0.00  0.00     0.024 A 
HETATM   29  C   UNK N   1      28.124  18.846   5.956  0.00  0.00     0.058 A 
HETATM   30  C   UNK N   1      28.336  18.579   7.309  0.00  0.00     0.024 A 
HETATM   31  C   UNK N   1      29.349  17.706   7.693  0.00  0.00     0.015 A 
BRANCH  29  32
HETATM   32  S   UNK N   1      26.896  20.044   5.475  0.00  0.00     0.171 S 
HETATM   33  O   UNK N   1      27.137  20.406   4.003  0.00  0.00    -0.223 OA
HETATM   34  O   UNK N   1      25.573  19.275   5.323  0.00  0.00    -0.223 OA
HETATM   35  C   UNK N   1      26.506  21.559   6.391  0.00  0.00     0.167 C 
ENDBRANCH  29  32
ENDBRANCH  22  26
ENDBRANCH   1  19
TORSDOF 7
ENDMDL
MODEL 7
REMARK VINA RESULT:      -7.4      5.432     13.644
REMARK  7 active torsions:
REMARK  status: ('A' for Active; 'I' for Inactive)
REMARK    1  A    between atoms: C_2  and  C_4 
REMARK    2  A    between atoms: C_7  and  N_11 
REMARK    3  A    between atoms: C_14  and  C_17 
REMARK    4  A    between atoms: C_17  and  O_18 
REMARK    5  A    between atoms: O_18  and  C_19 
REMARK    6  A    between atoms: C_22  and  C_26 
REMARK    7  A    between atoms: C_29  and  S_32 
ROOT
HETATM    1  O   UNK N   1      35.788  15.335   9.755  0.00  0.00    -0.349 OA
ENDROOT
BRANCH   1   2
HETATM    2  C   UNK N   1      34.554  15.829   9.392  0.00  0.00     0.180 C 
BRANCH   2   3
HETATM    3  C   UNK N   1      33.892  14.870   8.403  0.00  0.00     0.013 C 
HETATM    4  C   UNK N   1      32.371  14.928   8.558  0.00  0.00     0.027 C 
HETATM    5  C   UNK N   1      31.907  16.350   8.278  0.00  0.00     0.127 C 
HETATM    6  N   UNK N   1      32.341  16.721   6.953  0.00  0.00    -0.346 N 
HETATM    7  C   UNK N   1      33.741  16.625   6.601  0.00  0.00     0.127 C 
HETATM    8  C   UNK N   1      34.276  15.237   6.965  0.00  0.00     0.027 C 
BRANCH   6   9
HETATM    9  C   UNK N   1      31.384  17.163   6.017  0.00  0.00     0.246 A 
HETATM   10  N   UNK N   1      30.085  17.334   6.309  0.00  0.00    -0.308 N 
HETATM   11  C   UNK N   1      29.582  17.785   5.146  0.00  0.00     0.108 A 
ATOM     12  HN  UNK N   1      29.601  17.163   7.191  1.00  0.00     0.170 HD
HETATM   13  N   UNK N   1      30.540  17.875   4.200  0.00  0.00    -0.245 N 
HETATM   14  O   UNK N   1      31.639  17.486   4.774  0.00  0.00    -0.199 OA
ATOM     15  HN  UNK N   1      30.425  18.184   3.234  1.00  0.00     0.196 HD
BRANCH  11  16
HETATM   16  C   UNK N   1      28.148  18.159   4.936  0.00  0.00     0.047 C 
HETATM   17  C   UNK N   1      27.598  17.414   3.737  0.00  0.00     0.017 C 
HETATM   18  C   UNK N   1      27.989  19.653   4.702  0.00  0.00     0.017 C 
ENDBRANCH  11  16
ENDBRANCH   6   9
ENDBRANCH   2   3
ENDBRANCH   1   2
BRANCH   1  19
HETATM   19  C   UNK N   1      35.991  14.702  10.927  0.00  0.00     0.084 A 
HETATM   20  C   UNK N   1      36.076  13.311  10.956  0.00  0.00     0.040 A 
HETATM   21  C   UNK N   1      36.212  12.653  12.178  0.00  0.00     0.033 A 
HETATM   22  C   UNK N   1      36.266  13.405  13.361  0.00  0.00     0.042 A 
HETATM   23  N   UNK N   1      36.222  14.764  13.299  0.00  0.00    -0.363 N 
HETATM   24  C   UNK N   1      36.094  15.419  12.124  0.00  0.00     0.125 A 
ATOM     25  HN  UNK N   1      36.286  15.302  14.163  1.00  0.00     0.165 HD
BRANCH  22  26
HETATM   26  C   UNK N   1      36.223  12.754  14.676  0.00  0.00    -0.009 A 
HETATM   27  C   UNK N   1      36.761  11.473  14.869  0.00  0.00     0.015 A 
HETATM   28  C   UNK N   1      36.566  10.811  16.084  0.00  0.00     0.024 A 
HETATM   29  C   UNK N   1      35.828  11.423  17.102  0.00  0.00     0.058 A 
HETATM   30  C   UNK N   1      35.314  12.707  16.921  0.00  0.00     0.024 A 
HETATM   31  C   UNK N   1      35.511  13.369  15.713  0.00  0.00     0.015 A 
BRANCH  29  32
HETATM   32  S   UNK N   1      35.483  10.538  18.610  0.00  0.00     0.171 S 
HETATM   33  O   UNK N   1      36.821  10.091  19.214  0.00  0.00    -0.223 OA
HETATM   34  O   UNK N   1      35.086  11.596  19.653  0.00  0.00    -0.223 OA
HETATM   35  C   UNK N   1      34.288   9.185  18.771  0.00  0.00     0.167 C 
ENDBRANCH  29  32
ENDBRANCH  22  26
ENDBRANCH   1  19
TORSDOF 7
ENDMDL
MODEL 8
REMARK VINA RESULT:      -7.4      2.069      2.517
REMARK  7 active torsions:
REMARK  status: ('A' for Active; 'I' for Inactive)
REMARK    1  A    between atoms: C_2  and  C_4 
REMARK    2  A    between atoms: C_7  and  N_11 
REMARK    3  A    between atoms: C_14  and  C_17 
REMARK    4  A    between atoms: C_17  and  O_18 
REMARK    5  A    between atoms: O_18  and  C_19 
REMARK    6  A    between atoms: C_22  and  C_26 
REMARK    7  A    between atoms: C_29  and  S_32 
ROOT
HETATM    1  O   UNK N   1      30.611  17.057   5.652  0.00  0.00    -0.349 OA
ENDROOT
BRANCH   1   2
HETATM    2  C   UNK N   1      31.029  16.963   6.962  0.00  0.00     0.180 C 
BRANCH   2   3
HETATM    3  C   UNK N   1      32.353  17.709   7.128  0.00  0.00     0.013 C 
HETATM    4  C   UNK N   1      32.890  17.508   8.547  0.00  0.00     0.027 C 
HETATM    5  C   UNK N   1      33.111  16.020   8.777  0.00  0.00     0.127 C 
HETATM    6  N   UNK N   1      34.018  15.529   7.768  0.00  0.00    -0.346 N 
HETATM    7  C   UNK N   1      33.714  15.729   6.368  0.00  0.00     0.127 C 
HETATM    8  C   UNK N   1      33.382  17.203   6.112  0.00  0.00     0.027 C 
BRANCH   6   9
HETATM    9  C   UNK N   1      35.197  14.869   8.169  0.00  0.00     0.246 A 
HETATM   10  N   UNK N   1      35.990  14.189   7.325  0.00  0.00    -0.308 N 
HETATM   11  C   UNK N   1      36.984  13.773   8.131  0.00  0.00     0.108 A 
ATOM     12  HN  UNK N   1      35.868  14.027   6.325  1.00  0.00     0.170 HD
HETATM   13  N   UNK N   1      36.790  14.184   9.401  0.00  0.00    -0.245 N 
HETATM   14  O   UNK N   1      35.679  14.860   9.386  0.00  0.00    -0.199 OA
ATOM     15  HN  UNK N   1      37.389  14.001  10.206  1.00  0.00     0.196 HD
BRANCH  11  16
HETATM   16  C   UNK N   1      38.163  12.974   7.671  0.00  0.00     0.047 C 
HETATM   17  C   UNK N   1      38.495  11.916   8.703  0.00  0.00     0.017 C 
HETATM   18  C   UNK N   1      39.385  13.853   7.459  0.00  0.00     0.017 C 
ENDBRANCH  11  16
ENDBRANCH   6   9
ENDBRANCH   2   3
ENDBRANCH   1   2
BRANCH   1  19
HETATM   19  C   UNK N   1      29.434  17.616   5.313  0.00  0.00     0.084 A 
HETATM   20  C   UNK N   1      28.763  18.425   6.230  0.00  0.00     0.040 A 
HETATM   21  C   UNK N   1      27.510  18.943   5.905  0.00  0.00     0.033 A 
HETATM   22  C   UNK N   1      26.945  18.645   4.656  0.00  0.00     0.042 A 
HETATM   23  N   UNK N   1      27.640  17.887   3.765  0.00  0.00    -0.363 N 
HETATM   24  C   UNK N   1      28.857  17.378   4.061  0.00  0.00     0.125 A 
ATOM     25  HN  UNK N   1      27.231  17.695   2.851  1.00  0.00     0.165 HD
BRANCH  22  26
HETATM   26  C   UNK N   1      25.559  19.012   4.344  0.00  0.00    -0.009 A 
HETATM   27  C   UNK N   1      24.483  18.232   4.792  0.00  0.00     0.015 A 
HETATM   28  C   UNK N   1      23.187  18.510   4.349  0.00  0.00     0.024 A 
HETATM   29  C   UNK N   1      22.966  19.561   3.453  0.00  0.00     0.058 A 
HETATM   30  C   UNK N   1      24.032  20.355   3.027  0.00  0.00     0.024 A 
HETATM   31  C   UNK N   1      25.322  20.081   3.470  0.00  0.00     0.015 A 
BRANCH  29  32
HETATM   32  S   UNK N   1      21.334  19.850   2.801  0.00  0.00     0.171 S 
HETATM   33  O   UNK N   1      20.491  20.506   3.903  0.00  0.00    -0.223 OA
HETATM   34  O   UNK N   1      21.454  21.046   1.841  0.00  0.00    -0.223 OA
HETATM   35  C   UNK N   1      20.320  18.611   1.951  0.00  0.00     0.167 C 
ENDBRANCH  29  32
ENDBRANCH  22  26
ENDBRANCH   1  19
TORSDOF 7
ENDMDL
MODEL 9
REMARK VINA RESULT:      -7.4      6.783     14.618
REMARK  7 active torsions:
REMARK  status: ('A' for Active; 'I' for Inactive)
REMARK    1  A    between atoms: C_2  and  C_4 
REMARK    2  A    between atoms: C_7  and  N_11 
REMARK    3  A    between atoms: C_14  and  C_17 
REMARK    4  A    between atoms: C_17  and  O_18 
REMARK    5  A    between atoms: O_18  and  C_19 
REMARK    6  A    between atoms: C_22  and  C_26 
REMARK    7  A    between atoms: C_29  and  S_32 
ROOT
HETATM    1  O   UNK N   1      36.898  13.250  12.602  0.00  0.00    -0.349 OA
ENDROOT
BRANCH   1   2
HETATM    2  C   UNK N   1      36.084  13.457  11.510  0.00  0.00     0.180 C 
BRANCH   2   3
HETATM    3  C   UNK N   1      36.723  14.496  10.589  0.00  0.00     0.013 C 
HETATM    4  C   UNK N   1      36.415  14.158   9.128  0.00  0.00     0.027 C 
HETATM    5  C   UNK N   1      34.906  14.164   8.934  0.00  0.00     0.127 C 
HETATM    6  N   UNK N   1      34.399  15.459   9.320  0.00  0.00    -0.346 N 
HETATM    7  C   UNK N   1      34.688  15.982  10.638  0.00  0.00     0.127 C 
HETATM    8  C   UNK N   1      36.192  15.897  10.915  0.00  0.00     0.027 C 
BRANCH   6   9
HETATM    9  C   UNK N   1      33.637  16.200   8.395  0.00  0.00     0.246 A 
HETATM   10  N   UNK N   1      33.348  15.767   7.157  0.00  0.00    -0.308 N 
HETATM   11  C   UNK N   1      32.593  16.768   6.668  0.00  0.00     0.108 A 
ATOM     12  HN  UNK N   1      33.631  14.899   6.701  1.00  0.00     0.170 HD
HETATM   13  N   UNK N   1      32.442  17.756   7.573  0.00  0.00    -0.245 N 
HETATM   14  O   UNK N   1      33.097  17.370   8.628  0.00  0.00    -0.199 OA
ATOM     15  HN  UNK N   1      31.923  18.626   7.455  1.00  0.00     0.196 HD
BRANCH  11  16
HETATM   16  C   UNK N   1      31.982  16.772   5.301  0.00  0.00     0.047 C 
HETATM   17  C   UNK N   1      32.837  17.601   4.364  0.00  0.00     0.017 C 
HETATM   18  C   UNK N   1      30.575  17.348   5.320  0.00  0.00     0.017 C 
ENDBRANCH  11  16
ENDBRANCH   6   9
ENDBRANCH   2   3
ENDBRANCH   1   2
BRANCH   1  19
HETATM   19  C   UNK N   1      36.423  12.775  13.770  0.00  0.00     0.084 A 
HETATM   20  C   UNK N   1      35.982  13.664  14.750  0.00  0.00     0.040 A 
HETATM   21  C   UNK N   1      35.561  13.175  15.986  0.00  0.00     0.033 A 
HETATM   22  C   UNK N   1      35.581  11.792  16.221  0.00  0.00     0.042 A 
HETATM   23  N   UNK N   1      35.978  10.945  15.232  0.00  0.00    -0.363 N 
HETATM   24  C   UNK N   1      36.387  11.401  14.028  0.00  0.00     0.125 A 
ATOM     25  HN  UNK N   1      35.967   9.940  15.406  1.00  0.00     0.165 HD
BRANCH  22  26
HETATM   26  C   UNK N   1      35.323  11.247  17.559  0.00  0.00    -0.009 A 
HETATM   27  C   UNK N   1      34.865   9.933  17.732  0.00  0.00     0.015 A 
HETATM   28  C   UNK N   1      34.474   9.491  18.999  0.00  0.00     0.024 A 
HETATM   29  C   UNK N   1      34.533  10.362  20.091  0.00  0.00     0.058 A 
HETATM   30  C   UNK N   1      35.014  11.662  19.926  0.00  0.00     0.024 A 
HETATM   31  C   UNK N   1      35.406  12.102  18.666  0.00  0.00     0.015 A 
BRANCH  29  32
HETATM   32  S   UNK N   1      33.933   9.838  21.685  0.00  0.00     0.171 S 
HETATM   33  O   UNK N   1      32.981  10.920  22.212  0.00  0.00    -0.223 OA
HETATM   34  O   UNK N   1      32.910   8.721  21.419  0.00  0.00    -0.223 OA
HETATM   35  C   UNK N   1      34.977   9.262  23.051  0.00  0.00     0.167 C 
ENDBRANCH  29  32
ENDBRANCH  22  26
ENDBRANCH   1  19
TORSDOF 7
ENDMDL
