MODEL 1
REMARK VINA RESULT:      -9.0      0.000      0.000
REMARK  7 active torsions:
REMARK  status: ('A' for Active; 'I' for Inactive)
REMARK    1  A    between atoms: C_2  and  C_3 
REMARK    2  A    between atoms: N_13  and  C_14 
REMARK    3  A    between atoms: C_17  and  C_20 
REMARK    4  A    between atoms: C_20  and  C_21 
REMARK    5  A    between atoms: C_21  and  N_22 
REMARK       I    between atoms: N_22  and  C_23 
REMARK       I    between atoms: C_23  and  N_25 
REMARK    6  A    between atoms: N_25  and  S_26 
REMARK    7  A    between atoms: S_26  and  C_29 
ROOT
HETATM    1  C   UNK N   1      24.373  19.178   3.953  0.00  0.00     0.041 A 
HETATM    2  C   UNK N   1      23.979  20.216   3.095  0.00  0.00     0.030 A 
HETATM    3  C   UNK N   1      22.644  20.495   2.858  0.00  0.00     0.009 A 
HETATM    4  C   UNK N   1      21.660  19.729   3.467  0.00  0.00    -0.057 A 
HETATM    5  C   UNK N   1      22.020  18.669   4.316  0.00  0.00     0.009 A 
HETATM    6  C   UNK N   1      23.376  18.395   4.561  0.00  0.00     0.030 A 
ENDROOT
BRANCH   4   7
HETATM    7  C   UNK N   1      20.234  20.091   3.243  0.00  0.00     0.058 C 
BRANCH   7   8
HETATM    8  C   UNK N   1      19.462  18.903   2.642  0.00  0.00     0.129 C 
BRANCH   8   9
HETATM    9  N   UNK N   1      19.962  18.590   1.316  0.00  0.00    -0.342 N 
HETATM   10  C   UNK N   1      20.105  17.307   0.900  0.00  0.00     0.329 C 
HETATM   11  O   UNK N   1      20.398  17.073  -0.261  0.00  0.00    -0.246 OA
HETATM   12  N   UNK N   1      19.842  16.298   1.765  0.00  0.00    -0.232 N 
HETATM   13  H   UNK N   1      19.749  16.526   2.717  0.00  0.00     0.183 HD
HETATM   14  H   UNK N   1      20.202  19.323   0.704  0.00  0.00     0.164 HD
BRANCH  12  15
HETATM   15  S   UNK N   1      19.655  14.623   1.310  0.00  0.00     0.266 S 
HETATM   16  O   UNK N   1      18.548  14.640   0.245  0.00  0.00    -0.200 OA
HETATM   17  O   UNK N   1      18.883  14.022   2.493  0.00  0.00    -0.200 OA
BRANCH  15  18
HETATM   18  C   UNK N   1      21.011  13.563   0.851  0.00  0.00     0.080 A 
HETATM   19  C   UNK N   1      22.298  14.095   0.720  0.00  0.00     0.026 A 
HETATM   20  C   UNK N   1      23.381  13.245   0.480  0.00  0.00     0.008 A 
HETATM   21  C   UNK N   1      23.180  11.864   0.384  0.00  0.00    -0.062 A 
HETATM   22  C   UNK N   1      21.892  11.335   0.511  0.00  0.00     0.008 A 
HETATM   23  C   UNK N   1      24.335  10.958   0.162  0.00  0.00     0.048 C 
HETATM   24  C   UNK N   1      20.809  12.184   0.750  0.00  0.00     0.026 A 
ENDBRANCH  15  18
ENDBRANCH  12  15
ENDBRANCH   8   9
ENDBRANCH   7   8
ENDBRANCH   4   7
BRANCH   1  25
HETATM   25  N   UNK N   1      25.786  18.949   4.183  0.00  0.00    -0.299 N 
HETATM   26  C   UNK N   1      26.484  17.873   3.762  0.00  0.00     0.071 A 
HETATM   27  C   UNK N   1      26.043  16.770   3.033  0.00  0.00     0.057 A 
HETATM   28  C   UNK N   1      27.773  17.986   4.162  0.00  0.00     0.083 A 
HETATM   29  C   UNK N   1      26.984  15.779   2.725  0.00  0.00     0.007 A 
HETATM   30  N   UNK N   1      28.286  15.910   3.137  0.00  0.00    -0.362 N 
HETATM   31  C   UNK N   1      26.560  14.583   1.953  0.00  0.00     0.068 C 
HETATM   32  C   UNK N   1      28.707  16.999   3.854  0.00  0.00     0.035 A 
ATOM     33  HN  UNK N   1      28.957  15.179   2.903  1.00  0.00     0.165 HD
HETATM   34  C   UNK N   1      30.126  17.107   4.284  0.00  0.00     0.070 C 
HETATM   35  N   UNK N   1      27.942  19.131   4.849  0.00  0.00    -0.342 N 
HETATM   36  C   UNK N   1      26.711  19.708   4.847  0.00  0.00     0.088 A 
ATOM     37  HN  UNK N   1      28.800  19.487   5.274  1.00  0.00     0.167 HD
BRANCH  36  38
HETATM   38  C   UNK N   1      26.454  21.026   5.503  0.00  0.00     0.072 C 
HETATM   39  C   UNK N   1      27.620  21.410   6.395  0.00  0.00     0.013 C 
ENDBRANCH  36  38
ENDBRANCH   1  25
TORSDOF 7
ENDMDL
MODEL 2
REMARK VINA RESULT:      -8.8     11.107     15.275
REMARK  7 active torsions:
REMARK  status: ('A' for Active; 'I' for Inactive)
REMARK    1  A    between atoms: C_2  and  C_3 
REMARK    2  A    between atoms: N_13  and  C_14 
REMARK    3  A    between atoms: C_17  and  C_20 
REMARK    4  A    between atoms: C_20  and  C_21 
REMARK    5  A    between atoms: C_21  and  N_22 
REMARK       I    between atoms: N_22  and  C_23 
REMARK       I    between atoms: C_23  and  N_25 
REMARK    6  A    between atoms: N_25  and  S_26 
REMARK    7  A    between atoms: S_26  and  C_29 
ROOT
HETATM    1  C   UNK N   1      32.238  16.979   8.132  0.00  0.00     0.041 A 
HETATM    2  C   UNK N   1      32.457  15.796   8.854  0.00  0.00     0.030 A 
HETATM    3  C   UNK N   1      33.600  15.609   9.612  0.00  0.00     0.009 A 
HETATM    4  C   UNK N   1      34.569  16.602   9.657  0.00  0.00    -0.057 A 
HETATM    5  C   UNK N   1      34.391  17.790   8.929  0.00  0.00     0.009 A 
HETATM    6  C   UNK N   1      33.224  17.980   8.169  0.00  0.00     0.030 A 
ENDROOT
BRANCH   4   7
HETATM    7  C   UNK N   1      35.758  16.398  10.528  0.00  0.00     0.058 C 
BRANCH   7   8
HETATM    8  C   UNK N   1      35.642  15.074  11.302  0.00  0.00     0.129 C 
BRANCH   8   9
HETATM    9  N   UNK N   1      36.382  15.146  12.549  0.00  0.00    -0.342 N 
HETATM   10  C   UNK N   1      36.230  14.206  13.515  0.00  0.00     0.329 C 
HETATM   11  O   UNK N   1      36.960  14.216  14.492  0.00  0.00    -0.246 OA
HETATM   12  N   UNK N   1      35.320  13.219  13.341  0.00  0.00    -0.232 N 
HETATM   13  H   UNK N   1      34.662  13.326  12.617  0.00  0.00     0.183 HD
HETATM   14  H   UNK N   1      37.007  15.892  12.697  0.00  0.00     0.164 HD
BRANCH  12  15
HETATM   15  S   UNK N   1      35.229  11.768  14.309  0.00  0.00     0.266 S 
HETATM   16  O   UNK N   1      36.199  10.794  13.624  0.00  0.00    -0.200 OA
HETATM   17  O   UNK N   1      33.886  11.152  13.892  0.00  0.00    -0.200 OA
BRANCH  15  18
HETATM   18  C   UNK N   1      35.397  11.748  16.082  0.00  0.00     0.080 A 
HETATM   19  C   UNK N   1      35.020  12.866  16.831  0.00  0.00     0.026 A 
HETATM   20  C   UNK N   1      35.037  12.807  18.227  0.00  0.00     0.008 A 
HETATM   21  C   UNK N   1      35.419  11.627  18.873  0.00  0.00    -0.062 A 
HETATM   22  C   UNK N   1      35.802  10.511  18.122  0.00  0.00     0.008 A 
HETATM   23  C   UNK N   1      35.407  11.553  20.356  0.00  0.00     0.048 C 
HETATM   24  C   UNK N   1      35.786  10.570  16.727  0.00  0.00     0.026 A 
ENDBRANCH  15  18
ENDBRANCH  12  15
ENDBRANCH   8   9
ENDBRANCH   7   8
ENDBRANCH   4   7
BRANCH   1  25
HETATM   25  N   UNK N   1      31.009  17.130   7.377  0.00  0.00    -0.299 N 
HETATM   26  C   UNK N   1      30.910  17.112   6.031  0.00  0.00     0.071 A 
HETATM   27  C   UNK N   1      31.914  16.949   5.078  0.00  0.00     0.057 A 
HETATM   28  C   UNK N   1      29.617  17.290   5.671  0.00  0.00     0.083 A 
HETATM   29  C   UNK N   1      31.537  16.973   3.729  0.00  0.00     0.007 A 
HETATM   30  N   UNK N   1      30.222  17.153   3.382  0.00  0.00    -0.362 N 
HETATM   31  C   UNK N   1      32.573  16.806   2.677  0.00  0.00     0.068 C 
HETATM   32  C   UNK N   1      29.245  17.314   4.328  0.00  0.00     0.035 A 
ATOM     33  HN  UNK N   1      29.965  17.168   2.395  1.00  0.00     0.165 HD
HETATM   34  C   UNK N   1      27.829  17.508   3.916  0.00  0.00     0.070 C 
HETATM   35  N   UNK N   1      28.849  17.428   6.768  0.00  0.00    -0.342 N 
HETATM   36  C   UNK N   1      29.724  17.323   7.804  0.00  0.00     0.088 A 
ATOM     37  HN  UNK N   1      27.840  17.577   6.813  1.00  0.00     0.167 HD
BRANCH  36  38
HETATM   38  C   UNK N   1      29.278  17.408   9.228  0.00  0.00     0.072 C 
HETATM   39  C   UNK N   1      29.714  18.727   9.841  0.00  0.00     0.013 C 
ENDBRANCH  36  38
ENDBRANCH   1  25
TORSDOF 7
ENDMDL
MODEL 3
REMARK VINA RESULT:      -8.7     10.891     15.241
REMARK  7 active torsions:
REMARK  status: ('A' for Active; 'I' for Inactive)
REMARK    1  A    between atoms: C_2  and  C_3 
REMARK    2  A    between atoms: N_13  and  C_14 
REMARK    3  A    between atoms: C_17  and  C_20 
REMARK    4  A    between atoms: C_20  and  C_21 
REMARK    5  A    between atoms: C_21  and  N_22 
REMARK       I    between atoms: N_22  and  C_23 
REMARK       I    between atoms: C_23  and  N_25 
REMARK    6  A    between atoms: N_25  and  S_26 
REMARK    7  A    between atoms: S_26  and  C_29 
ROOT
HETATM    1  C   UNK N   1      32.547  16.696   6.699  0.00  0.00     0.041 A 
HETATM    2  C   UNK N   1      32.586  15.336   7.041  0.00  0.00     0.030 A 
HETATM    3  C   UNK N   1      33.582  14.820   7.852  0.00  0.00     0.009 A 
HETATM    4  C   UNK N   1      34.580  15.652   8.336  0.00  0.00    -0.057 A 
HETATM    5  C   UNK N   1      34.583  17.016   7.996  0.00  0.00     0.009 A 
HETATM    6  C   UNK N   1      33.565  17.538   7.180  0.00  0.00     0.030 A 
ENDROOT
BRANCH   4   7
HETATM    7  C   UNK N   1      35.602  15.082   9.255  0.00  0.00     0.058 C 
BRANCH   7   8
HETATM    8  C   UNK N   1      34.939  14.543  10.534  0.00  0.00     0.129 C 
BRANCH   8   9
HETATM    9  N   UNK N   1      35.532  15.151  11.711  0.00  0.00    -0.342 N 
HETATM   10  C   UNK N   1      35.818  14.418  12.815  0.00  0.00     0.329 C 
HETATM   11  O   UNK N   1      36.437  14.926  13.737  0.00  0.00    -0.246 OA
HETATM   12  N   UNK N   1      35.482  13.107  12.846  0.00  0.00    -0.232 N 
HETATM   13  H   UNK N   1      34.866  12.777  12.153  0.00  0.00     0.183 HD
HETATM   14  H   UNK N   1      35.730  16.116  11.708  0.00  0.00     0.164 HD
BRANCH  12  15
HETATM   15  S   UNK N   1      36.062  11.959  14.026  0.00  0.00     0.266 S 
HETATM   16  O   UNK N   1      37.576  11.888  13.775  0.00  0.00    -0.200 OA
HETATM   17  O   UNK N   1      35.627  10.607  13.444  0.00  0.00    -0.200 OA
BRANCH  15  18
HETATM   18  C   UNK N   1      35.674  12.041  15.763  0.00  0.00     0.080 A 
HETATM   19  C   UNK N   1      35.865  10.918  16.574  0.00  0.00     0.026 A 
HETATM   20  C   UNK N   1      35.677  11.016  17.955  0.00  0.00     0.008 A 
HETATM   21  C   UNK N   1      35.311  12.239  18.526  0.00  0.00    -0.062 A 
HETATM   22  C   UNK N   1      35.116  13.360  17.713  0.00  0.00     0.008 A 
HETATM   23  C   UNK N   1      35.142  12.352  19.996  0.00  0.00     0.048 C 
HETATM   24  C   UNK N   1      35.302  13.262  16.333  0.00  0.00     0.026 A 
ENDBRANCH  15  18
ENDBRANCH  12  15
ENDBRANCH   8   9
ENDBRANCH   7   8
ENDBRANCH   4   7
BRANCH   1  25
HETATM   25  N   UNK N   1      31.465  17.187   5.868  0.00  0.00    -0.299 N 
HETATM   26  C   UNK N   1      30.236  17.531   6.305  0.00  0.00     0.071 A 
HETATM   27  C   UNK N   1      29.725  17.505   7.602  0.00  0.00     0.057 A 
HETATM   28  C   UNK N   1      29.480  17.936   5.257  0.00  0.00     0.083 A 
HETATM   29  C   UNK N   1      28.398  17.917   7.784  0.00  0.00     0.007 A 
HETATM   30  N   UNK N   1      27.648  18.326   6.711  0.00  0.00    -0.362 N 
HETATM   31  C   UNK N   1      27.810  17.905   9.148  0.00  0.00     0.068 C 
HETATM   32  C   UNK N   1      28.161  18.346   5.441  0.00  0.00     0.035 A 
ATOM     33  HN  UNK N   1      26.684  18.623   6.862  1.00  0.00     0.165 HD
HETATM   34  C   UNK N   1      27.319  18.794   4.301  0.00  0.00     0.070 C 
HETATM   35  N   UNK N   1      30.197  17.865   4.120  0.00  0.00    -0.342 N 
HETATM   36  C   UNK N   1      31.414  17.406   4.518  0.00  0.00     0.088 A 
ATOM     37  HN  UNK N   1      29.897  18.102   3.173  1.00  0.00     0.167 HD
BRANCH  36  38
HETATM   38  C   UNK N   1      32.534  17.189   3.552  0.00  0.00     0.072 C 
HETATM   39  C   UNK N   1      32.534  15.755   3.057  0.00  0.00     0.013 C 
ENDBRANCH  36  38
ENDBRANCH   1  25
TORSDOF 7
ENDMDL
MODEL 4
REMARK VINA RESULT:      -8.6      9.107     13.458
REMARK  7 active torsions:
REMARK  status: ('A' for Active; 'I' for Inactive)
REMARK    1  A    between atoms: C_2  and  C_3 
REMARK    2  A    between atoms: N_13  and  C_14 
REMARK    3  A    between atoms: C_17  and  C_20 
REMARK    4  A    between atoms: C_20  and  C_21 
REMARK    5  A    between atoms: C_21  and  N_22 
REMARK       I    between atoms: N_22  and  C_23 
REMARK       I    between atoms: C_23  and  N_25 
REMARK    6  A    between atoms: N_25  and  S_26 
REMARK    7  A    between atoms: S_26  and  C_29 
ROOT
HETATM    1  C   UNK N   1      29.826  17.353   5.595  0.00  0.00     0.041 A 
HETATM    2  C   UNK N   1      29.960  17.151   6.977  0.00  0.00     0.030 A 
HETATM    3  C   UNK N   1      31.203  17.076   7.583  0.00  0.00     0.009 A 
HETATM    4  C   UNK N   1      32.353  17.190   6.815  0.00  0.00    -0.057 A 
HETATM    5  C   UNK N   1      32.255  17.372   5.426  0.00  0.00     0.009 A 
HETATM    6  C   UNK N   1      30.991  17.456   4.816  0.00  0.00     0.030 A 
ENDROOT
BRANCH   4   7
HETATM    7  C   UNK N   1      33.673  17.168   7.502  0.00  0.00     0.058 C 
BRANCH   7   8
HETATM    8  C   UNK N   1      33.491  17.007   9.021  0.00  0.00     0.129 C 
BRANCH   8   9
HETATM    9  N   UNK N   1      34.747  17.234   9.711  0.00  0.00    -0.342 N 
HETATM   10  C   UNK N   1      35.315  16.269  10.478  0.00  0.00     0.329 C 
HETATM   11  O   UNK N   1      36.433  16.438  10.936  0.00  0.00    -0.246 OA
HETATM   12  N   UNK N   1      34.662  15.097  10.657  0.00  0.00    -0.232 N 
HETATM   13  H   UNK N   1      33.716  15.056  10.393  0.00  0.00     0.183 HD
HETATM   14  H   UNK N   1      35.197  18.105   9.623  0.00  0.00     0.164 HD
BRANCH  12  15
HETATM   15  S   UNK N   1      35.381  13.651  11.322  0.00  0.00     0.266 S 
HETATM   16  O   UNK N   1      36.763  13.573  10.657  0.00  0.00    -0.200 OA
HETATM   17  O   UNK N   1      34.656  12.523  10.575  0.00  0.00    -0.200 OA
BRANCH  15  18
HETATM   18  C   UNK N   1      35.455  13.293  13.066  0.00  0.00     0.080 A 
HETATM   19  C   UNK N   1      36.243  14.084  13.907  0.00  0.00     0.026 A 
HETATM   20  C   UNK N   1      36.206  13.881  15.289  0.00  0.00     0.008 A 
HETATM   21  C   UNK N   1      35.374  12.896  15.830  0.00  0.00    -0.062 A 
HETATM   22  C   UNK N   1      34.590  12.103  14.987  0.00  0.00     0.008 A 
HETATM   23  C   UNK N   1      35.311  12.701  17.300  0.00  0.00     0.048 C 
HETATM   24  C   UNK N   1      34.627  12.305  13.606  0.00  0.00     0.026 A 
ENDBRANCH  15  18
ENDBRANCH  12  15
ENDBRANCH   8   9
ENDBRANCH   7   8
ENDBRANCH   4   7
BRANCH   1  25
HETATM   25  N   UNK N   1      28.499  17.449   5.019  0.00  0.00    -0.299 N 
HETATM   26  C   UNK N   1      27.673  18.511   5.127  0.00  0.00     0.071 A 
HETATM   27  C   UNK N   1      27.880  19.723   5.785  0.00  0.00     0.057 A 
HETATM   28  C   UNK N   1      26.515  18.252   4.475  0.00  0.00     0.083 A 
HETATM   29  C   UNK N   1      26.846  20.667   5.745  0.00  0.00     0.007 A 
HETATM   30  N   UNK N   1      25.681  20.387   5.079  0.00  0.00    -0.362 N 
HETATM   31  C   UNK N   1      27.021  21.972   6.434  0.00  0.00     0.068 C 
HETATM   32  C   UNK N   1      25.488  19.193   4.437  0.00  0.00     0.035 A 
ATOM     33  HN  UNK N   1      24.939  21.087   5.060  1.00  0.00     0.165 HD
HETATM   34  C   UNK N   1      24.210  18.924   3.725  0.00  0.00     0.070 C 
HETATM   35  N   UNK N   1      26.560  17.021   3.931  0.00  0.00    -0.342 N 
HETATM   36  C   UNK N   1      27.788  16.548   4.274  0.00  0.00     0.088 A 
ATOM     37  HN  UNK N   1      25.838  16.550   3.385  1.00  0.00     0.167 HD
BRANCH  36  38
HETATM   38  C   UNK N   1      28.260  15.193   3.854  0.00  0.00     0.072 C 
HETATM   39  C   UNK N   1      29.024  15.282   2.546  0.00  0.00     0.013 C 
ENDBRANCH  36  38
ENDBRANCH   1  25
TORSDOF 7
ENDMDL
MODEL 5
REMARK VINA RESULT:      -8.4     12.805     16.819
REMARK  7 active torsions:
REMARK  status: ('A' for Active; 'I' for Inactive)
REMARK    1  A    between atoms: C_2  and  C_3 
REMARK    2  A    between atoms: N_13  and  C_14 
REMARK    3  A    between atoms: C_17  and  C_20 
REMARK    4  A    between atoms: C_20  and  C_21 
REMARK    5  A    between atoms: C_21  and  N_22 
REMARK       I    between atoms: N_22  and  C_23 
REMARK       I    between atoms: C_23  and  N_25 
REMARK    6  A    between atoms: N_25  and  S_26 
REMARK    7  A    between atoms: S_26  and  C_29 
ROOT
HETATM    1  C   UNK N   1      35.894  11.561  14.466  0.00  0.00     0.041 A 
HETATM    2  C   UNK N   1      37.207  11.635  13.976  0.00  0.00     0.030 A 
HETATM    3  C   UNK N   1      37.479  12.084  12.695  0.00  0.00     0.009 A 
HETATM    4  C   UNK N   1      36.437  12.461  11.859  0.00  0.00    -0.057 A 
HETATM    5  C   UNK N   1      35.110  12.380  12.312  0.00  0.00     0.009 A 
HETATM    6  C   UNK N   1      34.838  11.933  13.616  0.00  0.00     0.030 A 
ENDROOT
BRANCH   4   7
HETATM    7  C   UNK N   1      36.764  12.998  10.510  0.00  0.00     0.058 C 
BRANCH   7   8
HETATM    8  C   UNK N   1      35.600  13.846   9.969  0.00  0.00     0.129 C 
BRANCH   8   9
HETATM    9  N   UNK N   1      35.700  15.213  10.445  0.00  0.00    -0.342 N 
HETATM   10  C   UNK N   1      35.313  16.259   9.674  0.00  0.00     0.329 C 
HETATM   11  O   UNK N   1      35.283  17.384  10.147  0.00  0.00    -0.246 OA
HETATM   12  N   UNK N   1      34.888  16.028   8.410  0.00  0.00    -0.232 N 
HETATM   13  H   UNK N   1      35.061  15.139   8.025  0.00  0.00     0.183 HD
HETATM   14  H   UNK N   1      36.057  15.385  11.347  0.00  0.00     0.164 HD
BRANCH  12  15
HETATM   15  S   UNK N   1      34.055  17.194   7.412  0.00  0.00     0.266 S 
HETATM   16  O   UNK N   1      34.512  16.866   5.983  0.00  0.00    -0.200 OA
HETATM   17  O   UNK N   1      34.840  18.490   7.657  0.00  0.00    -0.200 OA
BRANCH  15  18
HETATM   18  C   UNK N   1      32.303  17.503   7.502  0.00  0.00     0.080 A 
HETATM   19  C   UNK N   1      31.454  17.000   6.512  0.00  0.00     0.026 A 
HETATM   20  C   UNK N   1      30.070  17.136   6.646  0.00  0.00     0.008 A 
HETATM   21  C   UNK N   1      29.535  17.766   7.774  0.00  0.00    -0.062 A 
HETATM   22  C   UNK N   1      30.385  18.274   8.761  0.00  0.00     0.008 A 
HETATM   23  C   UNK N   1      28.063  17.884   7.931  0.00  0.00     0.048 C 
HETATM   24  C   UNK N   1      31.769  18.138   8.627  0.00  0.00     0.026 A 
ENDBRANCH  15  18
ENDBRANCH  12  15
ENDBRANCH   8   9
ENDBRANCH   7   8
ENDBRANCH   4   7
BRANCH   1  25
HETATM   25  N   UNK N   1      35.671  11.108  15.826  0.00  0.00    -0.299 N 
HETATM   26  C   UNK N   1      35.526  11.908  16.903  0.00  0.00     0.071 A 
HETATM   27  C   UNK N   1      35.552  13.299  16.976  0.00  0.00     0.057 A 
HETATM   28  C   UNK N   1      35.343  11.147  18.009  0.00  0.00     0.083 A 
HETATM   29  C   UNK N   1      35.377  13.886  18.236  0.00  0.00     0.007 A 
HETATM   30  N   UNK N   1      35.190  13.099  19.344  0.00  0.00    -0.362 N 
HETATM   31  C   UNK N   1      35.398  15.366  18.362  0.00  0.00     0.068 C 
HETATM   32  C   UNK N   1      35.169  11.733  19.261  0.00  0.00     0.035 A 
ATOM     33  HN  UNK N   1      35.064  13.544  20.254  1.00  0.00     0.165 HD
HETATM   34  C   UNK N   1      34.965  10.912  20.484  0.00  0.00     0.070 C 
HETATM   35  N   UNK N   1      35.364   9.842  17.677  0.00  0.00    -0.342 N 
HETATM   36  C   UNK N   1      35.563   9.842  16.332  0.00  0.00     0.088 A 
ATOM     37  HN  UNK N   1      35.255   9.036  18.294  1.00  0.00     0.167 HD
BRANCH  36  38
HETATM   38  C   UNK N   1      35.641   8.574  15.543  0.00  0.00     0.072 C 
HETATM   39  C   UNK N   1      37.084   8.127  15.400  0.00  0.00     0.013 C 
ENDBRANCH  36  38
ENDBRANCH   1  25
TORSDOF 7
ENDMDL
MODEL 6
REMARK VINA RESULT:      -8.3     11.078     15.182
REMARK  7 active torsions:
REMARK  status: ('A' for Active; 'I' for Inactive)
REMARK    1  A    between atoms: C_2  and  C_3 
REMARK    2  A    between atoms: N_13  and  C_14 
REMARK    3  A    between atoms: C_17  and  C_20 
REMARK    4  A    between atoms: C_20  and  C_21 
REMARK    5  A    between atoms: C_21  and  N_22 
REMARK       I    between atoms: N_22  and  C_23 
REMARK       I    between atoms: C_23  and  N_25 
REMARK    6  A    between atoms: N_25  and  S_26 
REMARK    7  A    between atoms: S_26  and  C_29 
ROOT
HETATM    1  C   UNK N   1      32.223  16.680   8.273  0.00  0.00     0.041 A 
HETATM    2  C   UNK N   1      33.223  17.656   8.401  0.00  0.00     0.030 A 
HETATM    3  C   UNK N   1      34.390  17.411   9.104  0.00  0.00     0.009 A 
HETATM    4  C   UNK N   1      34.584  16.180   9.713  0.00  0.00    -0.057 A 
HETATM    5  C   UNK N   1      33.594  15.187   9.622  0.00  0.00     0.009 A 
HETATM    6  C   UNK N   1      32.415  15.436   8.900  0.00  0.00     0.030 A 
ENDROOT
BRANCH   4   7
HETATM    7  C   UNK N   1      35.874  15.924  10.409  0.00  0.00     0.058 C 
BRANCH   7   8
HETATM    8  C   UNK N   1      35.768  14.677  11.305  0.00  0.00     0.129 C 
BRANCH   8   9
HETATM    9  N   UNK N   1      36.459  14.894  12.563  0.00  0.00    -0.342 N 
HETATM   10  C   UNK N   1      36.125  14.202  13.680  0.00  0.00     0.329 C 
HETATM   11  O   UNK N   1      36.807  14.306  14.686  0.00  0.00    -0.246 OA
HETATM   12  N   UNK N   1      35.080  13.341  13.638  0.00  0.00    -0.232 N 
HETATM   13  H   UNK N   1      34.477  13.393  12.862  0.00  0.00     0.183 HD
HETATM   14  H   UNK N   1      37.186  15.557  12.607  0.00  0.00     0.164 HD
BRANCH  12  15
HETATM   15  S   UNK N   1      34.726  12.146  14.861  0.00  0.00     0.266 S 
HETATM   16  O   UNK N   1      33.414  11.500  14.392  0.00  0.00    -0.200 OA
HETATM   17  O   UNK N   1      34.209  12.988  16.036  0.00  0.00    -0.200 OA
BRANCH  15  18
HETATM   18  C   UNK N   1      35.902  10.937  15.434  0.00  0.00     0.080 A 
HETATM   19  C   UNK N   1      35.579  10.107  16.512  0.00  0.00     0.026 A 
HETATM   20  C   UNK N   1      36.448   9.078  16.884  0.00  0.00     0.008 A 
HETATM   21  C   UNK N   1      37.634   8.873  16.171  0.00  0.00    -0.062 A 
HETATM   22  C   UNK N   1      37.958   9.707  15.097  0.00  0.00     0.008 A 
HETATM   23  C   UNK N   1      38.543   7.761  16.546  0.00  0.00     0.048 C 
HETATM   24  C   UNK N   1      37.090  10.735  14.726  0.00  0.00     0.026 A 
ENDBRANCH  15  18
ENDBRANCH  12  15
ENDBRANCH   8   9
ENDBRANCH   7   8
ENDBRANCH   4   7
BRANCH   1  25
HETATM   25  N   UNK N   1      31.032  16.983   7.502  0.00  0.00    -0.299 N 
HETATM   26  C   UNK N   1      30.956  17.005   6.155  0.00  0.00     0.071 A 
HETATM   27  C   UNK N   1      31.952  16.751   5.214  0.00  0.00     0.057 A 
HETATM   28  C   UNK N   1      29.697  17.334   5.779  0.00  0.00     0.083 A 
HETATM   29  C   UNK N   1      31.604  16.846   3.860  0.00  0.00     0.007 A 
HETATM   30  N   UNK N   1      30.324  17.179   3.498  0.00  0.00    -0.362 N 
HETATM   31  C   UNK N   1      32.633  16.586   2.821  0.00  0.00     0.068 C 
HETATM   32  C   UNK N   1      29.354  17.427   4.432  0.00  0.00     0.035 A 
ATOM     33  HN  UNK N   1      30.088  17.243   2.507  1.00  0.00     0.165 HD
HETATM   34  C   UNK N   1      27.976  17.787   4.002  0.00  0.00     0.070 C 
HETATM   35  N   UNK N   1      28.930  17.533   6.868  0.00  0.00    -0.342 N 
HETATM   36  C   UNK N   1      29.769  17.309   7.914  0.00  0.00     0.088 A 
ATOM     37  HN  UNK N   1      27.943  17.793   6.901  1.00  0.00     0.167 HD
BRANCH  36  38
HETATM   38  C   UNK N   1      29.310  17.414   9.333  0.00  0.00     0.072 C 
HETATM   39  C   UNK N   1      29.728  18.746   9.927  0.00  0.00     0.013 C 
ENDBRANCH  36  38
ENDBRANCH   1  25
TORSDOF 7
ENDMDL
MODEL 7
REMARK VINA RESULT:      -8.2      4.435      6.323
REMARK  7 active torsions:
REMARK  status: ('A' for Active; 'I' for Inactive)
REMARK    1  A    between atoms: C_2  and  C_3 
REMARK    2  A    between atoms: N_13  and  C_14 
REMARK    3  A    between atoms: C_17  and  C_20 
REMARK    4  A    between atoms: C_20  and  C_21 
REMARK    5  A    between atoms: C_21  and  N_22 
REMARK       I    between atoms: N_22  and  C_23 
REMARK       I    between atoms: C_23  and  N_25 
REMARK    6  A    between atoms: N_25  and  S_26 
REMARK    7  A    between atoms: S_26  and  C_29 
ROOT
HETATM    1  C   UNK N   1      28.109  17.711   4.863  0.00  0.00     0.041 A 
HETATM    2  C   UNK N   1      27.863  18.960   4.274  0.00  0.00     0.030 A 
HETATM    3  C   UNK N   1      26.583  19.361   3.931  0.00  0.00     0.009 A 
HETATM    4  C   UNK N   1      25.509  18.512   4.157  0.00  0.00    -0.057 A 
HETATM    5  C   UNK N   1      25.723  17.246   4.727  0.00  0.00     0.009 A 
HETATM    6  C   UNK N   1      27.023  16.847   5.082  0.00  0.00     0.030 A 
ENDROOT
BRANCH   4   7
HETATM    7  C   UNK N   1      24.139  18.995   3.835  0.00  0.00     0.058 C 
BRANCH   7   8
HETATM    8  C   UNK N   1      23.085  17.965   4.278  0.00  0.00     0.129 C 
BRANCH   8   9
HETATM    9  N   UNK N   1      22.402  18.418   5.476  0.00  0.00    -0.342 N 
HETATM   10  C   UNK N   1      21.552  17.607   6.153  0.00  0.00     0.329 C 
HETATM   11  O   UNK N   1      21.097  17.964   7.227  0.00  0.00    -0.246 OA
HETATM   12  N   UNK N   1      21.282  16.374   5.662  0.00  0.00    -0.232 N 
HETATM   13  H   UNK N   1      21.552  16.181   4.736  0.00  0.00     0.183 HD
HETATM   14  H   UNK N   1      22.559  19.333   5.805  0.00  0.00     0.164 HD
BRANCH  12  15
HETATM   15  S   UNK N   1      20.490  15.100   6.556  0.00  0.00     0.266 S 
HETATM   16  O   UNK N   1      20.105  14.067   5.485  0.00  0.00    -0.200 OA
HETATM   17  O   UNK N   1      19.110  15.695   6.867  0.00  0.00    -0.200 OA
BRANCH  15  18
HETATM   18  C   UNK N   1      21.178  14.334   8.010  0.00  0.00     0.080 A 
HETATM   19  C   UNK N   1      20.392  14.184   9.157  0.00  0.00     0.026 A 
HETATM   20  C   UNK N   1      20.890  13.476  10.254  0.00  0.00     0.008 A 
HETATM   21  C   UNK N   1      22.166  12.908  10.200  0.00  0.00    -0.062 A 
HETATM   22  C   UNK N   1      22.952  13.063   9.054  0.00  0.00     0.008 A 
HETATM   23  C   UNK N   1      22.683  12.128  11.353  0.00  0.00     0.048 C 
HETATM   24  C   UNK N   1      22.456  13.771   7.958  0.00  0.00     0.026 A 
ENDBRANCH  15  18
ENDBRANCH  12  15
ENDBRANCH   8   9
ENDBRANCH   7   8
ENDBRANCH   4   7
BRANCH   1  25
HETATM   25  N   UNK N   1      29.467  17.355   5.226  0.00  0.00    -0.299 N 
HETATM   26  C   UNK N   1      30.012  17.494   6.453  0.00  0.00     0.071 A 
HETATM   27  C   UNK N   1      29.434  17.989   7.621  0.00  0.00     0.057 A 
HETATM   28  C   UNK N   1      31.298  17.070   6.427  0.00  0.00     0.083 A 
HETATM   29  C   UNK N   1      30.232  18.029   8.772  0.00  0.00     0.007 A 
HETATM   30  N   UNK N   1      31.532  17.593   8.727  0.00  0.00    -0.362 N 
HETATM   31  C   UNK N   1      29.659  18.550  10.040  0.00  0.00     0.068 C 
HETATM   32  C   UNK N   1      32.089  17.111   7.573  0.00  0.00     0.035 A 
ATOM     33  HN  UNK N   1      32.097  17.630   9.575  1.00  0.00     0.165 HD
HETATM   34  C   UNK N   1      33.502  16.648   7.562  0.00  0.00     0.070 C 
HETATM   35  N   UNK N   1      31.617  16.647   5.189  0.00  0.00    -0.342 N 
HETATM   36  C   UNK N   1      30.478  16.827   4.469  0.00  0.00     0.088 A 
ATOM     37  HN  UNK N   1      32.511  16.275   4.864  1.00  0.00     0.167 HD
BRANCH  36  38
HETATM   38  C   UNK N   1      30.391  16.468   3.021  0.00  0.00     0.072 C 
HETATM   39  C   UNK N   1      29.644  15.159   2.845  0.00  0.00     0.013 C 
ENDBRANCH  36  38
ENDBRANCH   1  25
TORSDOF 7
ENDMDL
MODEL 8
REMARK VINA RESULT:      -8.2      4.452      7.819
REMARK  7 active torsions:
REMARK  status: ('A' for Active; 'I' for Inactive)
REMARK    1  A    between atoms: C_2  and  C_3 
REMARK    2  A    between atoms: N_13  and  C_14 
REMARK    3  A    between atoms: C_17  and  C_20 
REMARK    4  A    between atoms: C_20  and  C_21 
REMARK    5  A    between atoms: C_21  and  N_22 
REMARK       I    between atoms: N_22  and  C_23 
REMARK       I    between atoms: C_23  and  N_25 
REMARK    6  A    between atoms: N_25  and  S_26 
REMARK    7  A    between atoms: S_26  and  C_29 
ROOT
HETATM    1  C   UNK N   1      20.864  13.687   4.562  0.00  0.00     0.041 A 
HETATM    2  C   UNK N   1      19.552  13.542   4.085  0.00  0.00     0.030 A 
HETATM    3  C   UNK N   1      19.172  14.029   2.846  0.00  0.00     0.009 A 
HETATM    4  C   UNK N   1      20.097  14.690   2.050  0.00  0.00    -0.057 A 
HETATM    5  C   UNK N   1      21.414  14.870   2.506  0.00  0.00     0.009 A 
HETATM    6  C   UNK N   1      21.798  14.366   3.760  0.00  0.00     0.030 A 
ENDROOT
BRANCH   4   7
HETATM    7  C   UNK N   1      19.677  15.147   0.698  0.00  0.00     0.058 C 
BRANCH   7   8
HETATM    8  C   UNK N   1      20.064  16.620   0.480  0.00  0.00     0.129 C 
BRANCH   8   9
HETATM    9  N   UNK N   1      19.193  17.494   1.244  0.00  0.00    -0.342 N 
HETATM   10  C   UNK N   1      19.687  18.334   2.188  0.00  0.00     0.329 C 
HETATM   11  O   UNK N   1      18.953  19.151   2.719  0.00  0.00    -0.246 OA
HETATM   12  N   UNK N   1      21.011  18.306   2.470  0.00  0.00    -0.232 N 
HETATM   13  H   UNK N   1      21.535  17.547   2.129  0.00  0.00     0.183 HD
HETATM   14  H   UNK N   1      18.223  17.479   1.075  0.00  0.00     0.164 HD
BRANCH  12  15
HETATM   15  S   UNK N   1      21.856  19.522   3.396  0.00  0.00     0.266 S 
HETATM   16  O   UNK N   1      21.110  19.563   4.738  0.00  0.00    -0.200 OA
HETATM   17  O   UNK N   1      21.369  20.838   2.774  0.00  0.00    -0.200 OA
BRANCH  15  18
HETATM   18  C   UNK N   1      23.624  19.554   3.610  0.00  0.00     0.080 A 
HETATM   19  C   UNK N   1      24.398  20.461   2.879  0.00  0.00     0.026 A 
HETATM   20  C   UNK N   1      25.768  20.571   3.135  0.00  0.00     0.008 A 
HETATM   21  C   UNK N   1      26.360  19.784   4.128  0.00  0.00    -0.062 A 
HETATM   22  C   UNK N   1      25.585  18.875   4.854  0.00  0.00     0.008 A 
HETATM   23  C   UNK N   1      27.808  19.923   4.421  0.00  0.00     0.048 C 
HETATM   24  C   UNK N   1      24.217  18.764   4.598  0.00  0.00     0.026 A 
ENDBRANCH  15  18
ENDBRANCH  12  15
ENDBRANCH   8   9
ENDBRANCH   7   8
ENDBRANCH   4   7
BRANCH   1  25
HETATM   25  N   UNK N   1      21.211  13.134   5.856  0.00  0.00    -0.299 N 
HETATM   26  C   UNK N   1      20.994  13.731   7.047  0.00  0.00     0.071 A 
HETATM   27  C   UNK N   1      20.408  14.967   7.317  0.00  0.00     0.057 A 
HETATM   28  C   UNK N   1      21.451  12.935   8.042  0.00  0.00     0.083 A 
HETATM   29  C   UNK N   1      20.306  15.356   8.658  0.00  0.00     0.007 A 
HETATM   30  N   UNK N   1      20.773  14.536   9.653  0.00  0.00    -0.362 N 
HETATM   31  C   UNK N   1      19.690  16.666   8.994  0.00  0.00     0.068 C 
HETATM   32  C   UNK N   1      21.348  13.325   9.376  0.00  0.00     0.035 A 
ATOM     33  HN  UNK N   1      20.689  14.836  10.625  1.00  0.00     0.165 HD
HETATM   34  C   UNK N   1      21.844  12.462  10.480  0.00  0.00     0.070 C 
HETATM   35  N   UNK N   1      21.974  11.807   7.524  0.00  0.00    -0.342 N 
HETATM   36  C   UNK N   1      21.813  11.948   6.182  0.00  0.00     0.088 A 
ATOM     37  HN  UNK N   1      22.395  11.023   8.025  1.00  0.00     0.167 HD
BRANCH  36  38
HETATM   38  C   UNK N   1      22.254  10.896   5.216  0.00  0.00     0.072 C 
HETATM   39  C   UNK N   1      23.655  11.193   4.715  0.00  0.00     0.013 C 
ENDBRANCH  36  38
ENDBRANCH   1  25
TORSDOF 7
ENDMDL
MODEL 9
REMARK VINA RESULT:      -7.9      9.054     13.017
REMARK  7 active torsions:
REMARK  status: ('A' for Active; 'I' for Inactive)
REMARK    1  A    between atoms: C_2  and  C_3 
REMARK    2  A    between atoms: N_13  and  C_14 
REMARK    3  A    between atoms: C_17  and  C_20 
REMARK    4  A    between atoms: C_20  and  C_21 
REMARK    5  A    between atoms: C_21  and  N_22 
REMARK       I    between atoms: N_22  and  C_23 
REMARK       I    between atoms: C_23  and  N_25 
REMARK    6  A    between atoms: N_25  and  S_26 
REMARK    7  A    between atoms: S_26  and  C_29 
ROOT
HETATM    1  C   UNK N   1      28.860  17.822   5.942  0.00  0.00     0.041 A 
HETATM    2  C   UNK N   1      29.185  17.591   7.287  0.00  0.00     0.030 A 
HETATM    3  C   UNK N   1      30.469  17.246   7.674  0.00  0.00     0.009 A 
HETATM    4  C   UNK N   1      31.465  17.107   6.719  0.00  0.00    -0.057 A 
HETATM    5  C   UNK N   1      31.169  17.311   5.361  0.00  0.00     0.009 A 
HETATM    6  C   UNK N   1      29.867  17.670   4.973  0.00  0.00     0.030 A 
ENDROOT
BRANCH   4   7
HETATM    7  C   UNK N   1      32.848  16.796   7.171  0.00  0.00     0.058 C 
BRANCH   7   8
HETATM    8  C   UNK N   1      32.830  16.152   8.568  0.00  0.00     0.129 C 
BRANCH   8   9
HETATM    9  N   UNK N   1      33.737  16.847   9.462  0.00  0.00    -0.342 N 
HETATM   10  C   UNK N   1      34.517  16.171  10.341  0.00  0.00     0.329 C 
HETATM   11  O   UNK N   1      35.365  16.768  10.985  0.00  0.00    -0.246 OA
HETATM   12  N   UNK N   1      34.398  14.826  10.434  0.00  0.00    -0.232 N 
HETATM   13  H   UNK N   1      33.616  14.406  10.009  0.00  0.00     0.183 HD
HETATM   14  H   UNK N   1      33.788  17.830   9.431  0.00  0.00     0.164 HD
BRANCH  12  15
HETATM   15  S   UNK N   1      35.532  13.781  11.253  0.00  0.00     0.266 S 
HETATM   16  O   UNK N   1      36.910  14.351  10.882  0.00  0.00    -0.200 OA
HETATM   17  O   UNK N   1      35.523  12.510  10.392  0.00  0.00    -0.200 OA
BRANCH  15  18
HETATM   18  C   UNK N   1      35.423  13.361  12.981  0.00  0.00     0.080 A 
HETATM   19  C   UNK N   1      34.650  12.268  13.385  0.00  0.00     0.026 A 
HETATM   20  C   UNK N   1      34.662  11.864  14.723  0.00  0.00     0.008 A 
HETATM   21  C   UNK N   1      35.455  12.545  15.653  0.00  0.00    -0.062 A 
HETATM   22  C   UNK N   1      36.223  13.641  15.247  0.00  0.00     0.008 A 
HETATM   23  C   UNK N   1      35.492  12.097  17.067  0.00  0.00     0.048 C 
HETATM   24  C   UNK N   1      36.211  14.045  13.911  0.00  0.00     0.026 A 
ENDBRANCH  15  18
ENDBRANCH  12  15
ENDBRANCH   8   9
ENDBRANCH   7   8
ENDBRANCH   4   7
BRANCH   1  25
HETATM   25  N   UNK N   1      27.505  18.207   5.598  0.00  0.00    -0.299 N 
HETATM   26  C   UNK N   1      26.553  17.377   5.121  0.00  0.00     0.071 A 
HETATM   27  C   UNK N   1      26.629  16.011   4.855  0.00  0.00     0.057 A 
HETATM   28  C   UNK N   1      25.414  18.076   4.902  0.00  0.00     0.083 A 
HETATM   29  C   UNK N   1      25.481  15.383   4.356  0.00  0.00     0.007 A 
HETATM   30  N   UNK N   1      24.336  16.106   4.142  0.00  0.00    -0.362 N 
HETATM   31  C   UNK N   1      25.516  13.928   4.056  0.00  0.00     0.068 C 
HETATM   32  C   UNK N   1      24.273  17.448   4.405  0.00  0.00     0.035 A 
ATOM     33  HN  UNK N   1      23.509  15.632   3.778  1.00  0.00     0.165 HD
HETATM   34  C   UNK N   1      23.014  18.201   4.159  0.00  0.00     0.070 C 
HETATM   35  N   UNK N   1      25.598  19.369   5.229  0.00  0.00    -0.342 N 
HETATM   36  C   UNK N   1      26.887  19.426   5.657  0.00  0.00     0.088 A 
ATOM     37  HN  UNK N   1      24.923  20.133   5.171  1.00  0.00     0.167 HD
BRANCH  36  38
HETATM   38  C   UNK N   1      27.507  20.699   6.135  0.00  0.00     0.072 C 
HETATM   39  C   UNK N   1      26.454  21.602   6.750  0.00  0.00     0.013 C 
ENDBRANCH  36  38
ENDBRANCH   1  25
TORSDOF 7
ENDMDL
