MODEL 1
REMARK VINA RESULT:      -5.3      0.000      0.000
REMARK  14 active torsions:
REMARK  status: ('A' for Active; 'I' for Inactive)
REMARK    1  A    between atoms: C_7  and  C_4 
REMARK    2  A    between atoms: C_8  and  C_5 
REMARK    3  A    between atoms: C_9  and  C_6 
REMARK    4  A    between atoms: C_13  and  C_7 
REMARK    5  A    between atoms: C_14  and  C_8 
REMARK    6  A    between atoms: C_15  and  C_9 
REMARK    7  A    between atoms: C_12  and  C_10 
REMARK    8  A    between atoms: O_19  and  C_10 
REMARK    9  A    between atoms: C_12  and  C_11 
REMARK   10  A    between atoms: O_20  and  C_11 
REMARK   11  A    between atoms: O_21  and  C_12 
REMARK   12  A    between atoms: O_19  and  C_13 
REMARK   13  A    between atoms: O_20  and  C_14 
REMARK   14  A    between atoms: O_21  and  C_15 
ROOT
HETATM    1  C   UNK N   1      22.744  18.170   4.127  0.00  0.00     0.180 C 
ENDROOT
BRANCH   1   2
HETATM    2  C   UNK N   1      22.494  17.227   5.308  0.00  0.00     0.213 C 
BRANCH   2   3
HETATM    3  O   UNK N   1      21.175  17.272   5.701  0.00  0.00    -0.319 OA
BRANCH   3   4
HETATM    4  C   UNK N   1      20.797  17.725   6.925  0.00  0.00     0.258 C 
HETATM    5  O   UNK N   1      20.946  18.892   7.230  0.00  0.00    -0.265 OA
BRANCH   4   6
HETATM    6  C   UNK N   1      20.149  16.788   7.902  0.00  0.00     0.111 C 
BRANCH   6   7
HETATM    7  C   UNK N   1      19.374  17.531   8.978  0.00  0.00     0.005 C 
HETATM    8  C   UNK N   1      17.955  17.008   9.035  0.00  0.00     0.005 C 
ENDBRANCH   6   7
ENDBRANCH   4   6
ENDBRANCH   3   4
ENDBRANCH   2   3
ENDBRANCH   1   2
BRANCH   1   9
HETATM    9  C   UNK N   1      24.228  18.405   3.906  0.00  0.00     0.213 C 
BRANCH   9  10
HETATM   10  O   UNK N   1      24.551  19.739   4.014  0.00  0.00    -0.319 OA
BRANCH  10  11
HETATM   11  C   UNK N   1      25.457  20.320   3.187  0.00  0.00     0.258 C 
HETATM   12  O   UNK N   1      25.073  20.884   2.176  0.00  0.00    -0.265 OA
BRANCH  11  13
HETATM   13  C   UNK N   1      26.925  20.293   3.507  0.00  0.00     0.111 C 
BRANCH  13  14
HETATM   14  C   UNK N   1      27.141  20.045   4.987  0.00  0.00     0.005 C 
HETATM   15  C   UNK N   1      27.074  21.362   5.732  0.00  0.00     0.005 C 
ENDBRANCH  13  14
ENDBRANCH  11  13
ENDBRANCH  10  11
ENDBRANCH   9  10
ENDBRANCH   1   9
BRANCH   1  16
HETATM   16  O   UNK N   1      22.096  19.400   4.150  0.00  0.00    -0.312 OA
BRANCH  16  17
HETATM   17  C   UNK N   1      20.992  19.805   3.464  0.00  0.00     0.259 C 
HETATM   18  O   UNK N   1      20.286  20.719   3.865  0.00  0.00    -0.265 OA
BRANCH  17  19
HETATM   19  C   UNK N   1      20.683  19.154   2.156  0.00  0.00     0.111 C 
BRANCH  19  20
HETATM   20  C   UNK N   1      19.611  18.093   2.302  0.00  0.00     0.005 C 
HETATM   21  C   UNK N   1      20.175  16.759   1.859  0.00  0.00     0.005 C 
ENDBRANCH  19  20
ENDBRANCH  17  19
ENDBRANCH  16  17
ENDBRANCH   1  16
TORSDOF 14
ENDMDL
MODEL 2
REMARK VINA RESULT:      -5.2     11.371     13.375
REMARK  14 active torsions:
REMARK  status: ('A' for Active; 'I' for Inactive)
REMARK    1  A    between atoms: C_7  and  C_4 
REMARK    2  A    between atoms: C_8  and  C_5 
REMARK    3  A    between atoms: C_9  and  C_6 
REMARK    4  A    between atoms: C_13  and  C_7 
REMARK    5  A    between atoms: C_14  and  C_8 
REMARK    6  A    between atoms: C_15  and  C_9 
REMARK    7  A    between atoms: C_12  and  C_10 
REMARK    8  A    between atoms: O_19  and  C_10 
REMARK    9  A    between atoms: C_12  and  C_11 
REMARK   10  A    between atoms: O_20  and  C_11 
REMARK   11  A    between atoms: O_21  and  C_12 
REMARK   12  A    between atoms: O_19  and  C_13 
REMARK   13  A    between atoms: O_20  and  C_14 
REMARK   14  A    between atoms: O_21  and  C_15 
ROOT
HETATM    1  C   UNK N   1      29.431  25.195  -4.347  0.00  0.00     0.180 C 
ENDROOT
BRANCH   1   2
HETATM    2  C   UNK N   1      30.692  25.159  -3.479  0.00  0.00     0.213 C 
BRANCH   2   3
HETATM    3  O   UNK N   1      31.238  23.896  -3.457  0.00  0.00    -0.319 OA
BRANCH   3   4
HETATM    4  C   UNK N   1      30.704  22.887  -2.718  0.00  0.00     0.258 C 
HETATM    5  O   UNK N   1      30.434  23.052  -1.545  0.00  0.00    -0.265 OA
BRANCH   4   6
HETATM    6  C   UNK N   1      30.404  21.566  -3.364  0.00  0.00     0.111 C 
BRANCH   6   7
HETATM    7  C   UNK N   1      30.055  21.715  -4.836  0.00  0.00     0.005 C 
HETATM    8  C   UNK N   1      30.694  20.595  -5.627  0.00  0.00     0.005 C 
ENDBRANCH   6   7
ENDBRANCH   4   6
ENDBRANCH   3   4
ENDBRANCH   2   3
ENDBRANCH   1   2
BRANCH   1   9
HETATM    9  C   UNK N   1      29.526  26.259  -5.426  0.00  0.00     0.213 C 
BRANCH   9  10
HETATM   10  O   UNK N   1      28.570  27.234  -5.262  0.00  0.00    -0.319 OA
BRANCH  10  11
HETATM   11  C   UNK N   1      27.623  27.468  -6.206  0.00  0.00     0.258 C 
HETATM   12  O   UNK N   1      27.936  27.465  -7.385  0.00  0.00    -0.265 OA
BRANCH  11  13
HETATM   13  C   UNK N   1      26.192  27.715  -5.820  0.00  0.00     0.111 C 
BRANCH  13  14
HETATM   14  C   UNK N   1      26.118  28.622  -4.607  0.00  0.00     0.005 C 
HETATM   15  C   UNK N   1      25.691  27.812  -3.399  0.00  0.00     0.005 C 
ENDBRANCH  13  14
ENDBRANCH  11  13
ENDBRANCH  10  11
ENDBRANCH   9  10
ENDBRANCH   1   9
BRANCH   1  16
HETATM   16  O   UNK N   1      28.213  25.335  -3.688  0.00  0.00    -0.312 OA
BRANCH  16  17
HETATM   17  C   UNK N   1      27.220  24.421  -3.509  0.00  0.00     0.259 C 
HETATM   18  O   UNK N   1      27.128  23.767  -2.481  0.00  0.00    -0.265 OA
BRANCH  17  19
HETATM   19  C   UNK N   1      26.185  24.271  -4.575  0.00  0.00     0.111 C 
BRANCH  19  20
HETATM   20  C   UNK N   1      26.764  23.647  -5.829  0.00  0.00     0.005 C 
HETATM   21  C   UNK N   1      25.691  22.824  -6.510  0.00  0.00     0.005 C 
ENDBRANCH  19  20
ENDBRANCH  17  19
ENDBRANCH  16  17
ENDBRANCH   1  16
TORSDOF 14
ENDMDL
MODEL 3
REMARK VINA RESULT:      -5.1     11.214     13.062
REMARK  14 active torsions:
REMARK  status: ('A' for Active; 'I' for Inactive)
REMARK    1  A    between atoms: C_7  and  C_4 
REMARK    2  A    between atoms: C_8  and  C_5 
REMARK    3  A    between atoms: C_9  and  C_6 
REMARK    4  A    between atoms: C_13  and  C_7 
REMARK    5  A    between atoms: C_14  and  C_8 
REMARK    6  A    between atoms: C_15  and  C_9 
REMARK    7  A    between atoms: C_12  and  C_10 
REMARK    8  A    between atoms: O_19  and  C_10 
REMARK    9  A    between atoms: C_12  and  C_11 
REMARK   10  A    between atoms: O_20  and  C_11 
REMARK   11  A    between atoms: O_21  and  C_12 
REMARK   12  A    between atoms: O_19  and  C_13 
REMARK   13  A    between atoms: O_20  and  C_14 
REMARK   14  A    between atoms: O_21  and  C_15 
ROOT
HETATM    1  C   UNK N   1      26.944  24.926  -3.716  0.00  0.00     0.180 C 
ENDROOT
BRANCH   1   2
HETATM    2  C   UNK N   1      26.101  24.144  -4.729  0.00  0.00     0.213 C 
BRANCH   2   3
HETATM    3  O   UNK N   1      26.817  23.902  -5.879  0.00  0.00    -0.319 OA
BRANCH   3   4
HETATM    4  C   UNK N   1      26.422  22.982  -6.799  0.00  0.00     0.258 C 
HETATM    5  O   UNK N   1      25.277  22.961  -7.205  0.00  0.00    -0.265 OA
BRANCH   4   6
HETATM    6  C   UNK N   1      27.418  22.006  -7.356  0.00  0.00     0.111 C 
BRANCH   6   7
HETATM    7  C   UNK N   1      28.776  22.130  -6.683  0.00  0.00     0.005 C 
HETATM    8  C   UNK N   1      29.565  20.856  -6.893  0.00  0.00     0.005 C 
ENDBRANCH   6   7
ENDBRANCH   4   6
ENDBRANCH   3   4
ENDBRANCH   2   3
ENDBRANCH   1   2
BRANCH   1   9
HETATM    9  C   UNK N   1      27.695  23.996  -2.779  0.00  0.00     0.213 C 
BRANCH   9  10
HETATM   10  O   UNK N   1      29.001  23.825  -3.175  0.00  0.00    -0.319 OA
BRANCH  10  11
HETATM   11  C   UNK N   1      29.824  22.943  -2.552  0.00  0.00     0.258 C 
HETATM   12  O   UNK N   1      30.002  23.033  -1.349  0.00  0.00    -0.265 OA
BRANCH  11  13
HETATM   13  C   UNK N   1      30.505  21.846  -3.321  0.00  0.00     0.111 C 
BRANCH  13  14
HETATM   14  C   UNK N   1      31.969  22.178  -3.535  0.00  0.00     0.005 C 
HETATM   15  C   UNK N   1      32.162  22.715  -4.939  0.00  0.00     0.005 C 
ENDBRANCH  13  14
ENDBRANCH  11  13
ENDBRANCH  10  11
ENDBRANCH   9  10
ENDBRANCH   1   9
BRANCH   1  16
HETATM   16  O   UNK N   1      26.287  25.889  -2.957  0.00  0.00    -0.312 OA
BRANCH  16  17
HETATM   17  C   UNK N   1      26.135  27.221  -3.199  0.00  0.00     0.259 C 
HETATM   18  O   UNK N   1      26.552  28.066  -2.422  0.00  0.00    -0.265 OA
BRANCH  17  19
HETATM   19  C   UNK N   1      25.499  27.646  -4.481  0.00  0.00     0.111 C 
BRANCH  19  20
HETATM   20  C   UNK N   1      26.517  28.230  -5.441  0.00  0.00     0.005 C 
HETATM   21  C   UNK N   1      26.641  27.317  -6.642  0.00  0.00     0.005 C 
ENDBRANCH  19  20
ENDBRANCH  17  19
ENDBRANCH  16  17
ENDBRANCH   1  16
TORSDOF 14
ENDMDL
MODEL 4
REMARK VINA RESULT:      -5.1     12.654     15.615
REMARK  14 active torsions:
REMARK  status: ('A' for Active; 'I' for Inactive)
REMARK    1  A    between atoms: C_7  and  C_4 
REMARK    2  A    between atoms: C_8  and  C_5 
REMARK    3  A    between atoms: C_9  and  C_6 
REMARK    4  A    between atoms: C_13  and  C_7 
REMARK    5  A    between atoms: C_14  and  C_8 
REMARK    6  A    between atoms: C_15  and  C_9 
REMARK    7  A    between atoms: C_12  and  C_10 
REMARK    8  A    between atoms: O_19  and  C_10 
REMARK    9  A    between atoms: C_12  and  C_11 
REMARK   10  A    between atoms: O_20  and  C_11 
REMARK   11  A    between atoms: O_21  and  C_12 
REMARK   12  A    between atoms: O_19  and  C_13 
REMARK   13  A    between atoms: O_20  and  C_14 
REMARK   14  A    between atoms: O_21  and  C_15 
ROOT
HETATM    1  C   UNK N   1      36.128  15.942  11.085  0.00  0.00     0.180 C 
ENDROOT
BRANCH   1   2
HETATM    2  C   UNK N   1      35.449  14.883  11.958  0.00  0.00     0.213 C 
BRANCH   2   3
HETATM    3  O   UNK N   1      36.173  14.655  13.107  0.00  0.00    -0.319 OA
BRANCH   3   4
HETATM    4  C   UNK N   1      35.805  13.721  14.024  0.00  0.00     0.258 C 
HETATM    5  O   UNK N   1      34.716  13.186  13.963  0.00  0.00    -0.265 OA
BRANCH   4   6
HETATM    6  C   UNK N   1      36.767  13.311  15.101  0.00  0.00     0.111 C 
BRANCH   6   7
HETATM    7  C   UNK N   1      36.882  11.800  15.219  0.00  0.00     0.005 C 
HETATM    8  C   UNK N   1      37.923  11.291  14.246  0.00  0.00     0.005 C 
ENDBRANCH   6   7
ENDBRANCH   4   6
ENDBRANCH   3   4
ENDBRANCH   2   3
ENDBRANCH   1   2
BRANCH   1   9
HETATM    9  C   UNK N   1      35.118  16.912  10.497  0.00  0.00     0.213 C 
BRANCH   9  10
HETATM   10  O   UNK N   1      35.288  17.059   9.140  0.00  0.00    -0.319 OA
BRANCH  10  11
HETATM   11  C   UNK N   1      34.785  18.128   8.472  0.00  0.00     0.258 C 
HETATM   12  O   UNK N   1      35.322  19.217   8.588  0.00  0.00    -0.265 OA
BRANCH  11  13
HETATM   13  C   UNK N   1      33.585  17.987   7.578  0.00  0.00     0.111 C 
BRANCH  13  14
HETATM   14  C   UNK N   1      33.852  16.967   6.488  0.00  0.00     0.005 C 
HETATM   15  C   UNK N   1      33.313  17.486   5.171  0.00  0.00     0.005 C 
ENDBRANCH  13  14
ENDBRANCH  11  13
ENDBRANCH  10  11
ENDBRANCH   9  10
ENDBRANCH   1   9
BRANCH   1  16
HETATM   16  O   UNK N   1      36.955  15.485  10.064  0.00  0.00    -0.312 OA
BRANCH  16  17
HETATM   17  C   UNK N   1      37.198  14.208   9.658  0.00  0.00     0.259 C 
HETATM   18  O   UNK N   1      37.912  13.455  10.303  0.00  0.00    -0.265 OA
BRANCH  17  19
HETATM   19  C   UNK N   1      36.515  13.705   8.430  0.00  0.00     0.111 C 
BRANCH  19  20
HETATM   20  C   UNK N   1      35.264  12.919   8.769  0.00  0.00     0.005 C 
HETATM   21  C   UNK N   1      34.058  13.821   8.609  0.00  0.00     0.005 C 
ENDBRANCH  19  20
ENDBRANCH  17  19
ENDBRANCH  16  17
ENDBRANCH   1  16
TORSDOF 14
ENDMDL
MODEL 5
REMARK VINA RESULT:      -5.1     11.674     13.372
REMARK  14 active torsions:
REMARK  status: ('A' for Active; 'I' for Inactive)
REMARK    1  A    between atoms: C_7  and  C_4 
REMARK    2  A    between atoms: C_8  and  C_5 
REMARK    3  A    between atoms: C_9  and  C_6 
REMARK    4  A    between atoms: C_13  and  C_7 
REMARK    5  A    between atoms: C_14  and  C_8 
REMARK    6  A    between atoms: C_15  and  C_9 
REMARK    7  A    between atoms: C_12  and  C_10 
REMARK    8  A    between atoms: O_19  and  C_10 
REMARK    9  A    between atoms: C_12  and  C_11 
REMARK   10  A    between atoms: O_20  and  C_11 
REMARK   11  A    between atoms: O_21  and  C_12 
REMARK   12  A    between atoms: O_19  and  C_13 
REMARK   13  A    between atoms: O_20  and  C_14 
REMARK   14  A    between atoms: O_21  and  C_15 
ROOT
HETATM    1  C   UNK N   1      27.738  24.181  -4.636  0.00  0.00     0.180 C 
ENDROOT
BRANCH   1   2
HETATM    2  C   UNK N   1      28.291  23.905  -3.235  0.00  0.00     0.213 C 
BRANCH   2   3
HETATM    3  O   UNK N   1      29.664  24.005  -3.220  0.00  0.00    -0.319 OA
BRANCH   3   4
HETATM    4  C   UNK N   1      30.449  23.116  -2.556  0.00  0.00     0.258 C 
HETATM    5  O   UNK N   1      30.411  23.037  -1.344  0.00  0.00    -0.265 OA
BRANCH   4   6
HETATM    6  C   UNK N   1      31.346  22.190  -3.325  0.00  0.00     0.111 C 
BRANCH   6   7
HETATM    7  C   UNK N   1      30.608  20.954  -3.813  0.00  0.00     0.005 C 
HETATM    8  C   UNK N   1      31.519  20.135  -4.701  0.00  0.00     0.005 C 
ENDBRANCH   6   7
ENDBRANCH   4   6
ENDBRANCH   3   4
ENDBRANCH   2   3
ENDBRANCH   1   2
BRANCH   1   9
HETATM    9  C   UNK N   1      26.410  24.916  -4.577  0.00  0.00     0.213 C 
BRANCH   9  10
HETATM   10  O   UNK N   1      26.324  25.717  -3.462  0.00  0.00    -0.319 OA
BRANCH  10  11
HETATM   11  C   UNK N   1      25.978  27.026  -3.552  0.00  0.00     0.258 C 
HETATM   12  O   UNK N   1      25.895  27.698  -2.537  0.00  0.00    -0.265 OA
BRANCH  11  13
HETATM   13  C   UNK N   1      25.710  27.665  -4.886  0.00  0.00     0.111 C 
BRANCH  13  14
HETATM   14  C   UNK N   1      26.778  28.693  -5.205  0.00  0.00     0.005 C 
HETATM   15  C   UNK N   1      27.465  28.318  -6.503  0.00  0.00     0.005 C 
ENDBRANCH  13  14
ENDBRANCH  11  13
ENDBRANCH  10  11
ENDBRANCH   9  10
ENDBRANCH   1   9
BRANCH   1  16
HETATM   16  O   UNK N   1      27.608  23.092  -5.492  0.00  0.00    -0.312 OA
BRANCH  16  17
HETATM   17  C   UNK N   1      28.052  22.943  -6.770  0.00  0.00     0.259 C 
HETATM   18  O   UNK N   1      27.644  23.654  -7.677  0.00  0.00    -0.265 OA
BRANCH  17  19
HETATM   19  C   UNK N   1      29.110  21.928  -7.047  0.00  0.00     0.111 C 
BRANCH  19  20
HETATM   20  C   UNK N   1      28.631  20.875  -8.027  0.00  0.00     0.005 C 
HETATM   21  C   UNK N   1      29.170  19.526  -7.603  0.00  0.00     0.005 C 
ENDBRANCH  19  20
ENDBRANCH  17  19
ENDBRANCH  16  17
ENDBRANCH   1  16
TORSDOF 14
ENDMDL
MODEL 6
REMARK VINA RESULT:      -5.1     11.786     13.498
REMARK  14 active torsions:
REMARK  status: ('A' for Active; 'I' for Inactive)
REMARK    1  A    between atoms: C_7  and  C_4 
REMARK    2  A    between atoms: C_8  and  C_5 
REMARK    3  A    between atoms: C_9  and  C_6 
REMARK    4  A    between atoms: C_13  and  C_7 
REMARK    5  A    between atoms: C_14  and  C_8 
REMARK    6  A    between atoms: C_15  and  C_9 
REMARK    7  A    between atoms: C_12  and  C_10 
REMARK    8  A    between atoms: O_19  and  C_10 
REMARK    9  A    between atoms: C_12  and  C_11 
REMARK   10  A    between atoms: O_20  and  C_11 
REMARK   11  A    between atoms: O_21  and  C_12 
REMARK   12  A    between atoms: O_19  and  C_13 
REMARK   13  A    between atoms: O_20  and  C_14 
REMARK   14  A    between atoms: O_21  and  C_15 
ROOT
HETATM    1  C   UNK N   1      28.382  24.128  -4.001  0.00  0.00     0.180 C 
ENDROOT
BRANCH   1   2
HETATM    2  C   UNK N   1      28.099  23.563  -5.396  0.00  0.00     0.213 C 
BRANCH   2   3
HETATM    3  O   UNK N   1      27.299  24.419  -6.119  0.00  0.00    -0.319 OA
BRANCH   3   4
HETATM    4  C   UNK N   1      26.025  24.099  -6.471  0.00  0.00     0.258 C 
HETATM    5  O   UNK N   1      25.118  24.183  -5.667  0.00  0.00    -0.265 OA
BRANCH   4   6
HETATM    6  C   UNK N   1      25.723  23.675  -7.879  0.00  0.00     0.111 C 
BRANCH   6   7
HETATM    7  C   UNK N   1      26.050  22.210  -8.117  0.00  0.00     0.005 C 
HETATM    8  C   UNK N   1      24.942  21.344  -7.559  0.00  0.00     0.005 C 
ENDBRANCH   6   7
ENDBRANCH   4   6
ENDBRANCH   3   4
ENDBRANCH   2   3
ENDBRANCH   1   2
BRANCH   1   9
HETATM    9  C   UNK N   1      28.060  25.610  -3.923  0.00  0.00     0.213 C 
BRANCH   9  10
HETATM   10  O   UNK N   1      26.818  25.830  -3.372  0.00  0.00    -0.319 OA
BRANCH  10  11
HETATM   11  C   UNK N   1      26.176  27.017  -3.518  0.00  0.00     0.258 C 
HETATM   12  O   UNK N   1      25.896  27.674  -2.529  0.00  0.00    -0.265 OA
BRANCH  11  13
HETATM   13  C   UNK N   1      25.819  27.541  -4.880  0.00  0.00     0.111 C 
BRANCH  13  14
HETATM   14  C   UNK N   1      26.735  28.686  -5.265  0.00  0.00     0.005 C 
HETATM   15  C   UNK N   1      27.517  28.308  -6.507  0.00  0.00     0.005 C 
ENDBRANCH  13  14
ENDBRANCH  11  13
ENDBRANCH  10  11
ENDBRANCH   9  10
ENDBRANCH   1   9
BRANCH   1  16
HETATM   16  O   UNK N   1      29.656  23.920  -3.481  0.00  0.00    -0.312 OA
BRANCH  16  17
HETATM   17  C   UNK N   1      30.104  22.918  -2.675  0.00  0.00     0.259 C 
HETATM   18  O   UNK N   1      30.250  23.079  -1.473  0.00  0.00    -0.265 OA
BRANCH  17  19
HETATM   19  C   UNK N   1      30.357  21.575  -3.276  0.00  0.00     0.111 C 
BRANCH  19  20
HETATM   20  C   UNK N   1      31.219  21.674  -4.519  0.00  0.00     0.005 C 
HETATM   21  C   UNK N   1      30.608  20.821  -5.611  0.00  0.00     0.005 C 
ENDBRANCH  19  20
ENDBRANCH  17  19
ENDBRANCH  16  17
ENDBRANCH   1  16
TORSDOF 14
ENDMDL
MODEL 7
REMARK VINA RESULT:      -5.1     11.701     13.731
REMARK  14 active torsions:
REMARK  status: ('A' for Active; 'I' for Inactive)
REMARK    1  A    between atoms: C_7  and  C_4 
REMARK    2  A    between atoms: C_8  and  C_5 
REMARK    3  A    between atoms: C_9  and  C_6 
REMARK    4  A    between atoms: C_13  and  C_7 
REMARK    5  A    between atoms: C_14  and  C_8 
REMARK    6  A    between atoms: C_15  and  C_9 
REMARK    7  A    between atoms: C_12  and  C_10 
REMARK    8  A    between atoms: O_19  and  C_10 
REMARK    9  A    between atoms: C_12  and  C_11 
REMARK   10  A    between atoms: O_20  and  C_11 
REMARK   11  A    between atoms: O_21  and  C_12 
REMARK   12  A    between atoms: O_19  and  C_13 
REMARK   13  A    between atoms: O_20  and  C_14 
REMARK   14  A    between atoms: O_21  and  C_15 
ROOT
HETATM    1  C   UNK N   1      28.118  24.335  -4.061  0.00  0.00     0.180 C 
ENDROOT
BRANCH   1   2
HETATM    2  C   UNK N   1      27.906  25.836  -3.836  0.00  0.00     0.213 C 
BRANCH   2   3
HETATM    3  O   UNK N   1      26.595  26.104  -3.515  0.00  0.00    -0.319 OA
BRANCH   3   4
HETATM    4  C   UNK N   1      26.022  27.314  -3.753  0.00  0.00     0.258 C 
HETATM    5  O   UNK N   1      25.473  27.928  -2.860  0.00  0.00    -0.265 OA
BRANCH   4   6
HETATM    6  C   UNK N   1      26.103  27.923  -5.123  0.00  0.00     0.111 C 
BRANCH   6   7
HETATM    7  C   UNK N   1      27.038  29.121  -5.161  0.00  0.00     0.005 C 
HETATM    8  C   UNK N   1      27.914  29.042  -6.392  0.00  0.00     0.005 C 
ENDBRANCH   6   7
ENDBRANCH   4   6
ENDBRANCH   3   4
ENDBRANCH   2   3
ENDBRANCH   1   2
BRANCH   1   9
HETATM    9  C   UNK N   1      26.856  23.665  -4.576  0.00  0.00     0.213 C 
BRANCH   9  10
HETATM   10  O   UNK N   1      26.916  23.449  -5.934  0.00  0.00    -0.319 OA
BRANCH  10  11
HETATM   11  C   UNK N   1      25.904  23.820  -6.758  0.00  0.00     0.258 C 
HETATM   12  O   UNK N   1      25.313  24.868  -6.551  0.00  0.00    -0.265 OA
BRANCH  11  13
HETATM   13  C   UNK N   1      25.509  22.967  -7.931  0.00  0.00     0.111 C 
BRANCH  13  14
HETATM   14  C   UNK N   1      24.909  21.658  -7.457  0.00  0.00     0.005 C 
HETATM   15  C   UNK N   1      25.574  20.508  -8.185  0.00  0.00     0.005 C 
ENDBRANCH  13  14
ENDBRANCH  11  13
ENDBRANCH  10  11
ENDBRANCH   9  10
ENDBRANCH   1   9
BRANCH   1  16
HETATM   16  O   UNK N   1      28.609  23.598  -2.988  0.00  0.00    -0.312 OA
BRANCH  16  17
HETATM   17  C   UNK N   1      29.899  23.353  -2.630  0.00  0.00     0.259 C 
HETATM   18  O   UNK N   1      30.215  23.152  -1.467  0.00  0.00    -0.265 OA
BRANCH  17  19
HETATM   19  C   UNK N   1      30.935  23.265  -3.701  0.00  0.00     0.111 C 
BRANCH  19  20
HETATM   20  C   UNK N   1      30.670  22.103  -4.638  0.00  0.00     0.005 C 
HETATM   21  C   UNK N   1      30.772  20.809  -3.858  0.00  0.00     0.005 C 
ENDBRANCH  19  20
ENDBRANCH  17  19
ENDBRANCH  16  17
ENDBRANCH   1  16
TORSDOF 14
ENDMDL
MODEL 8
REMARK VINA RESULT:      -5.0     11.670     13.651
REMARK  14 active torsions:
REMARK  status: ('A' for Active; 'I' for Inactive)
REMARK    1  A    between atoms: C_7  and  C_4 
REMARK    2  A    between atoms: C_8  and  C_5 
REMARK    3  A    between atoms: C_9  and  C_6 
REMARK    4  A    between atoms: C_13  and  C_7 
REMARK    5  A    between atoms: C_14  and  C_8 
REMARK    6  A    between atoms: C_15  and  C_9 
REMARK    7  A    between atoms: C_12  and  C_10 
REMARK    8  A    between atoms: O_19  and  C_10 
REMARK    9  A    between atoms: C_12  and  C_11 
REMARK   10  A    between atoms: O_20  and  C_11 
REMARK   11  A    between atoms: O_21  and  C_12 
REMARK   12  A    between atoms: O_19  and  C_13 
REMARK   13  A    between atoms: O_20  and  C_14 
REMARK   14  A    between atoms: O_21  and  C_15 
ROOT
HETATM    1  C   UNK N   1      27.387  25.115  -3.718  0.00  0.00     0.180 C 
ENDROOT
BRANCH   1   2
HETATM    2  C   UNK N   1      28.844  24.674  -3.547  0.00  0.00     0.213 C 
BRANCH   2   3
HETATM    3  O   UNK N   1      28.924  23.318  -3.324  0.00  0.00    -0.319 OA
BRANCH   3   4
HETATM    4  C   UNK N   1      29.949  22.755  -2.632  0.00  0.00     0.258 C 
HETATM    5  O   UNK N   1      30.211  23.121  -1.503  0.00  0.00    -0.265 OA
BRANCH   4   6
HETATM    6  C   UNK N   1      30.743  21.639  -3.246  0.00  0.00     0.111 C 
BRANCH   6   7
HETATM    7  C   UNK N   1      32.197  22.026  -3.464  0.00  0.00     0.005 C 
HETATM    8  C   UNK N   1      33.097  21.036  -2.758  0.00  0.00     0.005 C 
ENDBRANCH   6   7
ENDBRANCH   4   6
ENDBRANCH   3   4
ENDBRANCH   2   3
ENDBRANCH   1   2
BRANCH   1   9
HETATM    9  C   UNK N   1      26.705  24.364  -4.848  0.00  0.00     0.213 C 
BRANCH   9  10
HETATM   10  O   UNK N   1      25.832  25.172  -5.539  0.00  0.00    -0.319 OA
BRANCH  10  11
HETATM   11  C   UNK N   1      25.741  25.126  -6.892  0.00  0.00     0.258 C 
HETATM   12  O   UNK N   1      25.331  24.112  -7.433  0.00  0.00    -0.265 OA
BRANCH  11  13
HETATM   13  C   UNK N   1      26.121  26.312  -7.734  0.00  0.00     0.111 C 
BRANCH  13  14
HETATM   14  C   UNK N   1      27.584  26.657  -7.535  0.00  0.00     0.005 C 
HETATM   15  C   UNK N   1      27.700  28.078  -7.024  0.00  0.00     0.005 C 
ENDBRANCH  13  14
ENDBRANCH  11  13
ENDBRANCH  10  11
ENDBRANCH   9  10
ENDBRANCH   1   9
BRANCH   1  16
HETATM   16  O   UNK N   1      27.153  26.477  -3.881  0.00  0.00    -0.312 OA
BRANCH  16  17
HETATM   17  C   UNK N   1      26.319  27.297  -3.185  0.00  0.00     0.259 C 
HETATM   18  O   UNK N   1      25.947  27.024  -2.054  0.00  0.00    -0.265 OA
BRANCH  17  19
HETATM   19  C   UNK N   1      25.908  28.592  -3.804  0.00  0.00     0.111 C 
BRANCH  19  20
HETATM   20  C   UNK N   1      26.992  29.643  -3.669  0.00  0.00     0.005 C 
HETATM   21  C   UNK N   1      26.365  31.016  -3.799  0.00  0.00     0.005 C 
ENDBRANCH  19  20
ENDBRANCH  17  19
ENDBRANCH  16  17
ENDBRANCH   1  16
TORSDOF 14
ENDMDL
MODEL 9
REMARK VINA RESULT:      -5.0     11.784     13.234
REMARK  14 active torsions:
REMARK  status: ('A' for Active; 'I' for Inactive)
REMARK    1  A    between atoms: C_7  and  C_4 
REMARK    2  A    between atoms: C_8  and  C_5 
REMARK    3  A    between atoms: C_9  and  C_6 
REMARK    4  A    between atoms: C_13  and  C_7 
REMARK    5  A    between atoms: C_14  and  C_8 
REMARK    6  A    between atoms: C_15  and  C_9 
REMARK    7  A    between atoms: C_12  and  C_10 
REMARK    8  A    between atoms: O_19  and  C_10 
REMARK    9  A    between atoms: C_12  and  C_11 
REMARK   10  A    between atoms: O_20  and  C_11 
REMARK   11  A    between atoms: O_21  and  C_12 
REMARK   12  A    between atoms: O_19  and  C_13 
REMARK   13  A    between atoms: O_20  and  C_14 
REMARK   14  A    between atoms: O_21  and  C_15 
ROOT
HETATM    1  C   UNK N   1      27.727  24.162  -4.739  0.00  0.00     0.180 C 
ENDROOT
BRANCH   1   2
HETATM    2  C   UNK N   1      26.943  25.418  -5.133  0.00  0.00     0.213 C 
BRANCH   2   3
HETATM    3  O   UNK N   1      26.086  25.798  -4.125  0.00  0.00    -0.319 OA
BRANCH   3   4
HETATM    4  C   UNK N   1      25.994  27.086  -3.699  0.00  0.00     0.258 C 
HETATM    5  O   UNK N   1      26.072  27.357  -2.517  0.00  0.00    -0.265 OA
BRANCH   4   6
HETATM    6  C   UNK N   1      25.836  28.195  -4.699  0.00  0.00     0.111 C 
BRANCH   6   7
HETATM    7  C   UNK N   1      27.010  29.159  -4.672  0.00  0.00     0.005 C 
HETATM    8  C   UNK N   1      26.574  30.474  -4.063  0.00  0.00     0.005 C 
ENDBRANCH   6   7
ENDBRANCH   4   6
ENDBRANCH   3   4
ENDBRANCH   2   3
ENDBRANCH   1   2
BRANCH   1   9
HETATM    9  C   UNK N   1      28.674  24.435  -3.583  0.00  0.00     0.213 C 
BRANCH   9  10
HETATM   10  O   UNK N   1      28.866  23.313  -2.810  0.00  0.00    -0.319 OA
BRANCH  10  11
HETATM   11  C   UNK N   1      30.108  22.899  -2.454  0.00  0.00     0.258 C 
HETATM   12  O   UNK N   1      30.474  23.019  -1.297  0.00  0.00    -0.265 OA
BRANCH  11  13
HETATM   13  C   UNK N   1      31.035  22.280  -3.463  0.00  0.00     0.111 C 
BRANCH  13  14
HETATM   14  C   UNK N   1      30.556  20.892  -3.842  0.00  0.00     0.005 C 
HETATM   15  C   UNK N   1      31.421  20.352  -4.963  0.00  0.00     0.005 C 
ENDBRANCH  13  14
ENDBRANCH  11  13
ENDBRANCH  10  11
ENDBRANCH   9  10
ENDBRANCH   1   9
BRANCH   1  16
HETATM   16  O   UNK N   1      28.430  23.513  -5.748  0.00  0.00    -0.312 OA
BRANCH  16  17
HETATM   17  C   UNK N   1      27.988  22.599  -6.656  0.00  0.00     0.259 C 
HETATM   18  O   UNK N   1      26.802  22.491  -6.931  0.00  0.00    -0.265 OA
BRANCH  17  19
HETATM   19  C   UNK N   1      28.992  21.761  -7.376  0.00  0.00     0.111 C 
BRANCH  19  20
HETATM   20  C   UNK N   1      28.340  20.576  -8.061  0.00  0.00     0.005 C 
HETATM   21  C   UNK N   1      29.109  19.320  -7.710  0.00  0.00     0.005 C 
ENDBRANCH  19  20
ENDBRANCH  17  19
ENDBRANCH  16  17
ENDBRANCH   1  16
TORSDOF 14
ENDMDL
