MODEL 1
REMARK VINA RESULT:      -6.9      0.000      0.000
REMARK  21 active torsions:
REMARK  status: ('A' for Active; 'I' for Inactive)
REMARK    1  A    between atoms: C_2  and  C_3 
REMARK    2  A    between atoms: C_3  and  C_5 
REMARK    3  A    between atoms: C_5  and  C_6 
REMARK    4  A    between atoms: C_5  and  N_39 
REMARK    5  A    between atoms: C_6  and  C_7 
REMARK    6  A    between atoms: C_6  and  O_37 
REMARK    7  A    between atoms: C_7  and  C_8 
REMARK       I    between atoms: C_8  and  N_10 
REMARK    8  A    between atoms: C_14  and  C_15 
REMARK    9  A    between atoms: C_15  and  C_16 
REMARK   10  A    between atoms: C_15  and  O_35 
REMARK   11  A    between atoms: C_16  and  C_18 
REMARK       I    between atoms: C_18  and  N_20 
REMARK   12  A    between atoms: C_21  and  N_20 
REMARK   13  A    between atoms: C_21  and  C_22 
REMARK   14  A    between atoms: C_21  and  C_29 
REMARK   15  A    between atoms: C_22  and  C_23 
REMARK       I    between atoms: N_39  and  C_41 
REMARK   16  A    between atoms: C_41  and  C_43 
REMARK   17  A    between atoms: C_43  and  C_44 
REMARK   18  A    between atoms: C_43  and  N_47 
REMARK       I    between atoms: N_47  and  C_48 
REMARK   19  A    between atoms: C_48  and  C_50 
REMARK   20  A    between atoms: C_50  and  C_51 
REMARK   21  A    between atoms: C_50  and  N_54 
ROOT
HETATM    1  C   UNK N   1      23.449  17.509   4.955  0.00  0.00     0.222 C 
HETATM    2  O   UNK N   1      23.569  18.729   4.964  0.00  0.00    -0.273 OA
HETATM    3  N   UNK N   1      22.386  16.928   5.572  0.00  0.00    -0.345 N 
HETATM    4  C   UNK N   1      21.459  17.693   6.355  0.00  0.00     0.126 C 
HETATM    5  C   UNK N   1      20.874  16.685   7.335  0.00  0.00     0.022 C 
HETATM    6  C   UNK N   1      21.748  15.435   7.196  0.00  0.00     0.029 C 
HETATM    7  C   UNK N   1      22.302  15.508   5.782  0.00  0.00     0.117 C 
ENDROOT
BRANCH   1   8
HETATM    8  C   UNK N   1      24.515  16.672   4.312  0.00  0.00     0.137 C 
BRANCH   8   9
HETATM    9  C   UNK N   1      25.705  16.475   5.247  0.00  0.00     0.152 C 
BRANCH   9  10
HETATM   10  C   UNK N   1      27.088  16.912   4.737  0.00  0.00     0.119 C 
BRANCH  10  11
HETATM   11  C   UNK N   1      27.444  16.569   3.273  0.00  0.00     0.006 C 
HETATM   12  C   UNK N   1      26.968  15.190   2.833  0.00  0.00     0.012 C 
BRANCH  11  13
HETATM   13  C   UNK N   1      28.949  16.681   3.049  0.00  0.00     0.002 C 
HETATM   14  C   UNK N   1      29.588  15.348   2.690  0.00  0.00     0.005 C 
ENDBRANCH  11  13
ENDBRANCH  10  11
BRANCH  10  15
HETATM   15  N   UNK N   1      27.270  18.334   4.975  0.00  0.00    -0.347 N 
HETATM   16  C   UNK N   1      26.660  19.285   4.071  0.00  0.00     0.153 C 
HETATM   17  C   UNK N   1      28.033  18.778   6.018  0.00  0.00     0.243 C 
HETATM   18  O   UNK N   1      28.225  19.978   6.161  0.00  0.00    -0.271 OA
BRANCH  17  19
HETATM   19  C   UNK N   1      28.605  17.808   7.035  0.00  0.00     0.180 C 
BRANCH  19  20
HETATM   20  C   UNK N   1      28.436  18.305   8.478  0.00  0.00     0.009 C 
HETATM   21  C   UNK N   1      27.883  17.214   9.375  0.00  0.00     0.012 C 
HETATM   22  C   UNK N   1      29.765  18.765   9.052  0.00  0.00     0.012 C 
ENDBRANCH  19  20
BRANCH  19  23
HETATM   23  N   UNK N   1      29.982  17.431   6.766  0.00  0.00    -0.346 N 
HETATM   24  C   UNK N   1      30.412  16.216   6.341  0.00  0.00     0.252 C 
HETATM   25  O   UNK N   1      29.637  15.280   6.214  0.00  0.00    -0.271 OA
HETATM   26  H   UNK N   1      30.669  18.123   6.905  0.00  0.00     0.163 HD
BRANCH  24  27
HETATM   27  C   UNK N   1      31.883  16.048   6.020  0.00  0.00     0.316 C 
BRANCH  27  28
HETATM   28  C   UNK N   1      32.657  15.339   7.153  0.00  0.00     0.020 C 
HETATM   29  C   UNK N   1      32.068  15.625   8.527  0.00  0.00     0.012 C 
HETATM   30  C   UNK N   1      32.758  13.839   6.937  0.00  0.00     0.012 C 
ENDBRANCH  27  28
BRANCH  27  31
HETATM   31  N   UNK N   1      32.562  17.296   5.637  0.00  0.00     0.094 N 
HETATM   32  C   UNK N   1      32.487  17.535   4.202  0.00  0.00     0.310 C 
HETATM   33  C   UNK N   1      33.979  17.112   5.920  0.00  0.00     0.310 C 
ENDBRANCH  27  31
ENDBRANCH  24  27
ENDBRANCH  19  23
ENDBRANCH  17  19
ENDBRANCH  10  15
ENDBRANCH   9  10
BRANCH   9  34
HETATM   34  O   UNK N   1      25.762  15.146   5.670  0.00  0.00    -0.388 OA
HETATM   35  C   UNK N   1      25.841  15.209   7.062  0.00  0.00     0.202 C 
ENDBRANCH   9  34
ENDBRANCH   8   9
ENDBRANCH   1   8
BRANCH   7  36
HETATM   36  C   UNK N   1      21.274  14.860   4.841  0.00  0.00     0.156 C 
BRANCH  36  37
HETATM   37  C   UNK N   1      21.551  13.361   4.707  0.00  0.00     0.105 C 
HETATM   38  C   UNK N   1      20.511  12.581   3.921  0.00  0.00     0.022 C 
BRANCH  37  39
HETATM   39  C   UNK N   1      23.002  12.977   4.500  0.00  0.00     0.224 C 
HETATM   40  O   UNK N   1      23.577  13.401   3.511  0.00  0.00    -0.273 OA
HETATM   41  N   UNK N   1      23.690  12.193   5.375  0.00  0.00    -0.350 N 
HETATM   42  H   UNK N   1      24.626  11.973   5.167  0.00  0.00     0.163 HD
BRANCH  41  43
HETATM   43  C   UNK N   1      23.118  11.667   6.595  0.00  0.00     0.146 C 
BRANCH  43  44
HETATM   44  C   UNK N   1      24.049  11.988   7.776  0.00  0.00     0.070 C 
BRANCH  44  45
HETATM   45  C   UNK N   1      23.308  12.155   9.070  0.00  0.00    -0.056 A 
HETATM   46  C   UNK N   1      21.962  12.526   9.039  0.00  0.00     0.007 A 
HETATM   47  C   UNK N   1      21.230  12.610  10.227  0.00  0.00     0.001 A 
HETATM   48  C   UNK N   1      21.842  12.310  11.448  0.00  0.00     0.000 A 
HETATM   49  C   UNK N   1      23.190  11.940  11.483  0.00  0.00     0.001 A 
HETATM   50  C   UNK N   1      23.923  11.862  10.296  0.00  0.00     0.007 A 
ENDBRANCH  44  45
ENDBRANCH  43  44
BRANCH  43  51
HETATM   51  C   UNK N   1      22.879  10.185   6.513  0.00  0.00     0.073 A 
HETATM   52  N   UNK N   1      21.968   9.605   5.694  0.00  0.00    -0.361 N 
HETATM   53  C   UNK N   1      22.108   8.233   5.636  0.00  0.00     0.096 A 
ATOM     54  HN  UNK N   1      21.258  10.124   5.179  1.00  0.00     0.165 HD
HETATM   55  C   UNK N   1      23.171   7.706   6.391  0.00  0.00     0.068 A 
HETATM   56  S   UNK N   1      23.889   9.023   7.097  0.00  0.00    -0.085 SA
ENDBRANCH  43  51
ENDBRANCH  41  43
ENDBRANCH  37  39
ENDBRANCH  36  37
BRANCH  36  57
HETATM   57  O   UNK N   1      21.258  15.472   3.583  0.00  0.00    -0.388 OA
HETATM   58  C   UNK N   1      19.962  15.969   3.442  0.00  0.00     0.202 C 
ENDBRANCH  36  57
ENDBRANCH   7  36
TORSDOF 21
ENDMDL
MODEL 2
REMARK VINA RESULT:      -6.4      7.326     13.026
REMARK  21 active torsions:
REMARK  status: ('A' for Active; 'I' for Inactive)
REMARK    1  A    between atoms: C_2  and  C_3 
REMARK    2  A    between atoms: C_3  and  C_5 
REMARK    3  A    between atoms: C_5  and  C_6 
REMARK    4  A    between atoms: C_5  and  N_39 
REMARK    5  A    between atoms: C_6  and  C_7 
REMARK    6  A    between atoms: C_6  and  O_37 
REMARK    7  A    between atoms: C_7  and  C_8 
REMARK       I    between atoms: C_8  and  N_10 
REMARK    8  A    between atoms: C_14  and  C_15 
REMARK    9  A    between atoms: C_15  and  C_16 
REMARK   10  A    between atoms: C_15  and  O_35 
REMARK   11  A    between atoms: C_16  and  C_18 
REMARK       I    between atoms: C_18  and  N_20 
REMARK   12  A    between atoms: C_21  and  N_20 
REMARK   13  A    between atoms: C_21  and  C_22 
REMARK   14  A    between atoms: C_21  and  C_29 
REMARK   15  A    between atoms: C_22  and  C_23 
REMARK       I    between atoms: N_39  and  C_41 
REMARK   16  A    between atoms: C_41  and  C_43 
REMARK   17  A    between atoms: C_43  and  C_44 
REMARK   18  A    between atoms: C_43  and  N_47 
REMARK       I    between atoms: N_47  and  C_48 
REMARK   19  A    between atoms: C_48  and  C_50 
REMARK   20  A    between atoms: C_50  and  C_51 
REMARK   21  A    between atoms: C_50  and  N_54 
ROOT
HETATM    1  C   UNK N   1      35.610  11.945   8.119  0.00  0.00     0.222 C 
HETATM    2  O   UNK N   1      35.722  10.775   7.771  0.00  0.00    -0.273 OA
HETATM    3  N   UNK N   1      35.391  12.912   7.188  0.00  0.00    -0.345 N 
HETATM    4  C   UNK N   1      35.419  12.623   5.783  0.00  0.00     0.126 C 
HETATM    5  C   UNK N   1      35.775  13.954   5.134  0.00  0.00     0.022 C 
HETATM    6  C   UNK N   1      36.198  14.865   6.290  0.00  0.00     0.029 C 
HETATM    7  C   UNK N   1      35.467  14.312   7.503  0.00  0.00     0.117 C 
ENDROOT
BRANCH   1   8
HETATM    8  C   UNK N   1      35.778  12.299   9.567  0.00  0.00     0.137 C 
BRANCH   8   9
HETATM    9  C   UNK N   1      36.674  11.292  10.284  0.00  0.00     0.152 C 
BRANCH   9  10
HETATM   10  C   UNK N   1      36.164  10.709  11.612  0.00  0.00     0.119 C 
BRANCH  10  11
HETATM   11  C   UNK N   1      35.156   9.541  11.532  0.00  0.00     0.006 C 
HETATM   12  C   UNK N   1      35.262   8.726  10.249  0.00  0.00     0.012 C 
BRANCH  11  13
HETATM   13  C   UNK N   1      33.729  10.056  11.689  0.00  0.00     0.002 C 
HETATM   14  C   UNK N   1      32.857   9.744  10.482  0.00  0.00     0.005 C 
ENDBRANCH  11  13
ENDBRANCH  10  11
BRANCH  10  15
HETATM   15  N   UNK N   1      37.293  10.338  12.449  0.00  0.00    -0.347 N 
HETATM   16  C   UNK N   1      38.322   9.479  11.904  0.00  0.00     0.153 C 
HETATM   17  C   UNK N   1      37.375  10.763  13.744  0.00  0.00     0.243 C 
HETATM   18  O   UNK N   1      38.302  10.386  14.449  0.00  0.00    -0.271 OA
BRANCH  17  19
HETATM   19  C   UNK N   1      36.361  11.740  14.312  0.00  0.00     0.180 C 
BRANCH  19  20
HETATM   20  C   UNK N   1      36.726  13.202  14.016  0.00  0.00     0.009 C 
HETATM   21  C   UNK N   1      35.610  13.909  13.272  0.00  0.00     0.012 C 
HETATM   22  C   UNK N   1      36.998  13.963  15.302  0.00  0.00     0.012 C 
ENDBRANCH  19  20
BRANCH  19  23
HETATM   23  N   UNK N   1      36.090  11.539  15.725  0.00  0.00    -0.346 N 
HETATM   24  C   UNK N   1      35.048  10.849  16.252  0.00  0.00     0.252 C 
HETATM   25  O   UNK N   1      34.176  10.378  15.537  0.00  0.00    -0.271 OA
HETATM   26  H   UNK N   1      36.724  11.944  16.361  0.00  0.00     0.163 HD
BRANCH  24  27
HETATM   27  C   UNK N   1      34.994  10.668  17.754  0.00  0.00     0.316 C 
BRANCH  27  28
HETATM   28  C   UNK N   1      35.650  11.840  18.514  0.00  0.00     0.020 C 
HETATM   29  C   UNK N   1      34.961  13.170  18.239  0.00  0.00     0.012 C 
HETATM   30  C   UNK N   1      35.719  11.596  20.012  0.00  0.00     0.012 C 
ENDBRANCH  27  28
BRANCH  27  31
HETATM   31  N   UNK N   1      35.536   9.383  18.226  0.00  0.00     0.094 N 
HETATM   32  C   UNK N   1      36.314   8.712  17.193  0.00  0.00     0.310 C 
HETATM   33  C   UNK N   1      34.398   8.509  18.476  0.00  0.00     0.310 C 
ENDBRANCH  27  31
ENDBRANCH  24  27
ENDBRANCH  19  23
ENDBRANCH  17  19
ENDBRANCH  10  15
ENDBRANCH   9  10
BRANCH   9  34
HETATM   34  O   UNK N   1      37.945  11.836  10.470  0.00  0.00    -0.388 OA
HETATM   35  C   UNK N   1      37.765  13.218  10.396  0.00  0.00     0.202 C 
ENDBRANCH   9  34
ENDBRANCH   8   9
ENDBRANCH   1   8
BRANCH   7  36
HETATM   36  C   UNK N   1      34.071  14.956   7.543  0.00  0.00     0.156 C 
BRANCH  36  37
HETATM   37  C   UNK N   1      34.081  16.182   8.459  0.00  0.00     0.105 C 
HETATM   38  C   UNK N   1      35.060  16.112   9.619  0.00  0.00     0.022 C 
BRANCH  37  39
HETATM   39  C   UNK N   1      33.927  17.520   7.767  0.00  0.00     0.224 C 
HETATM   40  O   UNK N   1      34.878  18.283   7.764  0.00  0.00    -0.273 OA
HETATM   41  N   UNK N   1      32.779  17.898   7.138  0.00  0.00    -0.350 N 
HETATM   42  H   UNK N   1      32.747  18.789   6.722  0.00  0.00     0.163 HD
BRANCH  41  43
HETATM   43  C   UNK N   1      31.604  17.059   7.048  0.00  0.00     0.146 C 
BRANCH  43  44
HETATM   44  C   UNK N   1      31.082  17.064   5.603  0.00  0.00     0.070 C 
BRANCH  44  45
HETATM   45  C   UNK N   1      31.837  16.125   4.710  0.00  0.00    -0.056 A 
HETATM   46  C   UNK N   1      31.604  14.751   4.816  0.00  0.00     0.007 A 
HETATM   47  C   UNK N   1      32.237  13.863   3.941  0.00  0.00     0.001 A 
HETATM   48  C   UNK N   1      33.094  14.349   2.950  0.00  0.00     0.000 A 
HETATM   49  C   UNK N   1      33.331  15.723   2.842  0.00  0.00     0.001 A 
HETATM   50  C   UNK N   1      32.704  16.610   3.720  0.00  0.00     0.007 A 
ENDBRANCH  44  45
ENDBRANCH  43  44
BRANCH  43  51
HETATM   51  C   UNK N   1      30.521  17.502   7.992  0.00  0.00     0.073 A 
HETATM   52  N   UNK N   1      30.749  18.032   9.219  0.00  0.00    -0.361 N 
HETATM   53  C   UNK N   1      29.610  18.570   9.783  0.00  0.00     0.096 A 
ATOM     54  HN  UNK N   1      31.661  18.032   9.675  1.00  0.00     0.165 HD
HETATM   55  C   UNK N   1      28.456  18.505   8.981  0.00  0.00     0.068 A 
HETATM   56  S   UNK N   1      28.948  17.765   7.581  0.00  0.00    -0.085 SA
ENDBRANCH  43  51
ENDBRANCH  41  43
ENDBRANCH  37  39
ENDBRANCH  36  37
BRANCH  36  57
HETATM   57  O   UNK N   1      33.088  14.047   7.947  0.00  0.00    -0.388 OA
HETATM   58  C   UNK N   1      32.647  14.520   9.184  0.00  0.00     0.202 C 
ENDBRANCH  36  57
ENDBRANCH   7  36
TORSDOF 21
ENDMDL
MODEL 3
REMARK VINA RESULT:      -6.3      2.680      8.392
REMARK  21 active torsions:
REMARK  status: ('A' for Active; 'I' for Inactive)
REMARK    1  A    between atoms: C_2  and  C_3 
REMARK    2  A    between atoms: C_3  and  C_5 
REMARK    3  A    between atoms: C_5  and  C_6 
REMARK    4  A    between atoms: C_5  and  N_39 
REMARK    5  A    between atoms: C_6  and  C_7 
REMARK    6  A    between atoms: C_6  and  O_37 
REMARK    7  A    between atoms: C_7  and  C_8 
REMARK       I    between atoms: C_8  and  N_10 
REMARK    8  A    between atoms: C_14  and  C_15 
REMARK    9  A    between atoms: C_15  and  C_16 
REMARK   10  A    between atoms: C_15  and  O_35 
REMARK   11  A    between atoms: C_16  and  C_18 
REMARK       I    between atoms: C_18  and  N_20 
REMARK   12  A    between atoms: C_21  and  N_20 
REMARK   13  A    between atoms: C_21  and  C_22 
REMARK   14  A    between atoms: C_21  and  C_29 
REMARK   15  A    between atoms: C_22  and  C_23 
REMARK       I    between atoms: N_39  and  C_41 
REMARK   16  A    between atoms: C_41  and  C_43 
REMARK   17  A    between atoms: C_43  and  C_44 
REMARK   18  A    between atoms: C_43  and  N_47 
REMARK       I    between atoms: N_47  and  C_48 
REMARK   19  A    between atoms: C_48  and  C_50 
REMARK   20  A    between atoms: C_50  and  C_51 
REMARK   21  A    between atoms: C_50  and  N_54 
ROOT
HETATM    1  C   UNK N   1      22.707  12.932   2.477  0.00  0.00     0.222 C 
HETATM    2  O   UNK N   1      21.815  12.823   1.642  0.00  0.00    -0.273 OA
HETATM    3  N   UNK N   1      23.991  12.634   2.140  0.00  0.00    -0.345 N 
HETATM    4  C   UNK N   1      24.321  12.062   0.866  0.00  0.00     0.126 C 
HETATM    5  C   UNK N   1      25.626  11.319   1.116  0.00  0.00     0.022 C 
HETATM    6  C   UNK N   1      25.798  11.309   2.638  0.00  0.00     0.029 C 
HETATM    7  C   UNK N   1      25.037  12.534   3.120  0.00  0.00     0.117 C 
ENDROOT
BRANCH   1   8
HETATM    8  C   UNK N   1      22.356  13.337   3.877  0.00  0.00     0.137 C 
BRANCH   8   9
HETATM    9  C   UNK N   1      20.914  13.829   3.967  0.00  0.00     0.152 C 
BRANCH   9  10
HETATM   10  C   UNK N   1      20.691  15.324   4.251  0.00  0.00     0.119 C 
BRANCH  10  11
HETATM   11  C   UNK N   1      20.245  16.211   3.067  0.00  0.00     0.006 C 
HETATM   12  C   UNK N   1      19.910  15.426   1.805  0.00  0.00     0.012 C 
BRANCH  11  13
HETATM   13  C   UNK N   1      21.315  17.251   2.748  0.00  0.00     0.002 C 
HETATM   14  C   UNK N   1      20.751  18.661   2.657  0.00  0.00     0.005 C 
ENDBRANCH  11  13
ENDBRANCH  10  11
BRANCH  10  15
HETATM   15  N   UNK N   1      19.770  15.477   5.365  0.00  0.00    -0.347 N 
HETATM   16  C   UNK N   1      18.346  15.400   5.119  0.00  0.00     0.153 C 
HETATM   17  C   UNK N   1      20.230  15.725   6.626  0.00  0.00     0.243 C 
HETATM   18  O   UNK N   1      19.435  15.915   7.537  0.00  0.00    -0.271 OA
BRANCH  17  19
HETATM   19  C   UNK N   1      21.718  15.718   6.930  0.00  0.00     0.180 C 
BRANCH  19  20
HETATM   20  C   UNK N   1      22.539  16.440   5.851  0.00  0.00     0.009 C 
HETATM   21  C   UNK N   1      22.418  17.946   5.982  0.00  0.00     0.012 C 
HETATM   22  C   UNK N   1      24.010  16.069   5.952  0.00  0.00     0.012 C 
ENDBRANCH  19  20
BRANCH  19  23
HETATM   23  N   UNK N   1      22.249  14.393   7.198  0.00  0.00    -0.346 N 
HETATM   24  C   UNK N   1      22.192  13.731   8.381  0.00  0.00     0.252 C 
HETATM   25  O   UNK N   1      21.724  14.259   9.379  0.00  0.00    -0.271 OA
HETATM   26  H   UNK N   1      22.693  13.932   6.450  0.00  0.00     0.163 HD
BRANCH  24  27
HETATM   27  C   UNK N   1      22.717  12.311   8.435  0.00  0.00     0.316 C 
BRANCH  27  28
HETATM   28  C   UNK N   1      24.005  12.190   9.277  0.00  0.00     0.020 C 
HETATM   29  C   UNK N   1      24.918  13.398   9.122  0.00  0.00     0.012 C 
HETATM   30  C   UNK N   1      23.715  11.948  10.749  0.00  0.00     0.012 C 
ENDBRANCH  27  28
BRANCH  27  31
HETATM   31  N   UNK N   1      22.907  11.689   7.114  0.00  0.00     0.094 N 
HETATM   32  C   UNK N   1      21.722  10.958   6.685  0.00  0.00     0.310 C 
HETATM   33  C   UNK N   1      23.945  10.680   7.267  0.00  0.00     0.310 C 
ENDBRANCH  27  31
ENDBRANCH  24  27
ENDBRANCH  19  23
ENDBRANCH  17  19
ENDBRANCH  10  15
ENDBRANCH   9  10
BRANCH   9  34
HETATM   34  O   UNK N   1      20.209  13.066   4.899  0.00  0.00    -0.388 OA
HETATM   35  C   UNK N   1      19.448  12.175   4.140  0.00  0.00     0.202 C 
ENDBRANCH   9  34
ENDBRANCH   8   9
ENDBRANCH   1   8
BRANCH   7  36
HETATM   36  C   UNK N   1      25.992  13.737   3.048  0.00  0.00     0.156 C 
BRANCH  36  37
HETATM   37  C   UNK N   1      26.712  13.920   4.386  0.00  0.00     0.105 C 
HETATM   38  C   UNK N   1      26.068  13.214   5.567  0.00  0.00     0.022 C 
BRANCH  37  39
HETATM   39  C   UNK N   1      28.225  13.918   4.323  0.00  0.00     0.224 C 
HETATM   40  O   UNK N   1      28.786  12.919   3.904  0.00  0.00    -0.273 OA
HETATM   41  N   UNK N   1      28.980  14.987   4.701  0.00  0.00    -0.350 N 
HETATM   42  H   UNK N   1      29.960  14.907   4.646  0.00  0.00     0.163 HD
BRANCH  41  43
HETATM   43  C   UNK N   1      28.421  16.233   5.176  0.00  0.00     0.146 C 
BRANCH  43  44
HETATM   44  C   UNK N   1      28.669  17.336   4.134  0.00  0.00     0.070 C 
BRANCH  44  45
HETATM   45  C   UNK N   1      27.617  18.405   4.159  0.00  0.00    -0.056 A 
HETATM   46  C   UNK N   1      26.304  18.075   3.811  0.00  0.00     0.007 A 
HETATM   47  C   UNK N   1      25.293  19.035   3.903  0.00  0.00     0.001 A 
HETATM   48  C   UNK N   1      25.590  20.323   4.356  0.00  0.00     0.000 A 
HETATM   49  C   UNK N   1      26.902  20.657   4.704  0.00  0.00     0.001 A 
HETATM   50  C   UNK N   1      27.915  19.700   4.606  0.00  0.00     0.007 A 
ENDBRANCH  44  45
ENDBRANCH  43  44
BRANCH  43  51
HETATM   51  C   UNK N   1      28.995  16.638   6.505  0.00  0.00     0.073 A 
HETATM   52  N   UNK N   1      30.322  16.735   6.764  0.00  0.00    -0.361 N 
HETATM   53  C   UNK N   1      30.581  17.347   7.974  0.00  0.00     0.096 A 
ATOM     54  HN  UNK N   1      31.048  16.394   6.135  1.00  0.00     0.165 HD
HETATM   55  C   UNK N   1      29.446  17.781   8.681  0.00  0.00     0.068 A 
HETATM   56  S   UNK N   1      28.159  17.366   7.722  0.00  0.00    -0.085 SA
ENDBRANCH  43  51
ENDBRANCH  41  43
ENDBRANCH  37  39
ENDBRANCH  36  37
BRANCH  36  57
HETATM   57  O   UNK N   1      25.326  14.911   2.682  0.00  0.00    -0.388 OA
HETATM   58  C   UNK N   1      26.048  15.411   1.598  0.00  0.00     0.202 C 
ENDBRANCH  36  57
ENDBRANCH   7  36
TORSDOF 21
ENDMDL
MODEL 4
REMARK VINA RESULT:      -6.2      3.244      9.395
REMARK  21 active torsions:
REMARK  status: ('A' for Active; 'I' for Inactive)
REMARK    1  A    between atoms: C_2  and  C_3 
REMARK    2  A    between atoms: C_3  and  C_5 
REMARK    3  A    between atoms: C_5  and  C_6 
REMARK    4  A    between atoms: C_5  and  N_39 
REMARK    5  A    between atoms: C_6  and  C_7 
REMARK    6  A    between atoms: C_6  and  O_37 
REMARK    7  A    between atoms: C_7  and  C_8 
REMARK       I    between atoms: C_8  and  N_10 
REMARK    8  A    between atoms: C_14  and  C_15 
REMARK    9  A    between atoms: C_15  and  C_16 
REMARK   10  A    between atoms: C_15  and  O_35 
REMARK   11  A    between atoms: C_16  and  C_18 
REMARK       I    between atoms: C_18  and  N_20 
REMARK   12  A    between atoms: C_21  and  N_20 
REMARK   13  A    between atoms: C_21  and  C_22 
REMARK   14  A    between atoms: C_21  and  C_29 
REMARK   15  A    between atoms: C_22  and  C_23 
REMARK       I    between atoms: N_39  and  C_41 
REMARK   16  A    between atoms: C_41  and  C_43 
REMARK   17  A    between atoms: C_43  and  C_44 
REMARK   18  A    between atoms: C_43  and  N_47 
REMARK       I    between atoms: N_47  and  C_48 
REMARK   19  A    between atoms: C_48  and  C_50 
REMARK   20  A    between atoms: C_50  and  C_51 
REMARK   21  A    between atoms: C_50  and  N_54 
ROOT
HETATM    1  C   UNK N   1      26.833  11.872   1.832  0.00  0.00     0.222 C 
HETATM    2  O   UNK N   1      26.523  11.047   0.979  0.00  0.00    -0.273 OA
HETATM    3  N   UNK N   1      28.039  12.497   1.764  0.00  0.00    -0.345 N 
HETATM    4  C   UNK N   1      29.027  12.123   0.793  0.00  0.00     0.126 C 
HETATM    5  C   UNK N   1      30.348  12.542   1.422  0.00  0.00     0.022 C 
HETATM    6  C   UNK N   1      30.010  12.892   2.874  0.00  0.00     0.029 C 
HETATM    7  C   UNK N   1      28.547  13.304   2.840  0.00  0.00     0.117 C 
ENDROOT
BRANCH   1   8
HETATM    8  C   UNK N   1      25.897  12.133   2.974  0.00  0.00     0.137 C 
BRANCH   8   9
HETATM    9  C   UNK N   1      24.794  11.080   3.040  0.00  0.00     0.152 C 
BRANCH   9  10
HETATM   10  C   UNK N   1      23.354  11.544   2.764  0.00  0.00     0.119 C 
BRANCH  10  11
HETATM   11  C   UNK N   1      22.647  10.958   1.521  0.00  0.00     0.006 C 
HETATM   12  C   UNK N   1      23.426   9.836   0.845  0.00  0.00     0.012 C 
BRANCH  11  13
HETATM   13  C   UNK N   1      22.357  12.058   0.505  0.00  0.00     0.002 C 
HETATM   14  C   UNK N   1      23.593  12.470  -0.281  0.00  0.00     0.005 C 
ENDBRANCH  11  13
ENDBRANCH  10  11
BRANCH  10  15
HETATM   15  N   UNK N   1      22.537  11.334   3.948  0.00  0.00    -0.347 N 
HETATM   16  C   UNK N   1      21.921  10.042   4.160  0.00  0.00     0.153 C 
HETATM   17  C   UNK N   1      22.322  12.346   4.839  0.00  0.00     0.243 C 
HETATM   18  O   UNK N   1      21.579  12.166   5.794  0.00  0.00    -0.271 OA
BRANCH  17  19
HETATM   19  C   UNK N   1      23.031  13.681   4.692  0.00  0.00     0.180 C 
BRANCH  19  20
HETATM   20  C   UNK N   1      23.765  14.099   5.974  0.00  0.00     0.009 C 
HETATM   21  C   UNK N   1      24.912  13.155   6.285  0.00  0.00     0.012 C 
HETATM   22  C   UNK N   1      24.327  15.504   5.843  0.00  0.00     0.012 C 
ENDBRANCH  19  20
BRANCH  19  23
HETATM   23  N   UNK N   1      22.169  14.745   4.207  0.00  0.00    -0.346 N 
HETATM   24  C   UNK N   1      22.225  15.326   2.982  0.00  0.00     0.252 C 
HETATM   25  O   UNK N   1      23.097  15.028   2.179  0.00  0.00    -0.271 OA
HETATM   26  H   UNK N   1      21.479  15.076   4.826  0.00  0.00     0.163 HD
BRANCH  24  27
HETATM   27  C   UNK N   1      21.172  16.356   2.628  0.00  0.00     0.316 C 
BRANCH  27  28
HETATM   28  C   UNK N   1      20.748  17.209   3.843  0.00  0.00     0.020 C 
HETATM   29  C   UNK N   1      20.566  18.678   3.487  0.00  0.00     0.012 C 
HETATM   30  C   UNK N   1      19.491  16.681   4.513  0.00  0.00     0.012 C 
ENDBRANCH  27  28
BRANCH  27  31
HETATM   31  N   UNK N   1      19.988  15.798   1.954  0.00  0.00     0.094 N 
HETATM   32  C   UNK N   1      20.085  14.353   1.797  0.00  0.00     0.310 C 
HETATM   33  C   UNK N   1      19.982  16.330   0.599  0.00  0.00     0.310 C 
ENDBRANCH  27  31
ENDBRANCH  24  27
ENDBRANCH  19  23
ENDBRANCH  17  19
ENDBRANCH  10  15
ENDBRANCH   9  10
BRANCH   9  34
HETATM   34  O   UNK N   1      24.844  10.415   4.265  0.00  0.00    -0.388 OA
HETATM   35  C   UNK N   1      26.081   9.768   4.279  0.00  0.00     0.202 C 
ENDBRANCH   9  34
ENDBRANCH   8   9
ENDBRANCH   1   8
BRANCH   7  36
HETATM   36  C   UNK N   1      28.489  14.801   2.495  0.00  0.00     0.156 C 
BRANCH  36  37
HETATM   37  C   UNK N   1      28.587  15.641   3.771  0.00  0.00     0.105 C 
HETATM   38  C   UNK N   1      28.296  14.892   5.060  0.00  0.00     0.022 C 
BRANCH  37  39
HETATM   39  C   UNK N   1      29.708  16.658   3.803  0.00  0.00     0.224 C 
HETATM   40  O   UNK N   1      30.722  16.423   3.166  0.00  0.00    -0.273 OA
HETATM   41  N   UNK N   1      29.626  17.826   4.500  0.00  0.00    -0.350 N 
HETATM   42  H   UNK N   1      30.401  18.432   4.486  0.00  0.00     0.163 HD
BRANCH  41  43
HETATM   43  C   UNK N   1      28.460  18.222   5.258  0.00  0.00     0.146 C 
BRANCH  43  44
HETATM   44  C   UNK N   1      28.021  19.630   4.822  0.00  0.00     0.070 C 
BRANCH  44  45
HETATM   45  C   UNK N   1      26.640  19.651   4.236  0.00  0.00    -0.056 A 
HETATM   46  C   UNK N   1      25.644  18.860   4.815  0.00  0.00     0.007 A 
HETATM   47  C   UNK N   1      24.332  18.924   4.337  0.00  0.00     0.001 A 
HETATM   48  C   UNK N   1      24.012  19.788   3.286  0.00  0.00     0.000 A 
HETATM   49  C   UNK N   1      25.006  20.580   2.703  0.00  0.00     0.001 A 
HETATM   50  C   UNK N   1      26.319  20.512   3.177  0.00  0.00     0.007 A 
ENDBRANCH  44  45
ENDBRANCH  43  44
BRANCH  43  51
HETATM   51  C   UNK N   1      28.714  18.196   6.739  0.00  0.00     0.073 A 
HETATM   52  N   UNK N   1      27.809  18.574   7.675  0.00  0.00    -0.361 N 
HETATM   53  C   UNK N   1      28.199  18.236   8.955  0.00  0.00     0.096 A 
ATOM     54  HN  UNK N   1      26.937  19.055   7.457  1.00  0.00     0.165 HD
HETATM   55  C   UNK N   1      29.419  17.541   9.046  0.00  0.00     0.068 A 
HETATM   56  S   UNK N   1      29.942  17.388   7.481  0.00  0.00    -0.085 SA
ENDBRANCH  43  51
ENDBRANCH  41  43
ENDBRANCH  37  39
ENDBRANCH  36  37
BRANCH  36  57
HETATM   57  O   UNK N   1      27.335  15.128   1.777  0.00  0.00    -0.388 OA
HETATM   58  C   UNK N   1      26.542  15.841   2.676  0.00  0.00     0.202 C 
ENDBRANCH  36  57
ENDBRANCH   7  36
TORSDOF 21
ENDMDL
MODEL 5
REMARK VINA RESULT:      -6.1      2.898      8.831
REMARK  21 active torsions:
REMARK  status: ('A' for Active; 'I' for Inactive)
REMARK    1  A    between atoms: C_2  and  C_3 
REMARK    2  A    between atoms: C_3  and  C_5 
REMARK    3  A    between atoms: C_5  and  C_6 
REMARK    4  A    between atoms: C_5  and  N_39 
REMARK    5  A    between atoms: C_6  and  C_7 
REMARK    6  A    between atoms: C_6  and  O_37 
REMARK    7  A    between atoms: C_7  and  C_8 
REMARK       I    between atoms: C_8  and  N_10 
REMARK    8  A    between atoms: C_14  and  C_15 
REMARK    9  A    between atoms: C_15  and  C_16 
REMARK   10  A    between atoms: C_15  and  O_35 
REMARK   11  A    between atoms: C_16  and  C_18 
REMARK       I    between atoms: C_18  and  N_20 
REMARK   12  A    between atoms: C_21  and  N_20 
REMARK   13  A    between atoms: C_21  and  C_22 
REMARK   14  A    between atoms: C_21  and  C_29 
REMARK   15  A    between atoms: C_22  and  C_23 
REMARK       I    between atoms: N_39  and  C_41 
REMARK   16  A    between atoms: C_41  and  C_43 
REMARK   17  A    between atoms: C_43  and  C_44 
REMARK   18  A    between atoms: C_43  and  N_47 
REMARK       I    between atoms: N_47  and  C_48 
REMARK   19  A    between atoms: C_48  and  C_50 
REMARK   20  A    between atoms: C_50  and  C_51 
REMARK   21  A    between atoms: C_50  and  N_54 
ROOT
HETATM    1  C   UNK N   1      23.985  14.463   1.962  0.00  0.00     0.222 C 
HETATM    2  O   UNK N   1      23.289  14.501   0.953  0.00  0.00    -0.273 OA
HETATM    3  N   UNK N   1      24.944  13.507   2.088  0.00  0.00    -0.345 N 
HETATM    4  C   UNK N   1      25.082  12.448   1.130  0.00  0.00     0.126 C 
HETATM    5  C   UNK N   1      25.746  11.321   1.910  0.00  0.00     0.022 C 
HETATM    6  C   UNK N   1      25.687  11.757   3.377  0.00  0.00     0.029 C 
HETATM    7  C   UNK N   1      25.640  13.276   3.325  0.00  0.00     0.117 C 
ENDROOT
BRANCH   1   8
HETATM    8  C   UNK N   1      23.725  15.439   3.070  0.00  0.00     0.137 C 
BRANCH   8   9
HETATM    9  C   UNK N   1      22.658  14.918   4.029  0.00  0.00     0.152 C 
BRANCH   9  10
HETATM   10  C   UNK N   1      21.398  15.778   4.223  0.00  0.00     0.119 C 
BRANCH  10  11
HETATM   11  C   UNK N   1      21.315  17.103   3.431  0.00  0.00     0.006 C 
HETATM   12  C   UNK N   1      22.021  18.269   4.112  0.00  0.00     0.012 C 
BRANCH  11  13
HETATM   13  C   UNK N   1      19.860  17.475   3.166  0.00  0.00     0.002 C 
HETATM   14  C   UNK N   1      19.683  18.952   2.845  0.00  0.00     0.005 C 
ENDBRANCH  11  13
ENDBRANCH  10  11
BRANCH  10  15
HETATM   15  N   UNK N   1      20.213  14.973   3.976  0.00  0.00    -0.347 N 
HETATM   16  C   UNK N   1      19.901  14.577   2.620  0.00  0.00     0.153 C 
HETATM   17  C   UNK N   1      19.381  14.617   4.998  0.00  0.00     0.243 C 
HETATM   18  O   UNK N   1      18.356  13.994   4.758  0.00  0.00    -0.271 OA
BRANCH  17  19
HETATM   19  C   UNK N   1      19.734  14.939   6.440  0.00  0.00     0.180 C 
BRANCH  19  20
HETATM   20  C   UNK N   1      19.690  16.446   6.732  0.00  0.00     0.009 C 
HETATM   21  C   UNK N   1      18.553  16.792   7.674  0.00  0.00     0.012 C 
HETATM   22  C   UNK N   1      20.991  16.913   7.363  0.00  0.00     0.012 C 
ENDBRANCH  19  20
BRANCH  19  23
HETATM   23  N   UNK N   1      20.991  14.354   6.873  0.00  0.00    -0.346 N 
HETATM   24  C   UNK N   1      21.186  13.607   7.989  0.00  0.00     0.252 C 
HETATM   25  O   UNK N   1      20.281  13.419   8.789  0.00  0.00    -0.271 OA
HETATM   26  H   UNK N   1      21.778  14.517   6.303  0.00  0.00     0.163 HD
BRANCH  24  27
HETATM   27  C   UNK N   1      22.555  13.002   8.218  0.00  0.00     0.316 C 
BRANCH  27  28
HETATM   28  C   UNK N   1      22.713  11.625   7.537  0.00  0.00     0.020 C 
HETATM   29  C   UNK N   1      21.538  11.286   6.630  0.00  0.00     0.012 C 
HETATM   30  C   UNK N   1      24.015  11.507   6.762  0.00  0.00     0.012 C 
ENDBRANCH  27  28
BRANCH  27  31
HETATM   31  N   UNK N   1      22.950  12.923   9.634  0.00  0.00     0.094 N 
HETATM   32  C   UNK N   1      24.380  13.140   9.810  0.00  0.00     0.310 C 
HETATM   33  C   UNK N   1      22.716  11.551  10.063  0.00  0.00     0.310 C 
ENDBRANCH  27  31
ENDBRANCH  24  27
ENDBRANCH  19  23
ENDBRANCH  17  19
ENDBRANCH  10  15
ENDBRANCH   9  10
BRANCH   9  34
HETATM   34  O   UNK N   1      23.230  14.641   5.272  0.00  0.00    -0.388 OA
HETATM   35  C   UNK N   1      23.961  15.785   5.600  0.00  0.00     0.202 C 
ENDBRANCH   9  34
ENDBRANCH   8   9
ENDBRANCH   1   8
BRANCH   7  36
HETATM   36  C   UNK N   1      27.087  13.789   3.261  0.00  0.00     0.156 C 
BRANCH  36  37
HETATM   37  C   UNK N   1      27.542  14.265   4.642  0.00  0.00     0.105 C 
HETATM   38  C   UNK N   1      26.643  13.851   5.795  0.00  0.00     0.022 C 
BRANCH  37  39
HETATM   39  C   UNK N   1      29.036  14.236   4.888  0.00  0.00     0.224 C 
HETATM   40  O   UNK N   1      29.644  13.210   4.636  0.00  0.00    -0.273 OA
HETATM   41  N   UNK N   1      29.726  15.310   5.365  0.00  0.00    -0.350 N 
HETATM   42  H   UNK N   1      30.694  15.212   5.514  0.00  0.00     0.163 HD
BRANCH  41  43
HETATM   43  C   UNK N   1      29.113  16.586   5.662  0.00  0.00     0.146 C 
BRANCH  43  44
HETATM   44  C   UNK N   1      29.125  17.465   4.401  0.00  0.00     0.070 C 
BRANCH  44  45
HETATM   45  C   UNK N   1      27.903  18.327   4.283  0.00  0.00    -0.056 A 
HETATM   46  C   UNK N   1      27.999  19.687   4.591  0.00  0.00     0.007 A 
HETATM   47  C   UNK N   1      26.895  20.525   4.413  0.00  0.00     0.001 A 
HETATM   48  C   UNK N   1      25.696  20.006   3.915  0.00  0.00     0.000 A 
HETATM   49  C   UNK N   1      25.596  18.646   3.608  0.00  0.00     0.001 A 
HETATM   50  C   UNK N   1      26.697  17.807   3.791  0.00  0.00     0.007 A 
ENDBRANCH  44  45
ENDBRANCH  43  44
BRANCH  43  51
HETATM   51  C   UNK N   1      29.805  17.294   6.793  0.00  0.00     0.073 A 
HETATM   52  N   UNK N   1      29.161  17.953   7.787  0.00  0.00    -0.361 N 
HETATM   53  C   UNK N   1      30.006  18.311   8.818  0.00  0.00     0.096 A 
ATOM     54  HN  UNK N   1      28.163  18.162   7.774  1.00  0.00     0.165 HD
HETATM   55  C   UNK N   1      31.343  17.900   8.667  0.00  0.00     0.068 A 
HETATM   56  S   UNK N   1      31.382  17.092   7.221  0.00  0.00    -0.085 SA
ENDBRANCH  43  51
ENDBRANCH  41  43
ENDBRANCH  37  39
ENDBRANCH  36  37
BRANCH  36  57
HETATM   57  O   UNK N   1      27.239  14.807   2.314  0.00  0.00    -0.388 OA
HETATM   58  C   UNK N   1      28.360  14.441   1.568  0.00  0.00     0.202 C 
ENDBRANCH  36  57
ENDBRANCH   7  36
TORSDOF 21
ENDMDL
MODEL 6
REMARK VINA RESULT:      -6.1      6.503     11.839
REMARK  21 active torsions:
REMARK  status: ('A' for Active; 'I' for Inactive)
REMARK    1  A    between atoms: C_2  and  C_3 
REMARK    2  A    between atoms: C_3  and  C_5 
REMARK    3  A    between atoms: C_5  and  C_6 
REMARK    4  A    between atoms: C_5  and  N_39 
REMARK    5  A    between atoms: C_6  and  C_7 
REMARK    6  A    between atoms: C_6  and  O_37 
REMARK    7  A    between atoms: C_7  and  C_8 
REMARK       I    between atoms: C_8  and  N_10 
REMARK    8  A    between atoms: C_14  and  C_15 
REMARK    9  A    between atoms: C_15  and  C_16 
REMARK   10  A    between atoms: C_15  and  O_35 
REMARK   11  A    between atoms: C_16  and  C_18 
REMARK       I    between atoms: C_18  and  N_20 
REMARK   12  A    between atoms: C_21  and  N_20 
REMARK   13  A    between atoms: C_21  and  C_22 
REMARK   14  A    between atoms: C_21  and  C_29 
REMARK   15  A    between atoms: C_22  and  C_23 
REMARK       I    between atoms: N_39  and  C_41 
REMARK   16  A    between atoms: C_41  and  C_43 
REMARK   17  A    between atoms: C_43  and  C_44 
REMARK   18  A    between atoms: C_43  and  N_47 
REMARK       I    between atoms: N_47  and  C_48 
REMARK   19  A    between atoms: C_48  and  C_50 
REMARK   20  A    between atoms: C_50  and  C_51 
REMARK   21  A    between atoms: C_50  and  N_54 
ROOT
HETATM    1  C   UNK N   1      34.852  10.924  10.420  0.00  0.00     0.222 C 
HETATM    2  O   UNK N   1      35.272   9.774  10.346  0.00  0.00    -0.273 OA
HETATM    3  N   UNK N   1      35.632  11.896  10.965  0.00  0.00    -0.345 N 
HETATM    4  C   UNK N   1      36.890  11.592  11.584  0.00  0.00     0.126 C 
HETATM    5  C   UNK N   1      37.106  12.730  12.573  0.00  0.00     0.022 C 
HETATM    6  C   UNK N   1      35.769  13.476  12.625  0.00  0.00     0.029 C 
HETATM    7  C   UNK N   1      35.123  13.204  11.276  0.00  0.00     0.117 C 
ENDROOT
BRANCH   1   8
HETATM    8  C   UNK N   1      33.457  11.227   9.961  0.00  0.00     0.137 C 
BRANCH   8   9
HETATM    9  C   UNK N   1      33.002  10.246   8.885  0.00  0.00     0.152 C 
BRANCH   9  10
HETATM   10  C   UNK N   1      33.044  10.726   7.424  0.00  0.00     0.119 C 
BRANCH  10  11
HETATM   11  C   UNK N   1      33.871  11.994   7.119  0.00  0.00     0.006 C 
HETATM   12  C   UNK N   1      33.077  13.289   7.242  0.00  0.00     0.012 C 
BRANCH  11  13
HETATM   13  C   UNK N   1      34.487  11.907   5.726  0.00  0.00     0.002 C 
HETATM   14  C   UNK N   1      35.889  12.495   5.668  0.00  0.00     0.005 C 
ENDBRANCH  11  13
ENDBRANCH  10  11
BRANCH  10  15
HETATM   15  N   UNK N   1      33.466   9.634   6.562  0.00  0.00    -0.347 N 
HETATM   16  C   UNK N   1      34.730   8.980   6.822  0.00  0.00     0.153 C 
HETATM   17  C   UNK N   1      32.703   9.245   5.499  0.00  0.00     0.243 C 
HETATM   18  O   UNK N   1      33.109   8.367   4.750  0.00  0.00    -0.271 OA
BRANCH  17  19
HETATM   19  C   UNK N   1      31.330   9.849   5.260  0.00  0.00     0.180 C 
BRANCH  19  20
HETATM   20  C   UNK N   1      30.207   8.806   5.354  0.00  0.00     0.009 C 
HETATM   21  C   UNK N   1      29.965   8.135   4.015  0.00  0.00     0.012 C 
HETATM   22  C   UNK N   1      30.551   7.731   6.371  0.00  0.00     0.012 C 
ENDBRANCH  19  20
BRANCH  19  23
HETATM   23  N   UNK N   1      31.240  10.612   4.027  0.00  0.00    -0.346 N 
HETATM   24  C   UNK N   1      30.959  11.936   3.922  0.00  0.00     0.252 C 
HETATM   25  O   UNK N   1      30.679  12.603   4.908  0.00  0.00    -0.271 OA
HETATM   26  H   UNK N   1      31.396  10.122   3.188  0.00  0.00     0.163 HD
BRANCH  24  27
HETATM   27  C   UNK N   1      31.007  12.573   2.549  0.00  0.00     0.316 C 
BRANCH  27  28
HETATM   28  C   UNK N   1      29.606  12.956   2.026  0.00  0.00     0.020 C 
HETATM   29  C   UNK N   1      28.514  12.044   2.568  0.00  0.00     0.012 C 
HETATM   30  C   UNK N   1      29.257  14.407   2.313  0.00  0.00     0.012 C 
ENDBRANCH  27  28
BRANCH  27  31
HETATM   31  N   UNK N   1      31.731  11.779   1.542  0.00  0.00     0.094 N 
HETATM   32  C   UNK N   1      33.069  12.302   1.300  0.00  0.00     0.310 C 
HETATM   33  C   UNK N   1      31.021  11.945   0.282  0.00  0.00     0.310 C 
ENDBRANCH  27  31
ENDBRANCH  24  27
ENDBRANCH  19  23
ENDBRANCH  17  19
ENDBRANCH  10  15
ENDBRANCH   9  10
BRANCH   9  34
HETATM   34  O   UNK N   1      31.724   9.771   9.184  0.00  0.00    -0.388 OA
HETATM   35  C   UNK N   1      31.930   8.539   9.807  0.00  0.00     0.202 C 
ENDBRANCH   9  34
ENDBRANCH   8   9
ENDBRANCH   1   8
BRANCH   7  36
HETATM   36  C   UNK N   1      35.641  14.259  10.286  0.00  0.00     0.156 C 
BRANCH  36  37
HETATM   37  C   UNK N   1      34.512  15.213   9.891  0.00  0.00     0.105 C 
HETATM   38  C   UNK N   1      33.148  14.870  10.466  0.00  0.00     0.022 C 
BRANCH  37  39
HETATM   39  C   UNK N   1      34.883  16.680   9.827  0.00  0.00     0.224 C 
HETATM   40  O   UNK N   1      35.670  17.114  10.651  0.00  0.00    -0.273 OA
HETATM   41  N   UNK N   1      34.388  17.526   8.882  0.00  0.00    -0.350 N 
HETATM   42  H   UNK N   1      34.663  18.470   8.911  0.00  0.00     0.163 HD
BRANCH  41  43
HETATM   43  C   UNK N   1      33.479  17.111   7.836  0.00  0.00     0.146 C 
BRANCH  43  44
HETATM   44  C   UNK N   1      33.810  17.869   6.540  0.00  0.00     0.070 C 
BRANCH  44  45
HETATM   45  C   UNK N   1      33.503  17.071   5.307  0.00  0.00    -0.056 A 
HETATM   46  C   UNK N   1      32.697  17.636   4.315  0.00  0.00     0.007 A 
HETATM   47  C   UNK N   1      32.463  16.944   3.124  0.00  0.00     0.001 A 
HETATM   48  C   UNK N   1      33.045  15.690   2.918  0.00  0.00     0.000 A 
HETATM   49  C   UNK N   1      33.850  15.120   3.908  0.00  0.00     0.001 A 
HETATM   50  C   UNK N   1      34.080  15.809   5.102  0.00  0.00     0.007 A 
ENDBRANCH  44  45
ENDBRANCH  43  44
BRANCH  43  51
HETATM   51  C   UNK N   1      32.042  17.337   8.215  0.00  0.00     0.073 A 
HETATM   52  N   UNK N   1      31.612  18.359   8.996  0.00  0.00    -0.361 N 
HETATM   53  C   UNK N   1      30.237  18.478   9.000  0.00  0.00     0.096 A 
ATOM     54  HN  UNK N   1      32.235  18.970   9.522  1.00  0.00     0.165 HD
HETATM   55  C   UNK N   1      29.553  17.562   8.180  0.00  0.00     0.068 A 
HETATM   56  S   UNK N   1      30.742  16.642   7.482  0.00  0.00    -0.085 SA
ENDBRANCH  43  51
ENDBRANCH  41  43
ENDBRANCH  37  39
ENDBRANCH  36  37
BRANCH  36  57
HETATM   57  O   UNK N   1      36.211  13.675   9.150  0.00  0.00    -0.388 OA
HETATM   58  C   UNK N   1      37.515  14.169   9.107  0.00  0.00     0.202 C 
ENDBRANCH  36  57
ENDBRANCH   7  36
TORSDOF 21
ENDMDL
MODEL 7
REMARK VINA RESULT:      -6.0      1.727      3.472
REMARK  21 active torsions:
REMARK  status: ('A' for Active; 'I' for Inactive)
REMARK    1  A    between atoms: C_2  and  C_3 
REMARK    2  A    between atoms: C_3  and  C_5 
REMARK    3  A    between atoms: C_5  and  C_6 
REMARK    4  A    between atoms: C_5  and  N_39 
REMARK    5  A    between atoms: C_6  and  C_7 
REMARK    6  A    between atoms: C_6  and  O_37 
REMARK    7  A    between atoms: C_7  and  C_8 
REMARK       I    between atoms: C_8  and  N_10 
REMARK    8  A    between atoms: C_14  and  C_15 
REMARK    9  A    between atoms: C_15  and  C_16 
REMARK   10  A    between atoms: C_15  and  O_35 
REMARK   11  A    between atoms: C_16  and  C_18 
REMARK       I    between atoms: C_18  and  N_20 
REMARK   12  A    between atoms: C_21  and  N_20 
REMARK   13  A    between atoms: C_21  and  C_22 
REMARK   14  A    between atoms: C_21  and  C_29 
REMARK   15  A    between atoms: C_22  and  C_23 
REMARK       I    between atoms: N_39  and  C_41 
REMARK   16  A    between atoms: C_41  and  C_43 
REMARK   17  A    between atoms: C_43  and  C_44 
REMARK   18  A    between atoms: C_43  and  N_47 
REMARK       I    between atoms: N_47  and  C_48 
REMARK   19  A    between atoms: C_48  and  C_50 
REMARK   20  A    between atoms: C_50  and  C_51 
REMARK   21  A    between atoms: C_50  and  N_54 
ROOT
HETATM    1  C   UNK N   1      23.228  16.523   5.760  0.00  0.00     0.222 C 
HETATM    2  O   UNK N   1      23.528  17.628   5.320  0.00  0.00    -0.273 OA
HETATM    3  N   UNK N   1      22.005  16.326   6.321  0.00  0.00    -0.345 N 
HETATM    4  C   UNK N   1      21.093  17.412   6.539  0.00  0.00     0.126 C 
HETATM    5  C   UNK N   1      20.215  16.939   7.689  0.00  0.00     0.022 C 
HETATM    6  C   UNK N   1      20.902  15.680   8.228  0.00  0.00     0.029 C 
HETATM    7  C   UNK N   1      21.677  15.127   7.043  0.00  0.00     0.117 C 
ENDROOT
BRANCH   1   8
HETATM    8  C   UNK N   1      24.244  15.420   5.726  0.00  0.00     0.137 C 
BRANCH   8   9
HETATM    9  C   UNK N   1      25.571  15.869   6.332  0.00  0.00     0.152 C 
BRANCH   9  10
HETATM   10  C   UNK N   1      26.787  15.952   5.394  0.00  0.00     0.119 C 
BRANCH  10  11
HETATM   11  C   UNK N   1      26.717  15.156   4.071  0.00  0.00     0.006 C 
HETATM   12  C   UNK N   1      26.728  13.644   4.264  0.00  0.00     0.012 C 
BRANCH  11  13
HETATM   13  C   UNK N   1      27.861  15.558   3.146  0.00  0.00     0.002 C 
HETATM   14  C   UNK N   1      28.086  14.555   2.024  0.00  0.00     0.005 C 
ENDBRANCH  11  13
ENDBRANCH  10  11
BRANCH  10  15
HETATM   15  N   UNK N   1      27.101  17.344   5.123  0.00  0.00    -0.347 N 
HETATM   16  C   UNK N   1      26.415  18.026   4.047  0.00  0.00     0.153 C 
HETATM   17  C   UNK N   1      28.055  18.001   5.847  0.00  0.00     0.243 C 
HETATM   18  O   UNK N   1      28.348  19.154   5.559  0.00  0.00    -0.271 OA
BRANCH  17  19
HETATM   19  C   UNK N   1      28.723  17.341   7.040  0.00  0.00     0.180 C 
BRANCH  19  20
HETATM   20  C   UNK N   1      28.417  18.067   8.358  0.00  0.00     0.009 C 
HETATM   21  C   UNK N   1      27.821  17.121   9.383  0.00  0.00     0.012 C 
HETATM   22  C   UNK N   1      29.680  18.674   8.947  0.00  0.00     0.012 C 
ENDBRANCH  19  20
BRANCH  19  23
HETATM   23  N   UNK N   1      30.151  17.140   6.867  0.00  0.00    -0.346 N 
HETATM   24  C   UNK N   1      30.744  16.082   6.260  0.00  0.00     0.252 C 
HETATM   25  O   UNK N   1      30.086  15.136   5.853  0.00  0.00    -0.271 OA
HETATM   26  H   UNK N   1      30.745  17.839   7.226  0.00  0.00     0.163 HD
BRANCH  24  27
HETATM   27  C   UNK N   1      32.249  16.103   6.091  0.00  0.00     0.316 C 
BRANCH  27  28
HETATM   28  C   UNK N   1      32.975  16.661   7.334  0.00  0.00     0.020 C 
HETATM   29  C   UNK N   1      33.513  15.559   8.236  0.00  0.00     0.012 C 
HETATM   30  C   UNK N   1      34.095  17.621   6.970  0.00  0.00     0.012 C 
ENDBRANCH  27  28
BRANCH  27  31
HETATM   31  N   UNK N   1      32.709  16.794   4.875  0.00  0.00     0.094 N 
HETATM   32  C   UNK N   1      31.617  17.481   4.197  0.00  0.00     0.310 C 
HETATM   33  C   UNK N   1      33.149  15.765   3.943  0.00  0.00     0.310 C 
ENDBRANCH  27  31
ENDBRANCH  24  27
ENDBRANCH  19  23
ENDBRANCH  17  19
ENDBRANCH  10  15
ENDBRANCH   9  10
BRANCH   9  34
HETATM   34  O   UNK N   1      25.884  15.071   7.433  0.00  0.00    -0.388 OA
HETATM   35  C   UNK N   1      25.069  13.943   7.310  0.00  0.00     0.202 C 
ENDBRANCH   9  34
ENDBRANCH   8   9
ENDBRANCH   1   8
BRANCH   7  36
HETATM   36  C   UNK N   1      20.724  14.229   6.237  0.00  0.00     0.156 C 
BRANCH  36  37
HETATM   37  C   UNK N   1      21.196  12.774   6.293  0.00  0.00     0.105 C 
HETATM   38  C   UNK N   1      21.632  12.290   7.665  0.00  0.00     0.022 C 
BRANCH  37  39
HETATM   39  C   UNK N   1      20.421  11.799   5.432  0.00  0.00     0.224 C 
HETATM   40  O   UNK N   1      19.207  11.763   5.548  0.00  0.00    -0.273 OA
HETATM   41  N   UNK N   1      21.020  10.974   4.528  0.00  0.00    -0.350 N 
HETATM   42  H   UNK N   1      20.453  10.356   4.014  0.00  0.00     0.163 HD
BRANCH  41  43
HETATM   43  C   UNK N   1      22.445  10.960   4.283  0.00  0.00     0.146 C 
BRANCH  43  44
HETATM   44  C   UNK N   1      22.703  10.896   2.769  0.00  0.00     0.070 C 
BRANCH  44  45
HETATM   45  C   UNK N   1      23.247  12.180   2.218  0.00  0.00    -0.056 A 
HETATM   46  C   UNK N   1      22.786  13.392   2.740  0.00  0.00     0.007 A 
HETATM   47  C   UNK N   1      23.336  14.599   2.298  0.00  0.00     0.001 A 
HETATM   48  C   UNK N   1      24.356  14.595   1.343  0.00  0.00     0.000 A 
HETATM   49  C   UNK N   1      24.818  13.385   0.817  0.00  0.00     0.001 A 
HETATM   50  C   UNK N   1      24.265  12.178   1.253  0.00  0.00     0.007 A 
ENDBRANCH  44  45
ENDBRANCH  43  44
BRANCH  43  51
HETATM   51  C   UNK N   1      23.124   9.810   4.973  0.00  0.00     0.073 A 
HETATM   52  N   UNK N   1      23.312   8.589   4.413  0.00  0.00    -0.361 N 
HETATM   53  C   UNK N   1      24.160   7.792   5.155  0.00  0.00     0.096 A 
ATOM     54  HN  UNK N   1      22.876   8.293   3.540  1.00  0.00     0.165 HD
HETATM   55  C   UNK N   1      24.691   8.394   6.310  0.00  0.00     0.068 A 
HETATM   56  S   UNK N   1      24.054   9.924   6.327  0.00  0.00    -0.085 SA
ENDBRANCH  43  51
ENDBRANCH  41  43
ENDBRANCH  37  39
ENDBRANCH  36  37
BRANCH  36  57
HETATM   57  O   UNK N   1      20.600  14.656   4.912  0.00  0.00    -0.388 OA
HETATM   58  C   UNK N   1      19.248  14.963   4.758  0.00  0.00     0.202 C 
ENDBRANCH  36  57
ENDBRANCH   7  36
TORSDOF 21
ENDMDL
MODEL 8
REMARK VINA RESULT:      -6.0      2.774      5.234
REMARK  21 active torsions:
REMARK  status: ('A' for Active; 'I' for Inactive)
REMARK    1  A    between atoms: C_2  and  C_3 
REMARK    2  A    between atoms: C_3  and  C_5 
REMARK    3  A    between atoms: C_5  and  C_6 
REMARK    4  A    between atoms: C_5  and  N_39 
REMARK    5  A    between atoms: C_6  and  C_7 
REMARK    6  A    between atoms: C_6  and  O_37 
REMARK    7  A    between atoms: C_7  and  C_8 
REMARK       I    between atoms: C_8  and  N_10 
REMARK    8  A    between atoms: C_14  and  C_15 
REMARK    9  A    between atoms: C_15  and  C_16 
REMARK   10  A    between atoms: C_15  and  O_35 
REMARK   11  A    between atoms: C_16  and  C_18 
REMARK       I    between atoms: C_18  and  N_20 
REMARK   12  A    between atoms: C_21  and  N_20 
REMARK   13  A    between atoms: C_21  and  C_22 
REMARK   14  A    between atoms: C_21  and  C_29 
REMARK   15  A    between atoms: C_22  and  C_23 
REMARK       I    between atoms: N_39  and  C_41 
REMARK   16  A    between atoms: C_41  and  C_43 
REMARK   17  A    between atoms: C_43  and  C_44 
REMARK   18  A    between atoms: C_43  and  N_47 
REMARK       I    between atoms: N_47  and  C_48 
REMARK   19  A    between atoms: C_48  and  C_50 
REMARK   20  A    between atoms: C_50  and  C_51 
REMARK   21  A    between atoms: C_50  and  N_54 
ROOT
HETATM    1  C   UNK N   1      24.451  14.720   6.812  0.00  0.00     0.222 C 
HETATM    2  O   UNK N   1      25.288  14.392   7.646  0.00  0.00    -0.273 OA
HETATM    3  N   UNK N   1      23.226  14.129   6.815  0.00  0.00    -0.345 N 
HETATM    4  C   UNK N   1      22.921  13.030   7.685  0.00  0.00     0.126 C 
HETATM    5  C   UNK N   1      21.798  12.289   6.973  0.00  0.00     0.022 C 
HETATM    6  C   UNK N   1      21.735  12.902   5.572  0.00  0.00     0.029 C 
HETATM    7  C   UNK N   1      22.285  14.310   5.743  0.00  0.00     0.117 C 
ENDROOT
BRANCH   1   8
HETATM    8  C   UNK N   1      24.815  15.727   5.763  0.00  0.00     0.137 C 
BRANCH   8   9
HETATM    9  C   UNK N   1      25.224  15.047   4.459  0.00  0.00     0.152 C 
BRANCH   9  10
HETATM   10  C   UNK N   1      26.615  14.394   4.405  0.00  0.00     0.119 C 
BRANCH  10  11
HETATM   11  C   UNK N   1      26.672  12.861   4.224  0.00  0.00     0.006 C 
HETATM   12  C   UNK N   1      25.634  12.108   5.048  0.00  0.00     0.012 C 
BRANCH  11  13
HETATM   13  C   UNK N   1      28.064  12.335   4.559  0.00  0.00     0.002 C 
HETATM   14  C   UNK N   1      28.573  11.331   3.535  0.00  0.00     0.005 C 
ENDBRANCH  11  13
ENDBRANCH  10  11
BRANCH  10  15
HETATM   15  N   UNK N   1      27.422  15.047   3.387  0.00  0.00    -0.347 N 
HETATM   16  C   UNK N   1      27.207  14.714   1.996  0.00  0.00     0.153 C 
HETATM   17  C   UNK N   1      28.396  15.941   3.732  0.00  0.00     0.243 C 
HETATM   18  O   UNK N   1      29.106  16.429   2.863  0.00  0.00    -0.271 OA
BRANCH  17  19
HETATM   19  C   UNK N   1      28.579  16.379   5.174  0.00  0.00     0.180 C 
BRANCH  19  20
HETATM   20  C   UNK N   1      27.773  17.642   5.509  0.00  0.00     0.009 C 
HETATM   21  C   UNK N   1      28.388  18.395   6.673  0.00  0.00     0.012 C 
HETATM   22  C   UNK N   1      27.712  18.579   4.314  0.00  0.00     0.012 C 
ENDBRANCH  19  20
BRANCH  19  23
HETATM   23  N   UNK N   1      29.971  16.523   5.564  0.00  0.00    -0.346 N 
HETATM   24  C   UNK N   1      30.827  15.515   5.868  0.00  0.00     0.252 C 
HETATM   25  O   UNK N   1      30.448  14.353   5.905  0.00  0.00    -0.271 OA
HETATM   26  H   UNK N   1      30.327  17.440   5.612  0.00  0.00     0.163 HD
BRANCH  24  27
HETATM   27  C   UNK N   1      32.272  15.863   6.156  0.00  0.00     0.316 C 
BRANCH  27  28
HETATM   28  C   UNK N   1      32.423  17.237   6.844  0.00  0.00     0.020 C 
HETATM   29  C   UNK N   1      31.833  17.253   8.247  0.00  0.00     0.012 C 
HETATM   30  C   UNK N   1      33.866  17.711   6.885  0.00  0.00     0.012 C 
ENDBRANCH  27  28
BRANCH  27  31
HETATM   31  N   UNK N   1      33.158  15.776   4.983  0.00  0.00     0.094 N 
HETATM   32  C   UNK N   1      32.412  15.867   3.735  0.00  0.00     0.310 C 
HETATM   33  C   UNK N   1      33.736  14.440   4.987  0.00  0.00     0.310 C 
ENDBRANCH  27  31
ENDBRANCH  24  27
ENDBRANCH  19  23
ENDBRANCH  17  19
ENDBRANCH  10  15
ENDBRANCH   9  10
BRANCH   9  34
HETATM   34  O   UNK N   1      25.083  15.938   3.394  0.00  0.00    -0.388 OA
HETATM   35  C   UNK N   1      24.364  17.016   3.913  0.00  0.00     0.202 C 
ENDBRANCH   9  34
ENDBRANCH   8   9
ENDBRANCH   1   8
BRANCH   7  36
HETATM   36  C   UNK N   1      21.121  15.221   6.163  0.00  0.00     0.156 C 
BRANCH  36  37
HETATM   37  C   UNK N   1      20.208  15.498   4.966  0.00  0.00     0.105 C 
HETATM   38  C   UNK N   1      18.720  15.466   5.269  0.00  0.00     0.022 C 
BRANCH  37  39
HETATM   39  C   UNK N   1      20.693  16.563   4.004  0.00  0.00     0.224 C 
HETATM   40  O   UNK N   1      20.688  17.725   4.376  0.00  0.00    -0.273 OA
HETATM   41  N   UNK N   1      21.144  16.275   2.751  0.00  0.00    -0.350 N 
HETATM   42  H   UNK N   1      21.429  17.021   2.176  0.00  0.00     0.163 HD
BRANCH  41  43
HETATM   43  C   UNK N   1      21.228  14.932   2.222  0.00  0.00     0.146 C 
BRANCH  43  44
HETATM   44  C   UNK N   1      22.366  14.859   1.190  0.00  0.00     0.070 C 
BRANCH  44  45
HETATM   45  C   UNK N   1      22.965  13.488   1.084  0.00  0.00    -0.056 A 
HETATM   46  C   UNK N   1      23.183  12.750   2.250  0.00  0.00     0.007 A 
HETATM   47  C   UNK N   1      23.666  11.441   2.170  0.00  0.00     0.001 A 
HETATM   48  C   UNK N   1      23.920  10.864   0.922  0.00  0.00     0.000 A 
HETATM   49  C   UNK N   1      23.705  11.600  -0.247  0.00  0.00     0.001 A 
HETATM   50  C   UNK N   1      23.228  12.911  -0.167  0.00  0.00     0.007 A 
ENDBRANCH  44  45
ENDBRANCH  43  44
BRANCH  43  51
HETATM   51  C   UNK N   1      19.934  14.491   1.596  0.00  0.00     0.073 A 
HETATM   52  N   UNK N   1      19.292  15.170   0.614  0.00  0.00    -0.361 N 
HETATM   53  C   UNK N   1      18.261  14.442   0.055  0.00  0.00     0.096 A 
ATOM     54  HN  UNK N   1      19.543  16.113   0.321  1.00  0.00     0.165 HD
HETATM   55  C   UNK N   1      18.096  13.143   0.570  0.00  0.00     0.068 A 
HETATM   56  S   UNK N   1      19.282  12.984   1.718  0.00  0.00    -0.085 SA
ENDBRANCH  43  51
ENDBRANCH  41  43
ENDBRANCH  37  39
ENDBRANCH  36  37
BRANCH  36  57
HETATM   57  O   UNK N   1      21.571  16.418   6.727  0.00  0.00    -0.388 OA
HETATM   58  C   UNK N   1      20.815  16.577   7.888  0.00  0.00     0.202 C 
ENDBRANCH  36  57
ENDBRANCH   7  36
TORSDOF 21
ENDMDL
MODEL 9
REMARK VINA RESULT:      -5.9      2.863      8.887
REMARK  21 active torsions:
REMARK  status: ('A' for Active; 'I' for Inactive)
REMARK    1  A    between atoms: C_2  and  C_3 
REMARK    2  A    between atoms: C_3  and  C_5 
REMARK    3  A    between atoms: C_5  and  C_6 
REMARK    4  A    between atoms: C_5  and  N_39 
REMARK    5  A    between atoms: C_6  and  C_7 
REMARK    6  A    between atoms: C_6  and  O_37 
REMARK    7  A    between atoms: C_7  and  C_8 
REMARK       I    between atoms: C_8  and  N_10 
REMARK    8  A    between atoms: C_14  and  C_15 
REMARK    9  A    between atoms: C_15  and  C_16 
REMARK   10  A    between atoms: C_15  and  O_35 
REMARK   11  A    between atoms: C_16  and  C_18 
REMARK       I    between atoms: C_18  and  N_20 
REMARK   12  A    between atoms: C_21  and  N_20 
REMARK   13  A    between atoms: C_21  and  C_22 
REMARK   14  A    between atoms: C_21  and  C_29 
REMARK   15  A    between atoms: C_22  and  C_23 
REMARK       I    between atoms: N_39  and  C_41 
REMARK   16  A    between atoms: C_41  and  C_43 
REMARK   17  A    between atoms: C_43  and  C_44 
REMARK   18  A    between atoms: C_43  and  N_47 
REMARK       I    between atoms: N_47  and  C_48 
REMARK   19  A    between atoms: C_48  and  C_50 
REMARK   20  A    between atoms: C_50  and  C_51 
REMARK   21  A    between atoms: C_50  and  N_54 
ROOT
HETATM    1  C   UNK N   1      22.520  16.453   4.011  0.00  0.00     0.222 C 
HETATM    2  O   UNK N   1      21.429  16.839   4.417  0.00  0.00    -0.273 OA
HETATM    3  N   UNK N   1      23.647  17.138   4.344  0.00  0.00    -0.345 N 
HETATM    4  C   UNK N   1      23.590  18.385   5.051  0.00  0.00     0.126 C 
HETATM    5  C   UNK N   1      24.881  19.094   4.667  0.00  0.00     0.022 C 
HETATM    6  C   UNK N   1      25.465  18.269   3.516  0.00  0.00     0.029 C 
HETATM    7  C   UNK N   1      24.919  16.867   3.731  0.00  0.00     0.117 C 
ENDROOT
BRANCH   1   8
HETATM    8  C   UNK N   1      22.586  15.263   3.102  0.00  0.00     0.137 C 
BRANCH   8   9
HETATM    9  C   UNK N   1      21.189  14.774   2.726  0.00  0.00     0.152 C 
BRANCH   9  10
HETATM   10  C   UNK N   1      20.786  13.361   3.181  0.00  0.00     0.119 C 
BRANCH  10  11
HETATM   11  C   UNK N   1      19.679  13.252   4.254  0.00  0.00     0.006 C 
HETATM   12  C   UNK N   1      19.005  14.580   4.577  0.00  0.00     0.012 C 
BRANCH  11  13
HETATM   13  C   UNK N   1      20.237  12.641   5.535  0.00  0.00     0.002 C 
HETATM   14  C   UNK N   1      20.901  13.673   6.435  0.00  0.00     0.005 C 
ENDBRANCH  11  13
ENDBRANCH  10  11
BRANCH  10  15
HETATM   15  N   UNK N   1      20.442  12.554   2.023  0.00  0.00    -0.347 N 
HETATM   16  C   UNK N   1      19.074  12.547   1.550  0.00  0.00     0.153 C 
HETATM   17  C   UNK N   1      21.382  11.783   1.402  0.00  0.00     0.243 C 
HETATM   18  O   UNK N   1      21.055  11.062   0.468  0.00  0.00    -0.271 OA
BRANCH  17  19
HETATM   19  C   UNK N   1      22.841  11.844   1.817  0.00  0.00     0.180 C 
BRANCH  19  20
HETATM   20  C   UNK N   1      23.786  11.992   0.616  0.00  0.00     0.009 C 
HETATM   21  C   UNK N   1      23.785  13.414   0.087  0.00  0.00     0.012 C 
HETATM   22  C   UNK N   1      25.211  11.628   1.000  0.00  0.00     0.012 C 
ENDBRANCH  19  20
BRANCH  19  23
HETATM   23  N   UNK N   1      23.246  10.743   2.674  0.00  0.00    -0.346 N 
HETATM   24  C   UNK N   1      23.510  10.816   4.003  0.00  0.00     0.252 C 
HETATM   25  O   UNK N   1      23.492  11.886   4.593  0.00  0.00    -0.271 OA
HETATM   26  H   UNK N   1      23.339   9.859   2.249  0.00  0.00     0.163 HD
BRANCH  24  27
HETATM   27  C   UNK N   1      23.824   9.533   4.744  0.00  0.00     0.316 C 
BRANCH  27  28
HETATM   28  C   UNK N   1      22.801   9.231   5.860  0.00  0.00     0.020 C 
HETATM   29  C   UNK N   1      22.865  10.242   6.997  0.00  0.00     0.012 C 
HETATM   30  C   UNK N   1      21.379   9.136   5.335  0.00  0.00     0.012 C 
ENDBRANCH  27  28
BRANCH  27  31
HETATM   31  N   UNK N   1      25.196   9.463   5.273  0.00  0.00     0.094 N 
HETATM   32  C   UNK N   1      26.187   9.747   4.243  0.00  0.00     0.310 C 
HETATM   33  C   UNK N   1      25.431   8.079   5.659  0.00  0.00     0.310 C 
ENDBRANCH  27  31
ENDBRANCH  24  27
ENDBRANCH  19  23
ENDBRANCH  17  19
ENDBRANCH  10  15
ENDBRANCH   9  10
BRANCH   9  34
HETATM   34  O   UNK N   1      20.998  14.893   1.349  0.00  0.00    -0.388 OA
HETATM   35  C   UNK N   1      20.247  16.058   1.184  0.00  0.00     0.202 C 
ENDBRANCH   9  34
ENDBRANCH   8   9
ENDBRANCH   1   8
BRANCH   7  36
HETATM   36  C   UNK N   1      25.865  16.137   4.697  0.00  0.00     0.156 C 
BRANCH  36  37
HETATM   37  C   UNK N   1      26.647  15.052   3.953  0.00  0.00     0.105 C 
HETATM   38  C   UNK N   1      26.033  13.663   4.009  0.00  0.00     0.022 C 
BRANCH  37  39
HETATM   39  C   UNK N   1      27.273  15.476   2.641  0.00  0.00     0.224 C 
HETATM   40  O   UNK N   1      26.640  15.300   1.613  0.00  0.00    -0.273 OA
HETATM   41  N   UNK N   1      28.503  16.056   2.564  0.00  0.00    -0.350 N 
HETATM   42  H   UNK N   1      28.852  16.292   1.675  0.00  0.00     0.163 HD
BRANCH  41  43
HETATM   43  C   UNK N   1      29.323  16.345   3.720  0.00  0.00     0.146 C 
BRANCH  43  44
HETATM   44  C   UNK N   1      29.087  17.798   4.165  0.00  0.00     0.070 C 
BRANCH  44  45
HETATM   45  C   UNK N   1      28.913  17.928   5.649  0.00  0.00    -0.056 A 
HETATM   46  C   UNK N   1      29.642  17.088   6.495  0.00  0.00     0.007 A 
HETATM   47  C   UNK N   1      29.557  17.245   7.881  0.00  0.00     0.001 A 
HETATM   48  C   UNK N   1      28.751  18.250   8.423  0.00  0.00     0.000 A 
HETATM   49  C   UNK N   1      28.018  19.091   7.580  0.00  0.00     0.001 A 
HETATM   50  C   UNK N   1      28.098  18.931   6.195  0.00  0.00     0.007 A 
ENDBRANCH  44  45
ENDBRANCH  43  44
BRANCH  43  51
HETATM   51  C   UNK N   1      30.784  16.120   3.445  0.00  0.00     0.073 A 
HETATM   52  N   UNK N   1      31.636  17.083   3.016  0.00  0.00    -0.361 N 
HETATM   53  C   UNK N   1      32.956  16.682   3.065  0.00  0.00     0.096 A 
ATOM     54  HN  UNK N   1      31.335  18.002   2.693  1.00  0.00     0.165 HD
HETATM   55  C   UNK N   1      33.171  15.389   3.577  0.00  0.00     0.068 A 
HETATM   56  S   UNK N   1      31.659  14.819   3.948  0.00  0.00    -0.085 SA
ENDBRANCH  43  51
ENDBRANCH  41  43
ENDBRANCH  37  39
ENDBRANCH  36  37
BRANCH  36  57
HETATM   57  O   UNK N   1      25.181  15.591   5.787  0.00  0.00    -0.388 OA
HETATM   58  C   UNK N   1      26.068  15.694   6.858  0.00  0.00     0.202 C 
ENDBRANCH  36  57
ENDBRANCH   7  36
TORSDOF 21
ENDMDL
