MODEL 1
REMARK VINA RESULT:      -5.6      0.000      0.000
REMARK  10 active torsions:
REMARK  status: ('A' for Active; 'I' for Inactive)
REMARK    1  A    between atoms: C_4  and  N_22 
REMARK    2  A    between atoms: N_9  and  C_13 
REMARK    3  A    between atoms: C_13  and  C_14 
REMARK    4  A    between atoms: C_14  and  N_15 
REMARK    5  A    between atoms: N_15  and  C_16 
REMARK    6  A    between atoms: C_16  and  C_17 
REMARK    7  A    between atoms: C_17  and  C_18 
REMARK    8  A    between atoms: C_18  and  C_19 
REMARK    9  A    between atoms: C_19  and  C_20 
REMARK   10  A    between atoms: C_20  and  O_21 
ROOT
HETATM    1  C   UNK N   1      36.890  14.208  15.034  0.00  0.00     0.183 A 
HETATM    2  N   UNK N   1      36.405  12.929  15.172  0.00  0.00    -0.337 N 
ATOM      3  HN  UNK N   1      36.637  12.391  16.006  1.00  0.00     0.168 HD
HETATM    4  C   UNK N   1      35.618  12.369  14.206  0.00  0.00     0.131 A 
HETATM    5  C   UNK N   1      35.319  13.131  13.087  0.00  0.00     0.122 A 
HETATM    6  C   UNK N   1      35.805  14.381  12.973  0.00  0.00     0.140 A 
HETATM    7  N   UNK N   1      36.591  14.946  13.922  0.00  0.00    -0.336 N 
ATOM      8  HN  UNK N   1      36.949  15.895  13.809  1.00  0.00     0.168 HD
HETATM    9  N   UNK N   1      35.389  14.915  11.816  0.00  0.00    -0.326 N 
HETATM   10  C   UNK N   1      34.642  13.947  11.229  0.00  0.00     0.185 A 
HETATM   11  N   UNK N   1      34.582  12.827  12.003  0.00  0.00    -0.346 N 
ATOM     12  HN  UNK N   1      34.089  11.955  11.806  1.00  0.00     0.167 HD
ENDROOT
BRANCH   9  13
HETATM   13  C   UNK N   1      35.680  16.229  11.247  0.00  0.00     0.150 C 
BRANCH  13  14
HETATM   14  C   UNK N   1      35.229  16.325   9.800  0.00  0.00     0.134 C 
BRANCH  14  15
HETATM   15  N   UNK N   1      34.125  17.256   9.693  0.00  0.00    -0.420 N 
HETATM   16  H   UNK N   1      34.012  18.134  10.200  0.00  0.00     0.153 HD
BRANCH  15  17
HETATM   17  C   UNK N   1      33.213  16.689   8.717  0.00  0.00     0.113 C 
BRANCH  17  18
HETATM   18  C   UNK N   1      32.177  17.725   8.355  0.00  0.00     0.019 C 
BRANCH  18  19
HETATM   19  C   UNK N   1      30.788  17.139   8.474  0.00  0.00     0.004 C 
BRANCH  19  20
HETATM   20  C   UNK N   1      29.904  18.175   9.130  0.00  0.00     0.026 C 
BRANCH  20  21
HETATM   21  C   UNK N   1      28.682  17.521   9.730  0.00  0.00     0.164 C 
BRANCH  21  22
HETATM   22  O   UNK N   1      27.550  18.241   9.350  0.00  0.00    -0.401 OA
HETATM   23  H   UNK N   1      27.440  18.521   8.428  0.00  0.00     0.209 HD
ENDBRANCH  21  22
ENDBRANCH  20  21
ENDBRANCH  19  20
ENDBRANCH  18  19
ENDBRANCH  17  18
ENDBRANCH  15  17
ENDBRANCH  14  15
ENDBRANCH  13  14
ENDBRANCH   9  13
BRANCH   4  24
HETATM   24  N   UNK N   1      35.128  11.056  14.351  0.00  0.00    -0.383 N 
HETATM   25  H   UNK N   1      35.724  10.288  14.193  0.00  0.00     0.157 HD
HETATM   26  H   UNK N   1      34.191  10.906  14.611  0.00  0.00     0.157 HD
ENDBRANCH   4  24
TORSDOF 10
ENDMDL
MODEL 2
REMARK VINA RESULT:      -5.5     12.430     16.004
REMARK  10 active torsions:
REMARK  status: ('A' for Active; 'I' for Inactive)
REMARK    1  A    between atoms: C_4  and  N_22 
REMARK    2  A    between atoms: N_9  and  C_13 
REMARK    3  A    between atoms: C_13  and  C_14 
REMARK    4  A    between atoms: C_14  and  N_15 
REMARK    5  A    between atoms: N_15  and  C_16 
REMARK    6  A    between atoms: C_16  and  C_17 
REMARK    7  A    between atoms: C_17  and  C_18 
REMARK    8  A    between atoms: C_18  and  C_19 
REMARK    9  A    between atoms: C_19  and  C_20 
REMARK   10  A    between atoms: C_20  and  O_21 
ROOT
HETATM    1  C   UNK N   1      20.984  19.707   3.037  0.00  0.00     0.183 A 
HETATM    2  N   UNK N   1      20.316  19.158   1.969  0.00  0.00    -0.337 N 
ATOM      3  HN  UNK N   1      20.232  19.688   1.102  1.00  0.00     0.168 HD
HETATM    4  C   UNK N   1      19.762  17.912   2.053  0.00  0.00     0.131 A 
HETATM    5  C   UNK N   1      19.898  17.218   3.245  0.00  0.00     0.122 A 
HETATM    6  C   UNK N   1      20.557  17.775   4.278  0.00  0.00     0.140 A 
HETATM    7  N   UNK N   1      21.106  19.012   4.209  0.00  0.00    -0.336 N 
ATOM      8  HN  UNK N   1      21.597  19.413   5.009  1.00  0.00     0.168 HD
HETATM    9  N   UNK N   1      20.556  16.925   5.315  0.00  0.00    -0.326 N 
HETATM   10  C   UNK N   1      19.871  15.839   4.881  0.00  0.00     0.185 A 
HETATM   11  N   UNK N   1      19.453  15.996   3.592  0.00  0.00    -0.346 N 
ATOM     12  HN  UNK N   1      18.923  15.338   3.022  1.00  0.00     0.167 HD
ENDROOT
BRANCH   9  13
HETATM   13  C   UNK N   1      21.119  17.098   6.652  0.00  0.00     0.150 C 
BRANCH  13  14
HETATM   14  C   UNK N   1      21.146  15.790   7.423  0.00  0.00     0.134 C 
BRANCH  14  15
HETATM   15  N   UNK N   1      20.589  15.990   8.745  0.00  0.00    -0.420 N 
HETATM   16  H   UNK N   1      20.350  16.881   9.181  0.00  0.00     0.153 HD
BRANCH  15  17
HETATM   17  C   UNK N   1      20.440  14.668   9.324  0.00  0.00     0.113 C 
BRANCH  17  18
HETATM   18  C   UNK N   1      21.804  14.039   9.468  0.00  0.00     0.019 C 
BRANCH  18  19
HETATM   19  C   UNK N   1      21.673  12.617   9.963  0.00  0.00     0.004 C 
BRANCH  19  20
HETATM   20  C   UNK N   1      22.709  12.406  11.044  0.00  0.00     0.026 C 
BRANCH  20  21
HETATM   21  C   UNK N   1      24.099  12.423  10.452  0.00  0.00     0.164 C 
BRANCH  21  22
HETATM   22  O   UNK N   1      25.032  12.414  11.487  0.00  0.00    -0.401 OA
HETATM   23  H   UNK N   1      24.931  11.794  12.227  0.00  0.00     0.209 HD
ENDBRANCH  21  22
ENDBRANCH  20  21
ENDBRANCH  19  20
ENDBRANCH  18  19
ENDBRANCH  17  18
ENDBRANCH  15  17
ENDBRANCH  14  15
ENDBRANCH  13  14
ENDBRANCH   9  13
BRANCH   4  24
HETATM   24  N   UNK N   1      19.073  17.357   0.956  0.00  0.00    -0.383 N 
HETATM   25  H   UNK N   1      18.595  16.502   1.057  0.00  0.00     0.157 HD
HETATM   26  H   UNK N   1      19.070  17.824   0.090  0.00  0.00     0.157 HD
ENDBRANCH   4  24
TORSDOF 10
ENDMDL
MODEL 3
REMARK VINA RESULT:      -5.5      1.103      2.128
REMARK  10 active torsions:
REMARK  status: ('A' for Active; 'I' for Inactive)
REMARK    1  A    between atoms: C_4  and  N_22 
REMARK    2  A    between atoms: N_9  and  C_13 
REMARK    3  A    between atoms: C_13  and  C_14 
REMARK    4  A    between atoms: C_14  and  N_15 
REMARK    5  A    between atoms: N_15  and  C_16 
REMARK    6  A    between atoms: C_16  and  C_17 
REMARK    7  A    between atoms: C_17  and  C_18 
REMARK    8  A    between atoms: C_18  and  C_19 
REMARK    9  A    between atoms: C_19  and  C_20 
REMARK   10  A    between atoms: C_20  and  O_21 
ROOT
HETATM    1  C   UNK N   1      34.924  11.414  12.403  0.00  0.00     0.183 A 
HETATM    2  N   UNK N   1      35.869  11.654  13.371  0.00  0.00    -0.337 N 
ATOM      3  HN  UNK N   1      36.184  10.889  13.968  1.00  0.00     0.168 HD
HETATM    4  C   UNK N   1      36.393  12.904  13.547  0.00  0.00     0.131 A 
HETATM    5  C   UNK N   1      35.946  13.920  12.716  0.00  0.00     0.122 A 
HETATM    6  C   UNK N   1      35.020  13.661  11.774  0.00  0.00     0.140 A 
HETATM    7  N   UNK N   1      34.490  12.427  11.593  0.00  0.00    -0.336 N 
ATOM      8  HN  UNK N   1      33.786  12.260  10.874  1.00  0.00     0.168 HD
HETATM    9  N   UNK N   1      34.745  14.789  11.102  0.00  0.00    -0.326 N 
HETATM   10  C   UNK N   1      35.527  15.739  11.671  0.00  0.00     0.185 A 
HETATM   11  N   UNK N   1      36.287  15.220  12.678  0.00  0.00    -0.346 N 
ATOM     12  HN  UNK N   1      36.961  15.709  13.268  1.00  0.00     0.167 HD
ENDROOT
BRANCH   9  13
HETATM   13  C   UNK N   1      33.792  15.008  10.017  0.00  0.00     0.150 C 
BRANCH  13  14
HETATM   14  C   UNK N   1      34.157  16.227   9.188  0.00  0.00     0.134 C 
BRANCH  14  15
HETATM   15  N   UNK N   1      33.034  17.141   9.142  0.00  0.00    -0.420 N 
HETATM   16  H   UNK N   1      33.037  18.129   9.396  0.00  0.00     0.153 HD
BRANCH  15  17
HETATM   17  C   UNK N   1      31.905  16.368   8.659  0.00  0.00     0.113 C 
BRANCH  17  18
HETATM   18  C   UNK N   1      30.921  17.301   7.995  0.00  0.00     0.019 C 
BRANCH  18  19
HETATM   19  C   UNK N   1      30.525  18.406   8.948  0.00  0.00     0.004 C 
BRANCH  19  20
HETATM   20  C   UNK N   1      29.393  17.892   9.807  0.00  0.00     0.026 C 
BRANCH  20  21
HETATM   21  C   UNK N   1      28.155  17.669   8.969  0.00  0.00     0.164 C 
BRANCH  21  22
HETATM   22  O   UNK N   1      27.427  18.856   8.913  0.00  0.00    -0.401 OA
HETATM   23  H   UNK N   1      26.486  18.860   9.149  0.00  0.00     0.209 HD
ENDBRANCH  21  22
ENDBRANCH  20  21
ENDBRANCH  19  20
ENDBRANCH  18  19
ENDBRANCH  17  18
ENDBRANCH  15  17
ENDBRANCH  14  15
ENDBRANCH  13  14
ENDBRANCH   9  13
BRANCH   4  24
HETATM   24  N   UNK N   1      37.358  13.145  14.546  0.00  0.00    -0.383 N 
HETATM   25  H   UNK N   1      37.118  13.047  15.495  0.00  0.00     0.157 HD
HETATM   26  H   UNK N   1      38.271  13.408  14.293  0.00  0.00     0.157 HD
ENDBRANCH   4  24
TORSDOF 10
ENDMDL
MODEL 4
REMARK VINA RESULT:      -5.4     11.477     14.881
REMARK  10 active torsions:
REMARK  status: ('A' for Active; 'I' for Inactive)
REMARK    1  A    between atoms: C_4  and  N_22 
REMARK    2  A    between atoms: N_9  and  C_13 
REMARK    3  A    between atoms: C_13  and  C_14 
REMARK    4  A    between atoms: C_14  and  N_15 
REMARK    5  A    between atoms: N_15  and  C_16 
REMARK    6  A    between atoms: C_16  and  C_17 
REMARK    7  A    between atoms: C_17  and  C_18 
REMARK    8  A    between atoms: C_18  and  C_19 
REMARK    9  A    between atoms: C_19  and  C_20 
REMARK   10  A    between atoms: C_20  and  O_21 
ROOT
HETATM    1  C   UNK N   1      20.788  16.638   4.139  0.00  0.00     0.183 A 
HETATM    2  N   UNK N   1      19.643  17.085   3.526  0.00  0.00    -0.337 N 
ATOM      3  HN  UNK N   1      18.807  16.501   3.536  1.00  0.00     0.168 HD
HETATM    4  C   UNK N   1      19.608  18.299   2.901  0.00  0.00     0.131 A 
HETATM    5  C   UNK N   1      20.762  19.068   2.910  0.00  0.00     0.122 A 
HETATM    6  C   UNK N   1      21.872  18.611   3.518  0.00  0.00     0.140 A 
HETATM    7  N   UNK N   1      21.920  17.406   4.136  0.00  0.00    -0.336 N 
ATOM      8  HN  UNK N   1      22.777  17.082   4.586  1.00  0.00     0.168 HD
HETATM    9  N   UNK N   1      22.852  19.519   3.394  0.00  0.00    -0.326 N 
HETATM   10  C   UNK N   1      22.302  20.537   2.686  0.00  0.00     0.185 A 
HETATM   11  N   UNK N   1      20.999  20.280   2.376  0.00  0.00    -0.346 N 
ATOM     12  HN  UNK N   1      20.352  20.873   1.856  1.00  0.00     0.167 HD
ENDROOT
BRANCH   9  13
HETATM   13  C   UNK N   1      24.234  19.457   3.863  0.00  0.00     0.150 C 
BRANCH  13  14
HETATM   14  C   UNK N   1      25.189  20.112   2.880  0.00  0.00     0.134 C 
BRANCH  14  15
HETATM   15  N   UNK N   1      26.328  20.653   3.592  0.00  0.00    -0.420 N 
HETATM   16  H   UNK N   1      26.478  21.626   3.859  0.00  0.00     0.153 HD
BRANCH  15  17
HETATM   17  C   UNK N   1      27.211  19.532   3.852  0.00  0.00     0.113 C 
BRANCH  17  18
HETATM   18  C   UNK N   1      27.725  19.630   5.268  0.00  0.00     0.019 C 
BRANCH  18  19
HETATM   19  C   UNK N   1      27.389  20.983   5.852  0.00  0.00     0.004 C 
BRANCH  19  20
HETATM   20  C   UNK N   1      26.951  20.773   7.283  0.00  0.00     0.026 C 
BRANCH  20  21
HETATM   21  C   UNK N   1      25.846  21.738   7.643  0.00  0.00     0.164 C 
BRANCH  21  22
HETATM   22  O   UNK N   1      25.137  21.231   8.731  0.00  0.00    -0.401 OA
HETATM   23  H   UNK N   1      25.507  21.298   9.625  0.00  0.00     0.209 HD
ENDBRANCH  21  22
ENDBRANCH  20  21
ENDBRANCH  19  20
ENDBRANCH  18  19
ENDBRANCH  17  18
ENDBRANCH  15  17
ENDBRANCH  14  15
ENDBRANCH  13  14
ENDBRANCH   9  13
BRANCH   4  24
HETATM   24  N   UNK N   1      18.432  18.749   2.269  0.00  0.00    -0.383 N 
HETATM   25  H   UNK N   1      17.978  19.560   2.594  0.00  0.00     0.157 HD
HETATM   26  H   UNK N   1      18.066  18.253   1.502  0.00  0.00     0.157 HD
ENDBRANCH   4  24
TORSDOF 10
ENDMDL
MODEL 5
REMARK VINA RESULT:      -5.2      2.256      3.098
REMARK  10 active torsions:
REMARK  status: ('A' for Active; 'I' for Inactive)
REMARK    1  A    between atoms: C_4  and  N_22 
REMARK    2  A    between atoms: N_9  and  C_13 
REMARK    3  A    between atoms: C_13  and  C_14 
REMARK    4  A    between atoms: C_14  and  N_15 
REMARK    5  A    between atoms: N_15  and  C_16 
REMARK    6  A    between atoms: C_16  and  C_17 
REMARK    7  A    between atoms: C_17  and  C_18 
REMARK    8  A    between atoms: C_18  and  C_19 
REMARK    9  A    between atoms: C_19  and  C_20 
REMARK   10  A    between atoms: C_20  and  O_21 
ROOT
HETATM    1  C   UNK N   1      34.756  11.571  12.895  0.00  0.00     0.183 A 
HETATM    2  N   UNK N   1      35.743  11.806  13.822  0.00  0.00    -0.337 N 
ATOM      3  HN  UNK N   1      35.997  11.072  14.483  1.00  0.00     0.168 HD
HETATM    4  C   UNK N   1      36.387  13.009  13.872  0.00  0.00     0.131 A 
HETATM    5  C   UNK N   1      36.019  13.983  12.957  0.00  0.00     0.122 A 
HETATM    6  C   UNK N   1      35.050  13.731  12.058  0.00  0.00     0.140 A 
HETATM    7  N   UNK N   1      34.400  12.543  12.001  0.00  0.00    -0.336 N 
ATOM      8  HN  UNK N   1      33.666  12.380  11.312  1.00  0.00     0.168 HD
HETATM    9  N   UNK N   1      34.867  14.813  11.287  0.00  0.00    -0.326 N 
HETATM   10  C   UNK N   1      35.750  15.731  11.753  0.00  0.00     0.185 A 
HETATM   11  N   UNK N   1      36.482  15.236  12.792  0.00  0.00    -0.346 N 
ATOM     12  HN  UNK N   1      37.213  15.708  13.323  1.00  0.00     0.167 HD
ENDROOT
BRANCH   9  13
HETATM   13  C   UNK N   1      33.913  15.024  10.201  0.00  0.00     0.150 C 
BRANCH  13  14
HETATM   14  C   UNK N   1      34.399  16.081   9.225  0.00  0.00     0.134 C 
BRANCH  14  15
HETATM   15  N   UNK N   1      33.656  17.308   9.424  0.00  0.00    -0.420 N 
HETATM   16  H   UNK N   1      33.664  17.902  10.254  0.00  0.00     0.153 HD
BRANCH  15  17
HETATM   17  C   UNK N   1      32.900  17.523   8.205  0.00  0.00     0.113 C 
BRANCH  17  18
HETATM   18  C   UNK N   1      33.862  17.800   7.074  0.00  0.00     0.019 C 
BRANCH  18  19
HETATM   19  C   UNK N   1      33.297  17.281   5.771  0.00  0.00     0.004 C 
BRANCH  19  20
HETATM   20  C   UNK N   1      31.840  16.950   5.998  0.00  0.00     0.026 C 
BRANCH  20  21
HETATM   21  C   UNK N   1      31.035  17.231   4.751  0.00  0.00     0.164 C 
BRANCH  21  22
HETATM   22  O   UNK N   1      31.762  18.088   3.926  0.00  0.00    -0.401 OA
HETATM   23  H   UNK N   1      32.577  18.501   4.253  0.00  0.00     0.209 HD
ENDBRANCH  21  22
ENDBRANCH  20  21
ENDBRANCH  19  20
ENDBRANCH  18  19
ENDBRANCH  17  18
ENDBRANCH  15  17
ENDBRANCH  14  15
ENDBRANCH  13  14
ENDBRANCH   9  13
BRANCH   4  24
HETATM   24  N   UNK N   1      37.395  13.246  14.829  0.00  0.00    -0.383 N 
HETATM   25  H   UNK N   1      38.301  13.496  14.537  0.00  0.00     0.157 HD
HETATM   26  H   UNK N   1      37.192  13.161  15.788  0.00  0.00     0.157 HD
ENDBRANCH   4  24
TORSDOF 10
ENDMDL
MODEL 6
REMARK VINA RESULT:      -5.2     12.400     15.695
REMARK  10 active torsions:
REMARK  status: ('A' for Active; 'I' for Inactive)
REMARK    1  A    between atoms: C_4  and  N_22 
REMARK    2  A    between atoms: N_9  and  C_13 
REMARK    3  A    between atoms: C_13  and  C_14 
REMARK    4  A    between atoms: C_14  and  N_15 
REMARK    5  A    between atoms: N_15  and  C_16 
REMARK    6  A    between atoms: C_16  and  C_17 
REMARK    7  A    between atoms: C_17  and  C_18 
REMARK    8  A    between atoms: C_18  and  C_19 
REMARK    9  A    between atoms: C_19  and  C_20 
REMARK   10  A    between atoms: C_20  and  O_21 
ROOT
HETATM    1  C   UNK N   1      20.158  16.830   1.231  0.00  0.00     0.183 A 
HETATM    2  N   UNK N   1      20.146  18.156   0.871  0.00  0.00    -0.337 N 
ATOM      3  HN  UNK N   1      19.900  18.415  -0.084  1.00  0.00     0.168 HD
HETATM    4  C   UNK N   1      20.462  19.132   1.773  0.00  0.00     0.131 A 
HETATM    5  C   UNK N   1      20.788  18.744   3.064  0.00  0.00     0.122 A 
HETATM    6  C   UNK N   1      20.792  17.439   3.395  0.00  0.00     0.140 A 
HETATM    7  N   UNK N   1      20.486  16.462   2.507  0.00  0.00    -0.336 N 
ATOM      8  HN  UNK N   1      20.501  15.480   2.783  1.00  0.00     0.168 HD
HETATM    9  N   UNK N   1      21.139  17.310   4.684  0.00  0.00    -0.326 N 
HETATM   10  C   UNK N   1      21.352  18.576   5.121  0.00  0.00     0.185 A 
HETATM   11  N   UNK N   1      21.136  19.487   4.130  0.00  0.00    -0.346 N 
ATOM     12  HN  UNK N   1      21.220  20.502   4.185  1.00  0.00     0.167 HD
ENDROOT
BRANCH   9  13
HETATM   13  C   UNK N   1      21.306  16.095   5.478  0.00  0.00     0.150 C 
BRANCH  13  14
HETATM   14  C   UNK N   1      22.717  15.972   6.024  0.00  0.00     0.134 C 
BRANCH  14  15
HETATM   15  N   UNK N   1      23.630  15.642   4.949  0.00  0.00    -0.420 N 
HETATM   16  H   UNK N   1      23.550  14.864   4.294  0.00  0.00     0.153 HD
BRANCH  15  17
HETATM   17  C   UNK N   1      24.679  16.643   4.990  0.00  0.00     0.113 C 
BRANCH  17  18
HETATM   18  C   UNK N   1      24.613  17.475   3.732  0.00  0.00     0.019 C 
BRANCH  18  19
HETATM   19  C   UNK N   1      25.610  18.608   3.802  0.00  0.00     0.004 C 
BRANCH  19  20
HETATM   20  C   UNK N   1      24.842  19.885   4.056  0.00  0.00     0.026 C 
BRANCH  20  21
HETATM   21  C   UNK N   1      24.492  20.558   2.749  0.00  0.00     0.164 C 
BRANCH  21  22
HETATM   22  O   UNK N   1      23.245  21.167   2.873  0.00  0.00    -0.401 OA
HETATM   23  H   UNK N   1      22.784  21.492   2.084  0.00  0.00     0.209 HD
ENDBRANCH  21  22
ENDBRANCH  20  21
ENDBRANCH  19  20
ENDBRANCH  18  19
ENDBRANCH  17  18
ENDBRANCH  15  17
ENDBRANCH  14  15
ENDBRANCH  13  14
ENDBRANCH   9  13
BRANCH   4  24
HETATM   24  N   UNK N   1      20.453  20.490   1.396  0.00  0.00    -0.383 N 
HETATM   25  H   UNK N   1      20.501  20.736   0.444  0.00  0.00     0.157 HD
HETATM   26  H   UNK N   1      20.398  21.190   2.084  0.00  0.00     0.157 HD
ENDBRANCH   4  24
TORSDOF 10
ENDMDL
MODEL 7
REMARK VINA RESULT:      -5.2      5.800      8.255
REMARK  10 active torsions:
REMARK  status: ('A' for Active; 'I' for Inactive)
REMARK    1  A    between atoms: C_4  and  N_22 
REMARK    2  A    between atoms: N_9  and  C_13 
REMARK    3  A    between atoms: C_13  and  C_14 
REMARK    4  A    between atoms: C_14  and  N_15 
REMARK    5  A    between atoms: N_15  and  C_16 
REMARK    6  A    between atoms: C_16  and  C_17 
REMARK    7  A    between atoms: C_17  and  C_18 
REMARK    8  A    between atoms: C_18  and  C_19 
REMARK    9  A    between atoms: C_19  and  C_20 
REMARK   10  A    between atoms: C_20  and  O_21 
ROOT
HETATM    1  C   UNK N   1      28.997  18.441   9.245  0.00  0.00     0.183 A 
HETATM    2  N   UNK N   1      30.341  18.309   9.498  0.00  0.00    -0.337 N 
ATOM      3  HN  UNK N   1      30.738  18.724  10.340  1.00  0.00     0.168 HD
HETATM    4  C   UNK N   1      31.154  17.629   8.635  0.00  0.00     0.131 A 
HETATM    5  C   UNK N   1      30.581  17.073   7.502  0.00  0.00     0.122 A 
HETATM    6  C   UNK N   1      29.262  17.215   7.275  0.00  0.00     0.140 A 
HETATM    7  N   UNK N   1      28.446  17.891   8.121  0.00  0.00    -0.336 N 
ATOM      8  HN  UNK N   1      27.450  17.987   7.923  1.00  0.00     0.168 HD
HETATM    9  N   UNK N   1      28.940  16.602   6.127  0.00  0.00    -0.326 N 
HETATM   10  C   UNK N   1      30.107  16.091   5.661  0.00  0.00     0.185 A 
HETATM   11  N   UNK N   1      31.143  16.369   6.503  0.00  0.00    -0.346 N 
ATOM     12  HN  UNK N   1      32.123  16.103   6.398  1.00  0.00     0.167 HD
ENDROOT
BRANCH   9  13
HETATM   13  C   UNK N   1      27.644  16.510   5.459  0.00  0.00     0.150 C 
BRANCH  13  14
HETATM   14  C   UNK N   1      27.742  16.886   3.991  0.00  0.00     0.134 C 
BRANCH  14  15
HETATM   15  N   UNK N   1      28.000  18.306   3.867  0.00  0.00    -0.420 N 
HETATM   16  H   UNK N   1      28.904  18.773   3.939  0.00  0.00     0.153 HD
BRANCH  15  17
HETATM   17  C   UNK N   1      26.714  18.929   3.616  0.00  0.00     0.113 C 
BRANCH  17  18
HETATM   18  C   UNK N   1      26.521  20.064   4.592  0.00  0.00     0.019 C 
BRANCH  18  19
HETATM   19  C   UNK N   1      27.851  20.483   5.175  0.00  0.00     0.004 C 
BRANCH  19  20
HETATM   20  C   UNK N   1      27.593  21.059   6.549  0.00  0.00     0.026 C 
BRANCH  20  21
HETATM   21  C   UNK N   1      26.109  21.142   6.815  0.00  0.00     0.164 C 
BRANCH  21  22
HETATM   22  O   UNK N   1      25.896  21.181   8.192  0.00  0.00    -0.401 OA
HETATM   23  H   UNK N   1      26.647  21.296   8.795  0.00  0.00     0.209 HD
ENDBRANCH  21  22
ENDBRANCH  20  21
ENDBRANCH  19  20
ENDBRANCH  18  19
ENDBRANCH  17  18
ENDBRANCH  15  17
ENDBRANCH  14  15
ENDBRANCH  13  14
ENDBRANCH   9  13
BRANCH   4  24
HETATM   24  N   UNK N   1      32.533  17.501   8.897  0.00  0.00    -0.383 N 
HETATM   25  H   UNK N   1      32.864  16.747   9.436  0.00  0.00     0.157 HD
HETATM   26  H   UNK N   1      33.164  18.165   8.539  0.00  0.00     0.157 HD
ENDBRANCH   4  24
TORSDOF 10
ENDMDL
MODEL 8
REMARK VINA RESULT:      -5.1      9.778     14.621
REMARK  10 active torsions:
REMARK  status: ('A' for Active; 'I' for Inactive)
REMARK    1  A    between atoms: C_4  and  N_22 
REMARK    2  A    between atoms: N_9  and  C_13 
REMARK    3  A    between atoms: C_13  and  C_14 
REMARK    4  A    between atoms: C_14  and  N_15 
REMARK    5  A    between atoms: N_15  and  C_16 
REMARK    6  A    between atoms: C_16  and  C_17 
REMARK    7  A    between atoms: C_17  and  C_18 
REMARK    8  A    between atoms: C_18  and  C_19 
REMARK    9  A    between atoms: C_19  and  C_20 
REMARK   10  A    between atoms: C_20  and  O_21 
ROOT
HETATM    1  C   UNK N   1      20.064  18.234   3.150  0.00  0.00     0.183 A 
HETATM    2  N   UNK N   1      19.742  19.174   2.201  0.00  0.00    -0.337 N 
ATOM      3  HN  UNK N   1      18.818  19.158   1.771  1.00  0.00     0.168 HD
HETATM    4  C   UNK N   1      20.644  20.129   1.824  0.00  0.00     0.131 A 
HETATM    5  C   UNK N   1      21.890  20.123   2.432  0.00  0.00     0.122 A 
HETATM    6  C   UNK N   1      22.184  19.193   3.359  0.00  0.00     0.140 A 
HETATM    7  N   UNK N   1      21.300  18.238   3.738  0.00  0.00    -0.336 N 
ATOM      8  HN  UNK N   1      21.549  17.542   4.441  1.00  0.00     0.168 HD
HETATM    9  N   UNK N   1      23.436  19.385   3.799  0.00  0.00    -0.326 N 
HETATM   10  C   UNK N   1      23.894  20.455   3.103  0.00  0.00     0.185 A 
HETATM   11  N   UNK N   1      22.947  20.935   2.247  0.00  0.00    -0.346 N 
ATOM     12  HN  UNK N   1      23.024  21.728   1.611  1.00  0.00     0.167 HD
ENDROOT
BRANCH   9  13
HETATM   13  C   UNK N   1      24.200  18.615   4.778  0.00  0.00     0.150 C 
BRANCH  13  14
HETATM   14  C   UNK N   1      25.501  19.307   5.142  0.00  0.00     0.134 C 
BRANCH  14  15
HETATM   15  N   UNK N   1      26.394  18.362   5.783  0.00  0.00    -0.420 N 
HETATM   16  H   UNK N   1      26.134  17.613   6.426  0.00  0.00     0.153 HD
BRANCH  15  17
HETATM   17  C   UNK N   1      27.729  18.695   5.326  0.00  0.00     0.113 C 
BRANCH  17  18
HETATM   18  C   UNK N   1      28.656  17.546   5.641  0.00  0.00     0.019 C 
BRANCH  18  19
HETATM   19  C   UNK N   1      28.352  16.992   7.015  0.00  0.00     0.004 C 
BRANCH  19  20
HETATM   20  C   UNK N   1      29.218  17.728   8.011  0.00  0.00     0.026 C 
BRANCH  20  21
HETATM   21  C   UNK N   1      28.595  17.680   9.387  0.00  0.00     0.164 C 
BRANCH  21  22
HETATM   22  O   UNK N   1      27.370  18.345   9.353  0.00  0.00    -0.401 OA
HETATM   23  H   UNK N   1      27.168  19.024  10.016  0.00  0.00     0.209 HD
ENDBRANCH  21  22
ENDBRANCH  20  21
ENDBRANCH  19  20
ENDBRANCH  18  19
ENDBRANCH  17  18
ENDBRANCH  15  17
ENDBRANCH  14  15
ENDBRANCH  13  14
ENDBRANCH   9  13
BRANCH   4  24
HETATM   24  N   UNK N   1      20.309  21.087   0.846  0.00  0.00    -0.383 N 
HETATM   25  H   UNK N   1      20.495  20.906  -0.103  0.00  0.00     0.157 HD
HETATM   26  H   UNK N   1      19.889  21.936   1.113  0.00  0.00     0.157 HD
ENDBRANCH   4  24
TORSDOF 10
ENDMDL
MODEL 9
REMARK VINA RESULT:      -5.1      8.413     11.697
REMARK  10 active torsions:
REMARK  status: ('A' for Active; 'I' for Inactive)
REMARK    1  A    between atoms: C_4  and  N_22 
REMARK    2  A    between atoms: N_9  and  C_13 
REMARK    3  A    between atoms: C_13  and  C_14 
REMARK    4  A    between atoms: C_14  and  N_15 
REMARK    5  A    between atoms: N_15  and  C_16 
REMARK    6  A    between atoms: C_16  and  C_17 
REMARK    7  A    between atoms: C_17  and  C_18 
REMARK    8  A    between atoms: C_18  and  C_19 
REMARK    9  A    between atoms: C_19  and  C_20 
REMARK   10  A    between atoms: C_20  and  O_21 
ROOT
HETATM    1  C   UNK N   1      29.377  17.554   5.008  0.00  0.00     0.183 A 
HETATM    2  N   UNK N   1      29.510  17.537   6.376  0.00  0.00    -0.337 N 
ATOM      3  HN  UNK N   1      30.179  16.901   6.808  1.00  0.00     0.168 HD
HETATM    4  C   UNK N   1      28.757  18.360   7.164  0.00  0.00     0.131 A 
HETATM    5  C   UNK N   1      27.859  19.215   6.543  0.00  0.00     0.122 A 
HETATM    6  C   UNK N   1      27.746  19.214   5.202  0.00  0.00     0.140 A 
HETATM    7  N   UNK N   1      28.484  18.399   4.409  0.00  0.00    -0.336 N 
ATOM      8  HN  UNK N   1      28.375  18.417   3.395  1.00  0.00     0.168 HD
HETATM    9  N   UNK N   1      26.821  20.113   4.834  0.00  0.00    -0.326 N 
HETATM   10  C   UNK N   1      26.373  20.653   5.995  0.00  0.00     0.185 A 
HETATM   11  N   UNK N   1      27.007  20.111   7.074  0.00  0.00    -0.346 N 
ATOM     12  HN  UNK N   1      26.867  20.334   8.059  1.00  0.00     0.167 HD
ENDROOT
BRANCH   9  13
HETATM   13  C   UNK N   1      26.337  20.447   3.497  0.00  0.00     0.150 C 
BRANCH  13  14
HETATM   14  C   UNK N   1      24.862  20.126   3.339  0.00  0.00     0.134 C 
BRANCH  14  15
HETATM   15  N   UNK N   1      24.648  18.705   3.523  0.00  0.00    -0.420 N 
HETATM   16  H   UNK N   1      25.185  17.946   3.103  0.00  0.00     0.153 HD
BRANCH  15  17
HETATM   17  C   UNK N   1      23.518  18.581   4.424  0.00  0.00     0.113 C 
BRANCH  17  18
HETATM   18  C   UNK N   1      22.255  18.441   3.610  0.00  0.00     0.019 C 
BRANCH  18  19
HETATM   19  C   UNK N   1      21.127  19.207   4.262  0.00  0.00     0.004 C 
BRANCH  19  20
HETATM   20  C   UNK N   1      20.353  19.909   3.170  0.00  0.00     0.026 C 
BRANCH  20  21
HETATM   21  C   UNK N   1      21.299  20.565   2.192  0.00  0.00     0.164 C 
BRANCH  21  22
HETATM   22  O   UNK N   1      21.811  21.727   2.766  0.00  0.00    -0.401 OA
HETATM   23  H   UNK N   1      21.689  22.581   2.323  0.00  0.00     0.209 HD
ENDBRANCH  21  22
ENDBRANCH  20  21
ENDBRANCH  19  20
ENDBRANCH  18  19
ENDBRANCH  17  18
ENDBRANCH  15  17
ENDBRANCH  14  15
ENDBRANCH  13  14
ENDBRANCH   9  13
BRANCH   4  24
HETATM   24  N   UNK N   1      28.894  18.335   8.567  0.00  0.00    -0.383 N 
HETATM   25  H   UNK N   1      29.778  18.185   8.972  0.00  0.00     0.157 HD
HETATM   26  H   UNK N   1      28.106  18.468   9.140  0.00  0.00     0.157 HD
ENDBRANCH   4  24
TORSDOF 10
ENDMDL
