MODEL 1
REMARK VINA RESULT:      -7.6      0.000      0.000
REMARK  3 active torsions:
REMARK  status: ('A' for Active; 'I' for Inactive)
REMARK    1  A    between atoms: C_5  and  N_13 
REMARK    2  A    between atoms: N_13  and  S_14 
REMARK    3  A    between atoms: S_14  and  C_17 
ROOT
HETATM    1  C   UNK N   1      27.610  30.872  -4.785  0.00  0.00     0.049 C 
HETATM    2  C   UNK N   1      27.051  29.511  -4.941  0.00  0.00    -0.048 A 
HETATM    3  C   UNK N   1      26.135  29.022  -3.984  0.00  0.00     0.010 A 
HETATM    4  C   UNK N   1      25.779  27.665  -4.017  0.00  0.00     0.033 A 
HETATM    5  C   UNK N   1      26.317  26.866  -5.039  0.00  0.00     0.070 A 
HETATM    6  C   UNK N   1      27.078  27.375  -5.992  0.00  0.00     0.072 A 
HETATM    7  C   UNK N   1      27.480  28.640  -5.966  0.00  0.00     0.021 A 
HETATM    8  C   UNK N   1      28.358  28.740  -7.007  0.00  0.00     0.073 A 
HETATM    9  C   UNK N   1      28.426  27.510  -7.640  0.00  0.00     0.112 A 
HETATM   10  N   UNK N   1      27.628  26.657  -6.991  0.00  0.00    -0.362 N 
HETATM   11  C   UNK N   1      29.114  29.875  -7.342  0.00  0.00     0.102 C 
HETATM   12  N   UNK N   1      29.721  30.819  -7.595  0.00  0.00    -0.191 NA
HETATM   13  H   UNK N   1      27.476  25.708  -7.197  0.00  0.00     0.165 HD
ENDROOT
BRANCH   5  14
HETATM   14  N   UNK N   1      26.376  25.518  -4.989  0.00  0.00    -0.278 N 
HETATM   15  H   UNK N   1      25.812  24.982  -5.593  0.00  0.00     0.179 HD
BRANCH  14  16
HETATM   16  S   UNK N   1      27.380  24.765  -3.930  0.00  0.00     0.263 S 
HETATM   17  O   UNK N   1      26.484  24.192  -2.824  0.00  0.00    -0.200 OA
HETATM   18  O   UNK N   1      26.525  23.755  -4.723  0.00  0.00    -0.200 OA
BRANCH  16  19
HETATM   19  C   UNK N   1      28.467  23.666  -4.693  0.00  0.00     0.081 A 
HETATM   20  C   UNK N   1      28.283  23.139  -5.984  0.00  0.00     0.025 A 
HETATM   21  C   UNK N   1      29.119  22.095  -6.403  0.00  0.00     0.003 A 
HETATM   22  C   UNK N   1      30.106  21.604  -5.520  0.00  0.00     0.023 A 
HETATM   23  C   UNK N   1      30.256  22.211  -4.257  0.00  0.00     0.046 A 
HETATM   24  C   UNK N   1      29.450  23.215  -3.884  0.00  0.00     0.048 A 
HETATM   25  C   UNK N   1      31.216  21.919  -3.264  0.00  0.00     0.099 C 
HETATM   26  N   UNK N   1      31.919  21.817  -2.354  0.00  0.00    -0.191 NA
ENDBRANCH  16  19
ENDBRANCH  14  16
ENDBRANCH   5  14
TORSDOF 3
ENDMDL
MODEL 2
REMARK VINA RESULT:      -7.6      2.519      7.264
REMARK  3 active torsions:
REMARK  status: ('A' for Active; 'I' for Inactive)
REMARK    1  A    between atoms: C_5  and  N_13 
REMARK    2  A    between atoms: N_13  and  S_14 
REMARK    3  A    between atoms: S_14  and  C_17 
ROOT
HETATM    1  C   UNK N   1      31.644  20.017  -6.738  0.00  0.00     0.049 C 
HETATM    2  C   UNK N   1      30.618  20.906  -6.148  0.00  0.00    -0.048 A 
HETATM    3  C   UNK N   1      29.503  21.291  -6.924  0.00  0.00     0.010 A 
HETATM    4  C   UNK N   1      28.654  22.298  -6.440  0.00  0.00     0.033 A 
HETATM    5  C   UNK N   1      28.929  22.841  -5.175  0.00  0.00     0.070 A 
HETATM    6  C   UNK N   1      29.910  22.379  -4.417  0.00  0.00     0.072 A 
HETATM    7  C   UNK N   1      30.766  21.466  -4.861  0.00  0.00     0.021 A 
HETATM    8  C   UNK N   1      31.702  21.368  -3.872  0.00  0.00     0.073 A 
HETATM    9  C   UNK N   1      31.345  22.228  -2.846  0.00  0.00     0.112 A 
HETATM   10  N   UNK N   1      30.225  22.865  -3.202  0.00  0.00    -0.362 N 
HETATM   11  C   UNK N   1      32.865  20.582  -3.913  0.00  0.00     0.102 C 
HETATM   12  N   UNK N   1      33.811  19.929  -3.971  0.00  0.00    -0.191 NA
HETATM   13  H   UNK N   1      29.736  23.545  -2.686  0.00  0.00     0.165 HD
ENDROOT
BRANCH   5  14
HETATM   14  N   UNK N   1      28.458  24.031  -4.747  0.00  0.00    -0.278 N 
HETATM   15  H   UNK N   1      28.999  24.844  -4.871  0.00  0.00     0.179 HD
BRANCH  14  16
HETATM   16  S   UNK N   1      26.989  24.134  -4.020  0.00  0.00     0.263 S 
HETATM   17  O   UNK N   1      27.214  23.776  -2.544  0.00  0.00    -0.200 OA
HETATM   18  O   UNK N   1      27.929  25.272  -3.571  0.00  0.00    -0.200 OA
BRANCH  16  19
HETATM   19  C   UNK N   1      26.178  25.620  -4.341  0.00  0.00     0.081 A 
HETATM   20  C   UNK N   1      25.241  25.803  -5.376  0.00  0.00     0.025 A 
HETATM   21  C   UNK N   1      24.818  27.107  -5.668  0.00  0.00     0.003 A 
HETATM   22  C   UNK N   1      25.346  28.188  -4.926  0.00  0.00     0.023 A 
HETATM   23  C   UNK N   1      26.250  27.920  -3.879  0.00  0.00     0.046 A 
HETATM   24  C   UNK N   1      26.631  26.663  -3.613  0.00  0.00     0.048 A 
HETATM   25  C   UNK N   1      26.834  28.841  -2.983  0.00  0.00     0.099 C 
HETATM   26  N   UNK N   1      27.395  29.445  -2.174  0.00  0.00    -0.191 NA
ENDBRANCH  16  19
ENDBRANCH  14  16
ENDBRANCH   5  14
TORSDOF 3
ENDMDL
MODEL 3
REMARK VINA RESULT:      -7.4      1.774      1.970
REMARK  3 active torsions:
REMARK  status: ('A' for Active; 'I' for Inactive)
REMARK    1  A    between atoms: C_5  and  N_13 
REMARK    2  A    between atoms: N_13  and  S_14 
REMARK    3  A    between atoms: S_14  and  C_17 
ROOT
HETATM    1  C   UNK N   1      27.219  29.485  -4.720  0.00  0.00     0.049 C 
HETATM    2  C   UNK N   1      26.576  28.370  -5.452  0.00  0.00    -0.048 A 
HETATM    3  C   UNK N   1      25.477  27.701  -4.871  0.00  0.00     0.010 A 
HETATM    4  C   UNK N   1      25.014  26.516  -5.464  0.00  0.00     0.033 A 
HETATM    5  C   UNK N   1      25.639  26.080  -6.643  0.00  0.00     0.070 A 
HETATM    6  C   UNK N   1      26.587  26.789  -7.231  0.00  0.00     0.072 A 
HETATM    7  C   UNK N   1      27.089  27.885  -6.674  0.00  0.00     0.021 A 
HETATM    8  C   UNK N   1      28.129  28.234  -7.486  0.00  0.00     0.073 A 
HETATM    9  C   UNK N   1      28.192  27.325  -8.530  0.00  0.00     0.112 A 
HETATM   10  N   UNK N   1      27.227  26.418  -8.356  0.00  0.00    -0.362 N 
HETATM   11  C   UNK N   1      29.027  29.292  -7.268  0.00  0.00     0.102 C 
HETATM   12  N   UNK N   1      29.748  30.165  -7.066  0.00  0.00    -0.191 NA
HETATM   13  H   UNK N   1      27.028  25.642  -8.928  0.00  0.00     0.165 HD
ENDROOT
BRANCH   5  14
HETATM   14  N   UNK N   1      25.570  24.815  -7.108  0.00  0.00    -0.278 N 
HETATM   15  H   UNK N   1      25.290  24.651  -8.038  0.00  0.00     0.179 HD
BRANCH  14  16
HETATM   16  S   UNK N   1      25.950  23.546  -6.137  0.00  0.00     0.263 S 
HETATM   17  O   UNK N   1      24.958  22.429  -6.484  0.00  0.00    -0.200 OA
HETATM   18  O   UNK N   1      26.311  23.265  -7.610  0.00  0.00    -0.200 OA
BRANCH  16  19
HETATM   19  C   UNK N   1      27.624  23.138  -6.181  0.00  0.00     0.081 A 
HETATM   20  C   UNK N   1      28.180  22.170  -7.038  0.00  0.00     0.025 A 
HETATM   21  C   UNK N   1      29.509  21.778  -6.827  0.00  0.00     0.003 A 
HETATM   22  C   UNK N   1      30.240  22.357  -5.765  0.00  0.00     0.023 A 
HETATM   23  C   UNK N   1      29.626  23.350  -4.975  0.00  0.00     0.046 A 
HETATM   24  C   UNK N   1      28.357  23.714  -5.204  0.00  0.00     0.048 A 
HETATM   25  C   UNK N   1      30.199  24.093  -3.921  0.00  0.00     0.099 C 
HETATM   26  N   UNK N   1      30.500  24.786  -3.048  0.00  0.00    -0.191 NA
ENDBRANCH  16  19
ENDBRANCH  14  16
ENDBRANCH   5  14
TORSDOF 3
ENDMDL
MODEL 4
REMARK VINA RESULT:      -7.4     14.329     16.088
REMARK  3 active torsions:
REMARK  status: ('A' for Active; 'I' for Inactive)
REMARK    1  A    between atoms: C_5  and  N_13 
REMARK    2  A    between atoms: N_13  and  S_14 
REMARK    3  A    between atoms: S_14  and  C_17 
ROOT
HETATM    1  C   UNK N   1      20.107  17.235   0.166  0.00  0.00     0.049 C 
HETATM    2  C   UNK N   1      20.293  16.983   1.613  0.00  0.00    -0.048 A 
HETATM    3  C   UNK N   1      20.024  15.699   2.135  0.00  0.00     0.010 A 
HETATM    4  C   UNK N   1      19.992  15.525   3.527  0.00  0.00     0.033 A 
HETATM    5  C   UNK N   1      20.283  16.635   4.337  0.00  0.00     0.070 A 
HETATM    6  C   UNK N   1      20.649  17.796   3.822  0.00  0.00     0.072 A 
HETATM    7  C   UNK N   1      20.638  18.015   2.512  0.00  0.00     0.021 A 
HETATM    8  C   UNK N   1      20.918  19.345   2.387  0.00  0.00     0.073 A 
HETATM    9  C   UNK N   1      21.111  19.872   3.654  0.00  0.00     0.112 A 
HETATM   10  N   UNK N   1      20.931  18.895   4.547  0.00  0.00    -0.362 N 
HETATM   11  C   UNK N   1      20.940  20.074   1.186  0.00  0.00     0.102 C 
HETATM   12  N   UNK N   1      20.952  20.647   0.189  0.00  0.00    -0.191 NA
HETATM   13  H   UNK N   1      20.990  18.964   5.527  0.00  0.00     0.165 HD
ENDROOT
BRANCH   5  14
HETATM   14  N   UNK N   1      19.937  16.729   5.638  0.00  0.00    -0.278 N 
HETATM   15  H   UNK N   1      18.985  16.756   5.890  0.00  0.00     0.179 HD
BRANCH  14  16
HETATM   16  S   UNK N   1      21.090  16.798   6.806  0.00  0.00     0.263 S 
HETATM   17  O   UNK N   1      20.918  18.158   7.497  0.00  0.00    -0.200 OA
HETATM   18  O   UNK N   1      19.676  16.657   7.407  0.00  0.00    -0.200 OA
BRANCH  16  19
HETATM   19  C   UNK N   1      21.106  15.408   7.824  0.00  0.00     0.081 A 
HETATM   20  C   UNK N   1      20.183  15.174   8.859  0.00  0.00     0.025 A 
HETATM   21  C   UNK N   1      20.433  14.121   9.749  0.00  0.00     0.003 A 
HETATM   22  C   UNK N   1      21.598  13.339   9.585  0.00  0.00     0.023 A 
HETATM   23  C   UNK N   1      22.455  13.609   8.499  0.00  0.00     0.046 A 
HETATM   24  C   UNK N   1      22.187  14.617   7.656  0.00  0.00     0.048 A 
HETATM   25  C   UNK N   1      23.621  12.910   8.121  0.00  0.00     0.099 C 
HETATM   26  N   UNK N   1      24.585  12.462   7.671  0.00  0.00    -0.191 NA
ENDBRANCH  16  19
ENDBRANCH  14  16
ENDBRANCH   5  14
TORSDOF 3
ENDMDL
MODEL 5
REMARK VINA RESULT:      -7.4     15.751     19.830
REMARK  3 active torsions:
REMARK  status: ('A' for Active; 'I' for Inactive)
REMARK    1  A    between atoms: C_5  and  N_13 
REMARK    2  A    between atoms: N_13  and  S_14 
REMARK    3  A    between atoms: S_14  and  C_17 
ROOT
HETATM    1  C   UNK N   1      33.408  15.733   4.365  0.00  0.00     0.049 C 
HETATM    2  C   UNK N   1      33.899  15.745   5.761  0.00  0.00    -0.048 A 
HETATM    3  C   UNK N   1      35.095  15.066   6.083  0.00  0.00     0.010 A 
HETATM    4  C   UNK N   1      35.437  14.898   7.434  0.00  0.00     0.033 A 
HETATM    5  C   UNK N   1      34.594  15.463   8.404  0.00  0.00     0.070 A 
HETATM    6  C   UNK N   1      33.545  16.197   8.072  0.00  0.00     0.072 A 
HETATM    7  C   UNK N   1      33.158  16.333   6.809  0.00  0.00     0.021 A 
HETATM    8  C   UNK N   1      31.976  17.012   6.886  0.00  0.00     0.073 A 
HETATM    9  C   UNK N   1      31.713  17.279   8.220  0.00  0.00     0.112 A 
HETATM   10  N   UNK N   1      32.697  16.755   8.956  0.00  0.00    -0.362 N 
HETATM   11  C   UNK N   1      31.134  17.328   5.807  0.00  0.00     0.102 C 
HETATM   12  N   UNK N   1      30.463  17.575   4.906  0.00  0.00    -0.191 NA
HETATM   13  H   UNK N   1      32.783  16.773   9.936  0.00  0.00     0.165 HD
ENDROOT
BRANCH   5  14
HETATM   14  N   UNK N   1      34.575  15.084   9.699  0.00  0.00    -0.278 N 
HETATM   15  H   UNK N   1      33.717  14.864  10.131  0.00  0.00     0.179 HD
BRANCH  14  16
HETATM   16  S   UNK N   1      35.969  14.986  10.561  0.00  0.00     0.263 S 
HETATM   17  O   UNK N   1      36.441  16.430  10.777  0.00  0.00    -0.200 OA
HETATM   18  O   UNK N   1      34.814  15.561  11.407  0.00  0.00    -0.200 OA
BRANCH  16  19
HETATM   19  C   UNK N   1      35.828  13.999  11.966  0.00  0.00     0.081 A 
HETATM   20  C   UNK N   1      35.046  12.831  12.037  0.00  0.00     0.025 A 
HETATM   21  C   UNK N   1      34.844  12.241  13.292  0.00  0.00     0.003 A 
HETATM   22  C   UNK N   1      35.419  12.836  14.437  0.00  0.00     0.023 A 
HETATM   23  C   UNK N   1      36.223  13.983  14.280  0.00  0.00     0.046 A 
HETATM   24  C   UNK N   1      36.409  14.522  13.066  0.00  0.00     0.048 A 
HETATM   25  C   UNK N   1      36.937  14.683  15.275  0.00  0.00     0.099 C 
HETATM   26  N   UNK N   1      37.577  15.367  15.950  0.00  0.00    -0.191 NA
ENDBRANCH  16  19
ENDBRANCH  14  16
ENDBRANCH   5  14
TORSDOF 3
ENDMDL
MODEL 6
REMARK VINA RESULT:      -7.3     11.801     13.848
REMARK  3 active torsions:
REMARK  status: ('A' for Active; 'I' for Inactive)
REMARK    1  A    between atoms: C_5  and  N_13 
REMARK    2  A    between atoms: N_13  and  S_14 
REMARK    3  A    between atoms: S_14  and  C_17 
ROOT
HETATM    1  C   UNK N   1      28.438  18.715   8.525  0.00  0.00     0.049 C 
HETATM    2  C   UNK N   1      28.083  19.293   7.210  0.00  0.00    -0.048 A 
HETATM    3  C   UNK N   1      27.226  20.414   7.151  0.00  0.00     0.010 A 
HETATM    4  C   UNK N   1      26.723  20.819   5.906  0.00  0.00     0.033 A 
HETATM    5  C   UNK N   1      27.142  20.116   4.764  0.00  0.00     0.070 A 
HETATM    6  C   UNK N   1      28.038  19.147   4.834  0.00  0.00     0.072 A 
HETATM    7  C   UNK N   1      28.496  18.699   5.997  0.00  0.00     0.021 A 
HETATM    8  C   UNK N   1      29.261  17.618   5.669  0.00  0.00     0.073 A 
HETATM    9  C   UNK N   1      29.248  17.476   4.291  0.00  0.00     0.112 A 
HETATM   10  N   UNK N   1      28.470  18.433   3.777  0.00  0.00    -0.362 N 
HETATM   11  C   UNK N   1      29.900  16.754   6.574  0.00  0.00     0.102 C 
HETATM   12  N   UNK N   1      30.414  16.062   7.336  0.00  0.00    -0.191 NA
HETATM   13  H   UNK N   1      28.258  18.584   2.828  0.00  0.00     0.165 HD
ENDROOT
BRANCH   5  14
HETATM   14  N   UNK N   1      26.485  20.133   3.585  0.00  0.00    -0.278 N 
HETATM   15  H   UNK N   1      26.984  20.004   2.746  0.00  0.00     0.179 HD
BRANCH  14  16
HETATM   16  S   UNK N   1      24.860  20.369   3.538  0.00  0.00     0.263 S 
HETATM   17  O   UNK N   1      24.540  20.867   2.122  0.00  0.00    -0.200 OA
HETATM   18  O   UNK N   1      25.286  19.156   2.686  0.00  0.00    -0.200 OA
BRANCH  16  19
HETATM   19  C   UNK N   1      23.963  19.011   4.103  0.00  0.00     0.081 A 
HETATM   20  C   UNK N   1      24.526  17.921   4.793  0.00  0.00     0.025 A 
HETATM   21  C   UNK N   1      23.733  16.786   5.006  0.00  0.00     0.003 A 
HETATM   22  C   UNK N   1      22.407  16.767   4.519  0.00  0.00     0.023 A 
HETATM   23  C   UNK N   1      21.901  17.913   3.872  0.00  0.00     0.046 A 
HETATM   24  C   UNK N   1      22.677  18.991   3.690  0.00  0.00     0.048 A 
HETATM   25  C   UNK N   1      20.596  18.123   3.378  0.00  0.00     0.099 C 
HETATM   26  N   UNK N   1      19.591  18.464   2.924  0.00  0.00    -0.191 NA
ENDBRANCH  16  19
ENDBRANCH  14  16
ENDBRANCH   5  14
TORSDOF 3
ENDMDL
MODEL 7
REMARK VINA RESULT:      -7.3     13.480     16.798
REMARK  3 active torsions:
REMARK  status: ('A' for Active; 'I' for Inactive)
REMARK    1  A    between atoms: C_5  and  N_13 
REMARK    2  A    between atoms: N_13  and  S_14 
REMARK    3  A    between atoms: S_14  and  C_17 
ROOT
HETATM    1  C   UNK N   1      23.318  12.394   9.681  0.00  0.00     0.049 C 
HETATM    2  C   UNK N   1      23.653  13.239   8.513  0.00  0.00    -0.048 A 
HETATM    3  C   UNK N   1      24.946  13.168   7.952  0.00  0.00     0.010 A 
HETATM    4  C   UNK N   1      25.323  14.120   6.992  0.00  0.00     0.033 A 
HETATM    5  C   UNK N   1      24.369  15.072   6.597  0.00  0.00     0.070 A 
HETATM    6  C   UNK N   1      23.127  15.042   7.050  0.00  0.00     0.072 A 
HETATM    7  C   UNK N   1      22.748  14.192   7.997  0.00  0.00     0.021 A 
HETATM    8  C   UNK N   1      21.471  14.568   8.301  0.00  0.00     0.073 A 
HETATM    9  C   UNK N   1      21.126  15.635   7.488  0.00  0.00     0.112 A 
HETATM   10  N   UNK N   1      22.173  15.931   6.714  0.00  0.00    -0.362 N 
HETATM   11  C   UNK N   1      20.667  14.015   9.311  0.00  0.00     0.102 C 
HETATM   12  N   UNK N   1      20.028  13.544  10.144  0.00  0.00    -0.191 NA
HETATM   13  H   UNK N   1      22.236  16.648   6.042  0.00  0.00     0.165 HD
ENDROOT
BRANCH   5  14
HETATM   14  N   UNK N   1      24.675  16.240   5.994  0.00  0.00    -0.278 N 
HETATM   15  H   UNK N   1      24.476  17.091   6.448  0.00  0.00     0.179 HD
BRANCH  14  16
HETATM   16  S   UNK N   1      25.376  16.254   4.509  0.00  0.00     0.263 S 
HETATM   17  O   UNK N   1      24.382  15.573   3.559  0.00  0.00    -0.200 OA
HETATM   18  O   UNK N   1      24.176  17.219   4.582  0.00  0.00    -0.200 OA
BRANCH  16  19
HETATM   19  C   UNK N   1      25.948  17.812   4.046  0.00  0.00     0.081 A 
HETATM   20  C   UNK N   1      27.280  18.242   4.192  0.00  0.00     0.025 A 
HETATM   21  C   UNK N   1      27.570  19.597   3.980  0.00  0.00     0.003 A 
HETATM   22  C   UNK N   1      26.523  20.482   3.637  0.00  0.00     0.023 A 
HETATM   23  C   UNK N   1      25.221  19.968   3.469  0.00  0.00     0.046 A 
HETATM   24  C   UNK N   1      24.973  18.665   3.668  0.00  0.00     0.048 A 
HETATM   25  C   UNK N   1      24.062  20.663   3.065  0.00  0.00     0.099 C 
HETATM   26  N   UNK N   1      23.027  21.066   2.750  0.00  0.00    -0.191 NA
ENDBRANCH  16  19
ENDBRANCH  14  16
ENDBRANCH   5  14
TORSDOF 3
ENDMDL
MODEL 8
REMARK VINA RESULT:      -7.3      1.918      2.791
REMARK  3 active torsions:
REMARK  status: ('A' for Active; 'I' for Inactive)
REMARK    1  A    between atoms: C_5  and  N_13 
REMARK    2  A    between atoms: N_13  and  S_14 
REMARK    3  A    between atoms: S_14  and  C_17 
ROOT
HETATM    1  C   UNK N   1      28.608  28.063  -9.048  0.00  0.00     0.049 C 
HETATM    2  C   UNK N   1      27.817  27.568  -7.899  0.00  0.00    -0.048 A 
HETATM    3  C   UNK N   1      28.042  28.112  -6.616  0.00  0.00     0.010 A 
HETATM    4  C   UNK N   1      27.451  27.493  -5.503  0.00  0.00     0.033 A 
HETATM    5  C   UNK N   1      26.618  26.386  -5.730  0.00  0.00     0.070 A 
HETATM    6  C   UNK N   1      26.328  25.971  -6.951  0.00  0.00     0.072 A 
HETATM    7  C   UNK N   1      26.909  26.495  -8.024  0.00  0.00     0.021 A 
HETATM    8  C   UNK N   1      26.482  25.713  -9.059  0.00  0.00     0.073 A 
HETATM    9  C   UNK N   1      25.626  24.749  -8.552  0.00  0.00     0.112 A 
HETATM   10  N   UNK N   1      25.544  24.912  -7.229  0.00  0.00    -0.362 N 
HETATM   11  C   UNK N   1      26.889  25.823 -10.398  0.00  0.00     0.102 C 
HETATM   12  N   UNK N   1      27.239  25.934 -11.488  0.00  0.00    -0.191 NA
HETATM   13  H   UNK N   1      25.022  24.373  -6.592  0.00  0.00     0.165 HD
ENDROOT
BRANCH   5  14
HETATM   14  N   UNK N   1      26.292  25.483  -4.782  0.00  0.00    -0.278 N 
HETATM   15  H   UNK N   1      25.355  25.190  -4.687  0.00  0.00     0.179 HD
BRANCH  14  16
HETATM   16  S   UNK N   1      27.442  24.867  -3.785  0.00  0.00     0.263 S 
HETATM   17  O   UNK N   1      26.705  24.375  -2.532  0.00  0.00    -0.200 OA
HETATM   18  O   UNK N   1      26.545  23.759  -4.374  0.00  0.00    -0.200 OA
BRANCH  16  19
HETATM   19  C   UNK N   1      28.480  23.735  -4.567  0.00  0.00     0.081 A 
HETATM   20  C   UNK N   1      28.251  23.208  -5.851  0.00  0.00     0.025 A 
HETATM   21  C   UNK N   1      29.048  22.139  -6.284  0.00  0.00     0.003 A 
HETATM   22  C   UNK N   1      30.042  21.624  -5.421  0.00  0.00     0.023 A 
HETATM   23  C   UNK N   1      30.238  22.233  -4.165  0.00  0.00     0.046 A 
HETATM   24  C   UNK N   1      29.469  23.261  -3.779  0.00  0.00     0.048 A 
HETATM   25  C   UNK N   1      31.212  21.919  -3.194  0.00  0.00     0.099 C 
HETATM   26  N   UNK N   1      31.933  21.802  -2.300  0.00  0.00    -0.191 NA
ENDBRANCH  16  19
ENDBRANCH  14  16
ENDBRANCH   5  14
TORSDOF 3
ENDMDL
MODEL 9
REMARK VINA RESULT:      -7.3     14.437     19.306
REMARK  3 active torsions:
REMARK  status: ('A' for Active; 'I' for Inactive)
REMARK    1  A    between atoms: C_5  and  N_13 
REMARK    2  A    between atoms: N_13  and  S_14 
REMARK    3  A    between atoms: S_14  and  C_17 
ROOT
HETATM    1  C   UNK N   1      34.925  11.581  10.832  0.00  0.00     0.049 C 
HETATM    2  C   UNK N   1      34.637  12.897  10.221  0.00  0.00    -0.048 A 
HETATM    3  C   UNK N   1      34.018  12.954   8.953  0.00  0.00     0.010 A 
HETATM    4  C   UNK N   1      33.946  14.188   8.288  0.00  0.00     0.033 A 
HETATM    5  C   UNK N   1      34.452  15.322   8.944  0.00  0.00     0.070 A 
HETATM    6  C   UNK N   1      34.919  15.261  10.180  0.00  0.00     0.072 A 
HETATM    7  C   UNK N   1      35.053  14.106  10.821  0.00  0.00     0.021 A 
HETATM    8  C   UNK N   1      35.699  14.432  11.978  0.00  0.00     0.073 A 
HETATM    9  C   UNK N   1      35.907  15.802  11.991  0.00  0.00     0.112 A 
HETATM   10  N   UNK N   1      35.424  16.311  10.855  0.00  0.00    -0.362 N 
HETATM   11  C   UNK N   1      36.140  13.529  12.959  0.00  0.00     0.102 C 
HETATM   12  N   UNK N   1      36.489  12.768  13.748  0.00  0.00    -0.191 NA
HETATM   13  H   UNK N   1      35.435  17.253  10.571  0.00  0.00     0.165 HD
ENDROOT
BRANCH   5  14
HETATM   14  N   UNK N   1      34.792  16.467   8.315  0.00  0.00    -0.278 N 
HETATM   15  H   UNK N   1      35.720  16.600   8.011  0.00  0.00     0.179 HD
BRANCH  14  16
HETATM   16  S   UNK N   1      33.673  17.639   8.053  0.00  0.00     0.263 S 
HETATM   17  O   UNK N   1      34.412  18.977   8.193  0.00  0.00    -0.200 OA
HETATM   18  O   UNK N   1      34.687  17.549   6.894  0.00  0.00    -0.200 OA
BRANCH  16  19
HETATM   19  C   UNK N   1      32.770  17.401   6.605  0.00  0.00     0.081 A 
HETATM   20  C   UNK N   1      33.290  17.577   5.309  0.00  0.00     0.025 A 
HETATM   21  C   UNK N   1      32.401  17.563   4.226  0.00  0.00     0.003 A 
HETATM   22  C   UNK N   1      31.020  17.383   4.468  0.00  0.00     0.023 A 
HETATM   23  C   UNK N   1      30.580  17.173   5.791  0.00  0.00     0.046 A 
HETATM   24  C   UNK N   1      31.453  17.180   6.808  0.00  0.00     0.048 A 
HETATM   25  C   UNK N   1      29.267  16.908   6.234  0.00  0.00     0.099 C 
HETATM   26  N   UNK N   1      28.268  16.683   6.768  0.00  0.00    -0.191 NA
ENDBRANCH  16  19
ENDBRANCH  14  16
ENDBRANCH   5  14
TORSDOF 3
ENDMDL
