REMARK  17 active torsions:
REMARK  status: ('A' for Active; 'I' for Inactive)
REMARK    1  A    between atoms: C_2  and  O_3 
REMARK    2  A    between atoms: O_3  and  C_4 
REMARK    3  A    between atoms: C_4  and  C_6 
REMARK    4  A    between atoms: C_6  and  N_8 
REMARK    5  A    between atoms: N_8  and  P_9 
REMARK    6  A    between atoms: P_9  and  C_11 
REMARK    7  A    between atoms: P_9  and  N_32 
REMARK    8  A    between atoms: C_11  and  O_12 
REMARK    9  A    between atoms: O_12  and  C_13 
REMARK   10  A    between atoms: C_13  and  C_14 
REMARK   11  A    between atoms: C_14  and  N_15 
REMARK       I    between atoms: C_23  and  N_31 
REMARK   12  A    between atoms: C_26  and  N_27 
REMARK   13  A    between atoms: N_27  and  C_28 
REMARK   14  A    between atoms: N_32  and  C_33 
REMARK   15  A    between atoms: C_33  and  C_35 
REMARK   16  A    between atoms: C_35  and  O_37 
REMARK   17  A    between atoms: O_37  and  C_38 
ROOT
HETATM    1  O   UNK N   1      -1.329   1.287  -0.215  0.00  0.00    -0.379 OA
ENDROOT
BRANCH   1   2
HETATM    2  C   UNK N   1      -2.521   1.506  -0.937  0.00  0.00     0.284 C 
BRANCH   2   3
HETATM    3  P   UNK N   1      -3.654   2.769  -0.147  0.00  0.00     0.272 P 
HETATM    4  O   UNK N   1      -4.416   1.903   0.892  0.00  0.00    -0.273 OA
BRANCH   3   5
HETATM    5  N   UNK N   1      -5.049   3.413  -1.107  0.00  0.00    -0.341 N 
HETATM    6  H   UNK N   1      -5.305   3.040  -2.022  0.00  0.00     0.163 HD
BRANCH   5   7
HETATM    7  C   UNK N   1      -5.783   4.513  -0.469  0.00  0.00     0.180 C 
HETATM    8  C   UNK N   1      -5.974   4.353   1.039  0.00  0.00     0.043 C 
BRANCH   7   9
HETATM    9  C   UNK N   1      -5.215   5.855  -0.862  0.00  0.00     0.281 C 
HETATM   10  O   UNK N   1      -4.186   5.905  -1.516  0.00  0.00    -0.263 OA
BRANCH   9  11
HETATM   11  O   UNK N   1      -5.860   7.011  -0.573  0.00  0.00    -0.320 OA
BRANCH  11  12
HETATM   12  C   UNK N   1      -7.083   7.056   0.052  0.00  0.00     0.174 C 
HETATM   13  C   UNK N   1      -7.622   8.467  -0.012  0.00  0.00     0.034 C 
ENDBRANCH  11  12
ENDBRANCH   9  11
ENDBRANCH   7   9
ENDBRANCH   5   7
ENDBRANCH   3   5
BRANCH   3  14
HETATM   14  N   UNK N   1      -2.867   3.963   0.970  0.00  0.00    -0.341 N 
HETATM   15  H   UNK N   1      -2.919   3.881   1.985  0.00  0.00     0.163 HD
BRANCH  14  16
HETATM   16  C   UNK N   1      -2.153   5.050   0.304  0.00  0.00     0.180 C 
HETATM   17  C   UNK N   1      -2.000   6.157   1.333  0.00  0.00     0.043 C 
BRANCH  16  18
HETATM   18  C   UNK N   1      -0.762   4.690  -0.197  0.00  0.00     0.281 C 
HETATM   19  O   UNK N   1      -0.282   3.600   0.047  0.00  0.00    -0.263 OA
BRANCH  18  20
HETATM   20  O   UNK N   1      -0.004   5.587  -0.878  0.00  0.00    -0.320 OA
BRANCH  20  21
HETATM   21  C   UNK N   1      -0.440   6.850  -1.200  0.00  0.00     0.174 C 
HETATM   22  C   UNK N   1       0.310   7.866  -0.361  0.00  0.00     0.034 C 
ENDBRANCH  20  21
ENDBRANCH  18  20
ENDBRANCH  16  18
ENDBRANCH  14  16
ENDBRANCH   3  14
ENDBRANCH   2   3
ENDBRANCH   1   2
BRANCH   1  23
HETATM   23  C   UNK N   1      -1.594   1.250   1.168  0.00  0.00     0.188 C 
BRANCH  23  24
HETATM   24  C   UNK N   1      -0.335   0.908   1.927  0.00  0.00     0.157 C 
BRANCH  24  25
HETATM   25  N   UNK N   1       0.119  -0.360   1.412  0.00  0.00    -0.325 N 
HETATM   26  C   UNK N   1      -0.616  -1.494   1.344  0.00  0.00     0.185 A 
HETATM   27  N   UNK N   1       0.069  -2.479   0.715  0.00  0.00    -0.346 N 
HETATM   28  C   UNK N   1       1.250  -1.917   0.400  0.00  0.00     0.123 A 
ATOM     29  HN  UNK N   1      -0.241  -3.432   0.524  1.00  0.00     0.167 HD
HETATM   30  C   UNK N   1       1.280  -0.643   0.823  0.00  0.00     0.155 A 
HETATM   31  C   UNK N   1       2.335  -2.455  -0.276  0.00  0.00     0.148 A 
HETATM   32  N   UNK N   1       2.342   0.172   0.630  0.00  0.00    -0.174 N 
HETATM   33  C   UNK N   1       3.432  -0.344  -0.023  0.00  0.00     0.679 A 
ATOM     34  HN  UNK N   1       2.333   1.137   0.959  1.00  0.00     0.186 HD
HETATM   35  N   UNK N   1       3.418  -1.644  -0.478  0.00  0.00    -0.175 N 
HETATM   36  N   UNK N   1       4.573   0.457  -0.221  0.00  0.00    -0.234 N 
ATOM     37  HN  UNK N   1       4.231  -2.009  -0.975  1.00  0.00     0.186 HD
HETATM   38  H   UNK N   1       5.457   0.046  -0.359  0.00  0.00     0.174 HD
HETATM   39  H   UNK N   1       4.486   1.438  -0.221  0.00  0.00     0.174 HD
BRANCH  31  40
HETATM   40  N   UNK N   1       2.328  -3.790  -0.760  0.00  0.00    -0.369 N 
HETATM   41  H   UNK N   1       3.027  -4.074  -1.392  0.00  0.00     0.161 HD
BRANCH  40  42
HETATM   42  C   UNK N   1       1.321  -4.741  -0.349  0.00  0.00     0.083 A 
HETATM   43  C   UNK N   1       1.371  -5.956  -1.246  0.00  0.00     0.027 A 
HETATM   44  C   UNK N   1       0.293  -4.913  -1.448  0.00  0.00     0.027 A 
ENDBRANCH  40  42
ENDBRANCH  31  40
ENDBRANCH  24  25
ENDBRANCH  23  24
ENDBRANCH   1  23
TORSDOF 17
