MODEL 1
REMARK VINA RESULT:      -5.9      0.000      0.000
REMARK  2 active torsions:
REMARK  status: ('A' for Active; 'I' for Inactive)
REMARK    1  A    between atoms: S_17  and  C_8 
REMARK    2  A    between atoms: S_17  and  C_12 
ROOT
HETATM    1  C   UNK N   1      34.769  12.414  16.193  0.00  0.00     0.051 A 
HETATM    2  C   UNK N   1      36.683  13.488  14.475  0.00  0.00     0.046 A 
HETATM    3  C   UNK N   1      35.540  13.503  16.609  0.00  0.00     0.057 A 
HETATM    4  C   UNK N   1      36.502  14.044  15.742  0.00  0.00     0.057 A 
HETATM    5  C   UNK N   1      34.941  11.861  14.920  0.00  0.00     0.052 A 
HETATM    6  C   UNK N   1      35.915  12.398  14.049  0.00  0.00     0.029 A 
HETATM    7 Cl   UNK N   1      35.269  14.179  18.208  0.00  0.00    -0.082 Cl
HETATM    8 Cl   UNK N   1      37.475  15.431  16.209  0.00  0.00    -0.083 Cl
HETATM    9 Cl   UNK N   1      33.898  10.526  14.454  0.00  0.00    -0.083 Cl
ENDROOT
BRANCH   6  10
HETATM   10  S   UNK N   1      36.168  11.819  12.357  0.00  0.00    -0.089 SA
BRANCH  10  11
HETATM   11  C   UNK N   1      35.827  13.321  11.431  0.00  0.00     0.005 A 
HETATM   12  C   UNK N   1      36.781  13.903  10.585  0.00  0.00     0.020 A 
HETATM   13  C   UNK N   1      36.475  15.085   9.897  0.00  0.00     0.025 A 
HETATM   14  C   UNK N   1      35.224  15.690  10.063  0.00  0.00     0.034 A 
HETATM   15  C   UNK N   1      34.279  15.115  10.914  0.00  0.00     0.025 A 
HETATM   16 Cl   UNK N   1      34.838  17.169   9.210  0.00  0.00    -0.084 Cl
HETATM   17  C   UNK N   1      34.580  13.935  11.596  0.00  0.00     0.020 A 
ENDBRANCH  10  11
ENDBRANCH   6  10
TORSDOF 2
ENDMDL
MODEL 2
REMARK VINA RESULT:      -5.8      8.316     11.008
REMARK  2 active torsions:
REMARK  status: ('A' for Active; 'I' for Inactive)
REMARK    1  A    between atoms: S_17  and  C_8 
REMARK    2  A    between atoms: S_17  and  C_12 
ROOT
HETATM    1  C   UNK N   1      31.741  17.948   8.436  0.00  0.00     0.051 A 
HETATM    2  C   UNK N   1      30.358  16.823   6.292  0.00  0.00     0.046 A 
HETATM    3  C   UNK N   1      32.437  17.563   7.286  0.00  0.00     0.057 A 
HETATM    4  C   UNK N   1      31.740  17.000   6.207  0.00  0.00     0.057 A 
HETATM    5  C   UNK N   1      30.354  17.781   8.520  0.00  0.00     0.052 A 
HETATM    6  C   UNK N   1      29.652  17.205   7.438  0.00  0.00     0.029 A 
HETATM    7 Cl   UNK N   1      34.175  17.817   7.218  0.00  0.00    -0.082 Cl
HETATM    8 Cl   UNK N   1      32.569  16.529   4.731  0.00  0.00    -0.083 Cl
HETATM    9 Cl   UNK N   1      29.546  18.335   9.978  0.00  0.00    -0.083 Cl
ENDROOT
BRANCH   6  10
HETATM   10  S   UNK N   1      27.856  17.018   7.404  0.00  0.00    -0.089 SA
BRANCH  10  11
HETATM   11  C   UNK N   1      27.424  18.146   6.073  0.00  0.00     0.005 A 
HETATM   12  C   UNK N   1      27.756  19.507   6.118  0.00  0.00     0.020 A 
HETATM   13  C   UNK N   1      27.383  20.351   5.064  0.00  0.00     0.025 A 
HETATM   14  C   UNK N   1      26.670  19.840   3.974  0.00  0.00     0.034 A 
HETATM   15  C   UNK N   1      26.331  18.486   3.935  0.00  0.00     0.025 A 
HETATM   16 Cl   UNK N   1      26.197  20.891   2.656  0.00  0.00    -0.084 Cl
HETATM   17  C   UNK N   1      26.707  17.643   4.982  0.00  0.00     0.020 A 
ENDBRANCH  10  11
ENDBRANCH   6  10
TORSDOF 2
ENDMDL
MODEL 3
REMARK VINA RESULT:      -5.8      4.556      8.506
REMARK  2 active torsions:
REMARK  status: ('A' for Active; 'I' for Inactive)
REMARK    1  A    between atoms: S_17  and  C_8 
REMARK    2  A    between atoms: S_17  and  C_12 
ROOT
HETATM    1  C   UNK N   1      30.876  17.046   6.117  0.00  0.00     0.051 A 
HETATM    2  C   UNK N   1      31.596  17.989   8.639  0.00  0.00     0.046 A 
HETATM    3  C   UNK N   1      29.883  17.388   7.039  0.00  0.00     0.057 A 
HETATM    4  C   UNK N   1      30.246  17.864   8.307  0.00  0.00     0.057 A 
HETATM    5  C   UNK N   1      32.230  17.179   6.443  0.00  0.00     0.052 A 
HETATM    6  C   UNK N   1      32.598  17.650   7.723  0.00  0.00     0.029 A 
HETATM    7 Cl   UNK N   1      28.196  17.227   6.573  0.00  0.00    -0.082 Cl
HETATM    8 Cl   UNK N   1      29.033  18.334   9.488  0.00  0.00    -0.083 Cl
HETATM    9 Cl   UNK N   1      33.417  16.775   5.213  0.00  0.00    -0.083 Cl
ENDROOT
BRANCH   6  10
HETATM   10  S   UNK N   1      34.309  17.939   8.224  0.00  0.00    -0.089 SA
BRANCH  10  11
HETATM   11  C   UNK N   1      34.544  16.607   9.407  0.00  0.00     0.005 A 
HETATM   12  C   UNK N   1      33.944  15.352   9.241  0.00  0.00     0.020 A 
HETATM   13  C   UNK N   1      34.144  14.350  10.199  0.00  0.00     0.025 A 
HETATM   14  C   UNK N   1      34.931  14.605  11.328  0.00  0.00     0.034 A 
HETATM   15  C   UNK N   1      35.519  15.859  11.498  0.00  0.00     0.025 A 
HETATM   16 Cl   UNK N   1      35.179  13.359  12.532  0.00  0.00    -0.084 Cl
HETATM   17  C   UNK N   1      35.326  16.856  10.541  0.00  0.00     0.020 A 
ENDBRANCH  10  11
ENDBRANCH   6  10
TORSDOF 2
ENDMDL
MODEL 4
REMARK VINA RESULT:      -5.5      7.105     10.116
REMARK  2 active torsions:
REMARK  status: ('A' for Active; 'I' for Inactive)
REMARK    1  A    between atoms: S_17  and  C_8 
REMARK    2  A    between atoms: S_17  and  C_12 
ROOT
HETATM    1  C   UNK N   1      33.397  17.270   6.502  0.00  0.00     0.051 A 
HETATM    2  C   UNK N   1      31.203  15.827   7.436  0.00  0.00     0.046 A 
HETATM    3  C   UNK N   1      33.467  16.628   7.742  0.00  0.00     0.057 A 
HETATM    4  C   UNK N   1      32.363  15.900   8.210  0.00  0.00     0.057 A 
HETATM    5  C   UNK N   1      32.240  17.191   5.720  0.00  0.00     0.052 A 
HETATM    6  C   UNK N   1      31.123  16.466   6.194  0.00  0.00     0.029 A 
HETATM    7 Cl   UNK N   1      34.952  16.735   8.675  0.00  0.00    -0.082 Cl
HETATM    8 Cl   UNK N   1      32.414  15.051   9.748  0.00  0.00    -0.083 Cl
HETATM    9 Cl   UNK N   1      32.249  17.985   4.153  0.00  0.00    -0.083 Cl
ENDROOT
BRANCH   6  10
HETATM   10  S   UNK N   1      29.610  16.228   5.236  0.00  0.00    -0.089 SA
BRANCH  10  11
HETATM   11  C   UNK N   1      28.784  17.800   5.514  0.00  0.00     0.005 A 
HETATM   12  C   UNK N   1      28.416  18.642   4.456  0.00  0.00     0.020 A 
HETATM   13  C   UNK N   1      27.789  19.865   4.723  0.00  0.00     0.025 A 
HETATM   14  C   UNK N   1      27.540  20.253   6.045  0.00  0.00     0.034 A 
HETATM   15  C   UNK N   1      27.917  19.418   7.099  0.00  0.00     0.025 A 
HETATM   16 Cl   UNK N   1      26.762  21.783   6.386  0.00  0.00    -0.084 Cl
HETATM   17  C   UNK N   1      28.537  18.196   6.833  0.00  0.00     0.020 A 
ENDBRANCH  10  11
ENDBRANCH   6  10
TORSDOF 2
ENDMDL
MODEL 5
REMARK VINA RESULT:      -5.4      8.160     11.709
REMARK  2 active torsions:
REMARK  status: ('A' for Active; 'I' for Inactive)
REMARK    1  A    between atoms: S_17  and  C_8 
REMARK    2  A    between atoms: S_17  and  C_12 
ROOT
HETATM    1  C   UNK N   1      26.907  18.286   4.411  0.00  0.00     0.051 A 
HETATM    2  C   UNK N   1      27.564  19.492   6.836  0.00  0.00     0.046 A 
HETATM    3  C   UNK N   1      26.817  19.675   4.542  0.00  0.00     0.057 A 
HETATM    4  C   UNK N   1      27.151  20.281   5.762  0.00  0.00     0.057 A 
HETATM    5  C   UNK N   1      27.331  17.493   5.483  0.00  0.00     0.052 A 
HETATM    6  C   UNK N   1      27.658  18.101   6.716  0.00  0.00     0.029 A 
HETATM    7 Cl   UNK N   1      26.304  20.630   3.159  0.00  0.00    -0.082 Cl
HETATM    8 Cl   UNK N   1      27.082  22.025   5.965  0.00  0.00    -0.083 Cl
HETATM    9 Cl   UNK N   1      27.464  15.761   5.223  0.00  0.00    -0.083 Cl
ENDROOT
BRANCH   6  10
HETATM   10  S   UNK N   1      28.293  17.187   8.138  0.00  0.00    -0.089 SA
BRANCH  10  11
HETATM   11  C   UNK N   1      30.060  17.249   7.818  0.00  0.00     0.005 A 
HETATM   12  C   UNK N   1      30.645  16.555   6.750  0.00  0.00     0.020 A 
HETATM   13  C   UNK N   1      32.030  16.621   6.550  0.00  0.00     0.025 A 
HETATM   14  C   UNK N   1      32.831  17.368   7.421  0.00  0.00     0.034 A 
HETATM   15  C   UNK N   1      32.248  18.051   8.491  0.00  0.00     0.025 A 
HETATM   16 Cl   UNK N   1      34.562  17.450   7.180  0.00  0.00    -0.084 Cl
HETATM   17  C   UNK N   1      30.868  17.991   8.687  0.00  0.00     0.020 A 
ENDBRANCH  10  11
ENDBRANCH   6  10
TORSDOF 2
ENDMDL
MODEL 6
REMARK VINA RESULT:      -5.4     20.965     23.493
REMARK  2 active torsions:
REMARK  status: ('A' for Active; 'I' for Inactive)
REMARK    1  A    between atoms: S_17  and  C_8 
REMARK    2  A    between atoms: S_17  and  C_12 
ROOT
HETATM    1  C   UNK N   1      28.867  22.545  -6.258  0.00  0.00     0.051 A 
HETATM    2  C   UNK N   1      27.994  24.073  -4.097  0.00  0.00     0.046 A 
HETATM    3  C   UNK N   1      29.650  22.623  -5.103  0.00  0.00     0.057 A 
HETATM    4  C   UNK N   1      29.209  23.390  -4.015  0.00  0.00     0.057 A 
HETATM    5  C   UNK N   1      27.645  23.221  -6.340  0.00  0.00     0.052 A 
HETATM    6  C   UNK N   1      27.203  24.002  -5.248  0.00  0.00     0.029 A 
HETATM    7 Cl   UNK N   1      31.166  21.736  -5.039  0.00  0.00    -0.082 Cl
HETATM    8 Cl   UNK N   1      30.145  23.494  -2.531  0.00  0.00    -0.083 Cl
HETATM    9 Cl   UNK N   1      26.697  23.033  -7.806  0.00  0.00    -0.083 Cl
ENDROOT
BRANCH   6  10
HETATM   10  S   UNK N   1      25.608  24.848  -5.210  0.00  0.00    -0.089 SA
BRANCH  10  11
HETATM   11  C   UNK N   1      26.137  26.563  -5.129  0.00  0.00     0.005 A 
HETATM   12  C   UNK N   1      26.912  27.149  -6.140  0.00  0.00     0.020 A 
HETATM   13  C   UNK N   1      27.314  28.486  -6.024  0.00  0.00     0.025 A 
HETATM   14  C   UNK N   1      26.954  29.232  -4.896  0.00  0.00     0.034 A 
HETATM   15  C   UNK N   1      26.192  28.644  -3.885  0.00  0.00     0.025 A 
HETATM   16 Cl   UNK N   1      27.459  30.901  -4.743  0.00  0.00    -0.084 Cl
HETATM   17  C   UNK N   1      25.785  27.315  -4.002  0.00  0.00     0.020 A 
ENDBRANCH  10  11
ENDBRANCH   6  10
TORSDOF 2
ENDMDL
MODEL 7
REMARK VINA RESULT:      -5.3     15.433     18.326
REMARK  2 active torsions:
REMARK  status: ('A' for Active; 'I' for Inactive)
REMARK    1  A    between atoms: S_17  and  C_8 
REMARK    2  A    between atoms: S_17  and  C_12 
ROOT
HETATM    1  C   UNK N   1      20.074  17.946   1.934  0.00  0.00     0.051 A 
HETATM    2  C   UNK N   1      21.980  16.161   2.911  0.00  0.00     0.046 A 
HETATM    3  C   UNK N   1      20.195  16.677   1.359  0.00  0.00     0.057 A 
HETATM    4  C   UNK N   1      21.153  15.779   1.853  0.00  0.00     0.057 A 
HETATM    5  C   UNK N   1      20.895  18.328   3.001  0.00  0.00     0.052 A 
HETATM    6  C   UNK N   1      21.867  17.428   3.493  0.00  0.00     0.029 A 
HETATM    7 Cl   UNK N   1      19.124  16.234   0.039  0.00  0.00    -0.082 Cl
HETATM    8 Cl   UNK N   1      21.322  14.164   1.182  0.00  0.00    -0.083 Cl
HETATM    9 Cl   UNK N   1      20.647  19.920   3.700  0.00  0.00    -0.083 Cl
ENDROOT
BRANCH   6  10
HETATM   10  S   UNK N   1      22.922  17.783   4.916  0.00  0.00    -0.089 SA
BRANCH  10  11
HETATM   11  C   UNK N   1      22.060  16.882   6.209  0.00  0.00     0.005 A 
HETATM   12  C   UNK N   1      20.934  17.409   6.857  0.00  0.00     0.020 A 
HETATM   13  C   UNK N   1      20.305  16.676   7.871  0.00  0.00     0.025 A 
HETATM   14  C   UNK N   1      20.806  15.424   8.246  0.00  0.00     0.034 A 
HETATM   15  C   UNK N   1      21.934  14.904   7.608  0.00  0.00     0.025 A 
HETATM   16 Cl   UNK N   1      20.028  14.506   9.517  0.00  0.00    -0.084 Cl
HETATM   17  C   UNK N   1      22.558  15.632   6.593  0.00  0.00     0.020 A 
ENDBRANCH  10  11
ENDBRANCH   6  10
TORSDOF 2
ENDMDL
MODEL 8
REMARK VINA RESULT:      -5.3     19.500     23.763
REMARK  2 active torsions:
REMARK  status: ('A' for Active; 'I' for Inactive)
REMARK    1  A    between atoms: S_17  and  C_8 
REMARK    2  A    between atoms: S_17  and  C_12 
ROOT
HETATM    1  C   UNK N   1      26.073  26.086  -7.704  0.00  0.00     0.051 A 
HETATM    2  C   UNK N   1      26.117  24.025  -5.828  0.00  0.00     0.046 A 
HETATM    3  C   UNK N   1      25.779  24.779  -8.103  0.00  0.00     0.057 A 
HETATM    4  C   UNK N   1      25.799  23.744  -7.158  0.00  0.00     0.057 A 
HETATM    5  C   UNK N   1      26.383  26.374  -6.371  0.00  0.00     0.052 A 
HETATM    6  C   UNK N   1      26.413  25.330  -5.419  0.00  0.00     0.029 A 
HETATM    7 Cl   UNK N   1      25.370  24.473  -9.785  0.00  0.00    -0.082 Cl
HETATM    8 Cl   UNK N   1      25.407  22.090  -7.606  0.00  0.00    -0.083 Cl
HETATM    9 Cl   UNK N   1      26.693  28.048  -5.940  0.00  0.00    -0.083 Cl
ENDROOT
BRANCH   6  10
HETATM   10  S   UNK N   1      26.719  25.596  -3.658  0.00  0.00    -0.089 SA
BRANCH  10  11
HETATM   11  C   UNK N   1      28.163  24.555  -3.406  0.00  0.00     0.005 A 
HETATM   12  C   UNK N   1      28.180  23.529  -2.451  0.00  0.00     0.020 A 
HETATM   13  C   UNK N   1      29.334  22.755  -2.279  0.00  0.00     0.025 A 
HETATM   14  C   UNK N   1      30.474  23.013  -3.050  0.00  0.00     0.034 A 
HETATM   15  C   UNK N   1      30.459  24.043  -3.992  0.00  0.00     0.025 A 
HETATM   16 Cl   UNK N   1      31.922  22.053  -2.835  0.00  0.00    -0.084 Cl
HETATM   17  C   UNK N   1      29.308  24.811  -4.169  0.00  0.00     0.020 A 
ENDBRANCH  10  11
ENDBRANCH   6  10
TORSDOF 2
ENDMDL
MODEL 9
REMARK VINA RESULT:      -5.3      1.991      3.039
REMARK  2 active torsions:
REMARK  status: ('A' for Active; 'I' for Inactive)
REMARK    1  A    between atoms: S_17  and  C_8 
REMARK    2  A    between atoms: S_17  and  C_12 
ROOT
HETATM    1  C   UNK N   1      34.546  11.027  12.352  0.00  0.00     0.051 A 
HETATM    2  C   UNK N   1      36.241  13.082  13.172  0.00  0.00     0.046 A 
HETATM    3  C   UNK N   1      34.507  11.471  13.677  0.00  0.00     0.057 A 
HETATM    4  C   UNK N   1      35.358  12.508  14.087  0.00  0.00     0.057 A 
HETATM    5  C   UNK N   1      35.423  11.608  11.429  0.00  0.00     0.052 A 
HETATM    6  C   UNK N   1      36.288  12.645  11.843  0.00  0.00     0.029 A 
HETATM    7 Cl   UNK N   1      33.370  10.727  14.792  0.00  0.00    -0.082 Cl
HETATM    8 Cl   UNK N   1      35.323  13.119  15.734  0.00  0.00    -0.083 Cl
HETATM    9 Cl   UNK N   1      35.377  11.027   9.772  0.00  0.00    -0.083 Cl
ENDROOT
BRANCH   6  10
HETATM   10  S   UNK N   1      37.400  13.522  10.722  0.00  0.00    -0.089 SA
BRANCH  10  11
HETATM   11  C   UNK N   1      36.280  14.740  10.021  0.00  0.00     0.005 A 
HETATM   12  C   UNK N   1      35.688  14.566   8.763  0.00  0.00     0.020 A 
HETATM   13  C   UNK N   1      34.835  15.552   8.250  0.00  0.00     0.025 A 
HETATM   14  C   UNK N   1      34.582  16.714   8.988  0.00  0.00     0.034 A 
HETATM   15  C   UNK N   1      35.181  16.891  10.237  0.00  0.00     0.025 A 
HETATM   16 Cl   UNK N   1      33.521  17.952   8.351  0.00  0.00    -0.084 Cl
HETATM   17  C   UNK N   1      36.027  15.908  10.750  0.00  0.00     0.020 A 
ENDBRANCH  10  11
ENDBRANCH   6  10
TORSDOF 2
ENDMDL
