REMARK  6 active torsions:
REMARK  status: ('A' for Active; 'I' for Inactive)
REMARK    1  A    between atoms: C_2  and  C_4 
REMARK    2  A    between atoms: C_7  and  C_10 
REMARK    3  A    between atoms: C_13  and  O_36 
REMARK    4  A    between atoms: N_17  and  C_22 
REMARK    5  A    between atoms: C_22  and  C_23 
REMARK    6  A    between atoms: O_36  and  C_37 
ROOT
HETATM    1  C   UNK N   1      -6.873   4.072  -0.031  0.00  0.00     0.268 C 
HETATM    2  C   UNK N   1      -5.948   5.067   0.528  0.00  0.00    -0.091 C 
HETATM    3  C   UNK N   1      -5.175   5.898   0.933  0.00  0.00     0.014 C 
ENDROOT
BRANCH   1   4
HETATM    4  O   UNK N   1      -6.585   2.773   0.360  0.00  0.00    -0.340 OA
BRANCH   4   5
HETATM    5  C   UNK N   1      -5.423   2.117   0.098  0.00  0.00     0.070 A 
HETATM    6  C   UNK N   1      -5.434   0.722   0.000  0.00  0.00     0.053 A 
HETATM    7  C   UNK N   1      -4.271   0.004  -0.335  0.00  0.00     0.021 A 
HETATM    8  C   UNK N   1      -4.272  -1.405  -0.511  0.00  0.00     0.059 A 
HETATM    9  C   UNK N   1      -3.056   0.715  -0.529  0.00  0.00     0.051 A 
HETATM   10  N   UNK N   1      -3.117  -2.005  -0.897  0.00  0.00    -0.307 N 
HETATM   11  C   UNK N   1      -1.959  -1.314  -1.104  0.00  0.00     0.327 A 
ATOM     12  HN  UNK N   1      -3.114  -3.016  -1.038  1.00  0.00     0.170 HD
HETATM   13  N   UNK N   1      -1.911   0.051  -0.884  0.00  0.00    -0.295 N 
HETATM   14  O   UNK N   1      -0.972  -1.918  -1.488  0.00  0.00    -0.246 OA
HETATM   15  C   UNK N   1      -3.050   2.112  -0.393  0.00  0.00     0.033 A 
HETATM   16  C   UNK N   1      -4.220   2.804  -0.103  0.00  0.00     0.039 A 
BRANCH   8  17
HETATM   17  C   UNK N   1      -5.480  -2.279  -0.361  0.00  0.00    -0.008 A 
HETATM   18  C   UNK N   1      -6.757  -1.766  -0.087  0.00  0.00     0.014 A 
HETATM   19  C   UNK N   1      -7.870  -2.608  -0.026  0.00  0.00     0.008 A 
HETATM   20  C   UNK N   1      -7.729  -3.989  -0.230  0.00  0.00    -0.055 A 
HETATM   21  C   UNK N   1      -6.455  -4.512  -0.482  0.00  0.00     0.008 A 
HETATM   22  C   UNK N   1      -5.345  -3.666  -0.550  0.00  0.00     0.014 A 
BRANCH  20  23
HETATM   23  C   UNK N   1      -8.921  -4.915  -0.229  0.00  0.00     0.010 C 
HETATM   24  C   UNK N   1      -8.817  -5.940   0.886  0.00  0.00     0.015 C 
HETATM   25  C   UNK N   1     -10.260  -4.199  -0.128  0.00  0.00     0.015 C 
ENDBRANCH  20  23
ENDBRANCH   8  17
BRANCH  13  26
HETATM   26  C   UNK N   1      -0.650   0.804  -1.070  0.00  0.00     0.172 C 
BRANCH  26  27
HETATM   27  C   UNK N   1       0.518   0.199  -0.331  0.00  0.00    -0.037 A 
HETATM   28  C   UNK N   1       0.316  -0.666   0.758  0.00  0.00     0.011 A 
HETATM   29  C   UNK N   1       1.376  -1.405   1.284  0.00  0.00     0.032 A 
HETATM   30  C   UNK N   1       2.648  -1.286   0.724  0.00  0.00     0.060 A 
HETATM   31  C   UNK N   1       2.872  -0.383  -0.334  0.00  0.00     0.059 A 
HETATM   32  N   UNK N   1       3.667  -2.064   1.169  0.00  0.00    -0.347 N 
HETATM   33  C   UNK N   1       1.805   0.351  -0.864  0.00  0.00     0.040 A 
HETATM   34  N   UNK N   1       4.117  -0.279  -0.869  0.00  0.00    -0.361 N 
HETATM   35  C   UNK N   1       5.137  -1.061  -0.418  0.00  0.00     0.126 A 
ATOM     36  HN  UNK N   1       4.290   0.392  -1.618  1.00  0.00     0.165 HD
HETATM   37  C   UNK N   1       4.903  -1.980   0.610  0.00  0.00     0.095 A 
HETATM   38 Br   UNK N   1       6.287  -3.159   1.187  0.00  0.00    -0.030 Br
ATOM     39  HN  UNK N   1       3.503  -2.721   1.932  1.00  0.00     0.166 HD
ENDBRANCH  26  27
ENDBRANCH  13  26
ENDBRANCH   4   5
ENDBRANCH   1   4
TORSDOF 6
