REMARK  8 active torsions:
REMARK  status: ('A' for Active; 'I' for Inactive)
REMARK    1  A    between atoms: N_9  and  C_2 
REMARK    2  A    between atoms: C_4  and  C_3 
REMARK    3  A    between atoms: C_5  and  C_3 
REMARK    4  A    between atoms: C_6  and  C_4 
REMARK    5  A    between atoms: C_7  and  C_5 
REMARK    6  A    between atoms: C_5  and  N_8 
REMARK    7  A    between atoms: O_11  and  C_6 
REMARK    8  A    between atoms: O_13  and  C_7 
ROOT
HETATM    1  C   UNK N   1       1.371   1.272  -0.788  0.00  0.00     0.043 C 
ENDROOT
BRANCH   1   2
HETATM    2  C   UNK N   1      -0.048   1.454  -0.268  0.00  0.00     0.086 C 
BRANCH   2   3
HETATM    3  C   UNK N   1      -0.728   0.121  -0.040  0.00  0.00     0.111 C 
HETATM    4  N   UNK N   1      -1.952   0.053   0.363  0.00  0.00    -0.375 N 
ATOM      5  HN  UNK N   1      -2.366  -0.869   0.498  1.00  0.00     0.161 HD
BRANCH   4   6
HETATM    6  C   UNK N   1      -2.769   1.215   0.633  0.00  0.00     0.117 C 
HETATM    7  C   UNK N   1      -3.121   1.941  -0.655  0.00  0.00     0.026 C 
ENDBRANCH   4   6
BRANCH   3   8
HETATM    8  O   UNK N   1      -0.052  -1.025  -0.265  0.00  0.00    -0.350 OA
HETATM    9  H   UNK N   1      -0.507  -1.829  -0.421  0.00  0.00     0.219 HD
ENDBRANCH   3   8
ENDBRANCH   2   3
ENDBRANCH   1   2
BRANCH   1  10
HETATM   10  C   UNK N   1       2.392   1.242   0.341  0.00  0.00     0.173 C 
BRANCH  10  11
HETATM   11  C   UNK N   1       3.618   0.522  -0.142  0.00  0.00     0.163 C 
HETATM   12  O   UNK N   1       4.703   1.083  -0.177  0.00  0.00    -0.648 OA
BRANCH  11  13
HETATM   13  O   UNK N   1       3.521  -0.763  -0.535  0.00  0.00    -0.775 OA
HETATM   14  H   UNK N   1       2.714  -1.152  -0.808  0.00  0.00     0.167 HD
ENDBRANCH  11  13
ENDBRANCH  10  11
BRANCH  10  15
HETATM   15  N   UNK N   1       2.705   2.605   0.748  0.00  0.00    -0.418 N 
HETATM   16  H   UNK N   1       3.641   2.892   1.033  0.00  0.00     0.150 HD
HETATM   17  H   UNK N   1       1.958   3.300   0.748  0.00  0.00     0.150 HD
ENDBRANCH  10  15
ENDBRANCH   1  10
TORSDOF 8
