MODEL 1
REMARK VINA RESULT:      -8.5      0.000      0.000
REMARK  4 active torsions:
REMARK  status: ('A' for Active; 'I' for Inactive)
REMARK    1  A    between atoms: C_4  and  C_26 
REMARK    2  A    between atoms: C_7  and  C_8 
REMARK    3  A    between atoms: N_11  and  C_14 
REMARK    4  A    between atoms: C_30  and  C_32 
ROOT
HETATM    1  C   UNK N   1      21.193  14.737   5.450  0.00  0.00     0.057 C 
HETATM    2  C   UNK N   1      20.527  15.192   6.761  0.00  0.00     0.032 C 
HETATM    3  C   UNK N   1      21.581  15.478   7.827  0.00  0.00     0.125 C 
HETATM    4  N   UNK N   1      22.347  14.270   8.003  0.00  0.00    -0.366 N 
HETATM    5  C   UNK N   1      23.091  13.775   6.865  0.00  0.00     0.125 C 
HETATM    6  C   UNK N   1      22.154  13.561   5.677  0.00  0.00     0.032 C 
ENDROOT
BRANCH   1   7
HETATM    7  C   UNK N   1      21.757  15.907   4.688  0.00  0.00     0.087 A 
HETATM    8  N   UNK N   1      23.055  16.243   4.748  0.00  0.00    -0.344 N 
HETATM    9  C   UNK N   1      23.149  17.416   4.099  0.00  0.00     0.059 A 
ATOM     10  HN  UNK N   1      23.809  15.720   5.194  1.00  0.00     0.167 HD
HETATM   11  C   UNK N   1      21.900  17.788   3.628  0.00  0.00     0.122 A 
HETATM   12  N   UNK N   1      21.040  16.820   4.000  0.00  0.00    -0.348 N 
HETATM   13  C   UNK N   1      19.604  16.829   3.778  0.00  0.00     0.157 C 
BRANCH   9  14
HETATM   14  C   UNK N   1      24.379  18.212   4.136  0.00  0.00    -0.007 A 
HETATM   15  C   UNK N   1      24.471  19.468   3.525  0.00  0.00     0.017 A 
HETATM   16  C   UNK N   1      25.602  20.265   3.747  0.00  0.00     0.044 A 
HETATM   17  C   UNK N   1      26.633  19.815   4.583  0.00  0.00     0.131 A 
HETATM   18  C   UNK N   1      26.551  18.543   5.177  0.00  0.00     0.087 A 
HETATM   19  F   UNK N   1      27.706  20.614   4.813  0.00  0.00    -0.205 F 
HETATM   20  C   UNK N   1      25.421  17.761   4.948  0.00  0.00     0.033 A 
BRANCH  18  21
HETATM   21  C   UNK N   1      27.640  18.022   6.075  0.00  0.00     0.420 C 
HETATM   22  F   UNK N   1      27.836  18.894   7.129  0.00  0.00    -0.166 F 
HETATM   23  F   UNK N   1      28.835  17.893   5.382  0.00  0.00    -0.166 F 
HETATM   24  F   UNK N   1      27.280  16.780   6.566  0.00  0.00    -0.166 F 
ENDBRANCH  18  21
ENDBRANCH   9  14
ENDBRANCH   1   7
BRANCH   4  25
HETATM   25  C   UNK N   1      22.214  13.485   9.186  0.00  0.00     0.119 A 
HETATM   26  C   UNK N   1      23.316  13.077   9.944  0.00  0.00     0.070 A 
HETATM   27  C   UNK N   1      24.683  13.218   9.815  0.00  0.00     0.126 A 
HETATM   28  C   UNK N   1      23.129  12.360  11.076  0.00  0.00     0.136 A 
HETATM   29  N   UNK N   1      25.256  12.582  10.870  0.00  0.00    -0.309 N 
HETATM   30  N   UNK N   1      24.304  12.060  11.639  0.00  0.00    -0.285 N 
ATOM     31  HN  UNK N   1      26.259  12.514  11.044  1.00  0.00     0.186 HD
HETATM   32  H   UNK N   1      24.440  11.548  12.469  0.00  0.00     0.188 HD
HETATM   33  N   UNK N   1      21.901  12.018  11.528  0.00  0.00    -0.337 N 
HETATM   34  C   UNK N   1      20.814  12.404  10.797  0.00  0.00     0.183 A 
ATOM     35  HN  UNK N   1      21.791  11.486  12.392  1.00  0.00     0.168 HD
HETATM   36  N   UNK N   1      20.973  13.122   9.638  0.00  0.00    -0.338 N 
ATOM     37  HN  UNK N   1      20.148  13.390   9.100  1.00  0.00     0.168 HD
ENDBRANCH   4  25
TORSDOF 4
ENDMDL
MODEL 2
REMARK VINA RESULT:      -8.4      8.895     11.797
REMARK  4 active torsions:
REMARK  status: ('A' for Active; 'I' for Inactive)
REMARK    1  A    between atoms: C_4  and  C_26 
REMARK    2  A    between atoms: C_7  and  C_8 
REMARK    3  A    between atoms: N_11  and  C_14 
REMARK    4  A    between atoms: C_30  and  C_32 
ROOT
HETATM    1  C   UNK N   1      35.269  13.805   8.656  0.00  0.00     0.057 C 
HETATM    2  C   UNK N   1      34.379  13.408   9.846  0.00  0.00     0.032 C 
HETATM    3  C   UNK N   1      34.474  14.449  10.958  0.00  0.00     0.125 C 
HETATM    4  N   UNK N   1      35.862  14.545  11.333  0.00  0.00    -0.366 N 
HETATM    5  C   UNK N   1      36.800  14.989  10.324  0.00  0.00     0.125 C 
HETATM    6  C   UNK N   1      36.714  14.088   9.094  0.00  0.00     0.032 C 
ENDROOT
BRANCH   1   7
HETATM    7  C   UNK N   1      34.618  14.873   7.817  0.00  0.00     0.087 A 
HETATM    8  N   UNK N   1      33.483  15.485   8.191  0.00  0.00    -0.344 N 
HETATM    9  C   UNK N   1      33.115  16.228   7.133  0.00  0.00     0.059 A 
ATOM     10  HN  UNK N   1      33.002  15.402   9.086  1.00  0.00     0.167 HD
HETATM   11  C   UNK N   1      34.042  16.077   6.114  0.00  0.00     0.122 A 
HETATM   12  N   UNK N   1      34.985  15.229   6.568  0.00  0.00    -0.348 N 
HETATM   13  C   UNK N   1      36.116  14.731   5.805  0.00  0.00     0.157 C 
BRANCH   9  14
HETATM   14  C   UNK N   1      31.804  16.880   7.078  0.00  0.00    -0.007 A 
HETATM   15  C   UNK N   1      31.105  17.046   5.877  0.00  0.00     0.017 A 
HETATM   16  C   UNK N   1      29.781  17.504   5.902  0.00  0.00     0.044 A 
HETATM   17  C   UNK N   1      29.153  17.788   7.123  0.00  0.00     0.131 A 
HETATM   18  C   UNK N   1      29.864  17.645   8.328  0.00  0.00     0.087 A 
HETATM   19  F   UNK N   1      27.860  18.199   7.132  0.00  0.00    -0.205 F 
HETATM   20  C   UNK N   1      31.179  17.188   8.288  0.00  0.00     0.033 A 
BRANCH  18  21
HETATM   21  C   UNK N   1      29.227  17.945   9.658  0.00  0.00     0.420 C 
HETATM   22  F   UNK N   1      29.385  16.867  10.508  0.00  0.00    -0.166 F 
HETATM   23  F   UNK N   1      27.871  18.196   9.512  0.00  0.00    -0.166 F 
HETATM   24  F   UNK N   1      29.823  19.061  10.216  0.00  0.00    -0.166 F 
ENDBRANCH  18  21
ENDBRANCH   9  14
ENDBRANCH   1   7
BRANCH   4  25
HETATM   25  C   UNK N   1      36.321  14.031  12.582  0.00  0.00     0.119 A 
HETATM   26  C   UNK N   1      36.715  12.699  12.746  0.00  0.00     0.070 A 
HETATM   27  C   UNK N   1      36.747  11.592  11.922  0.00  0.00     0.126 A 
HETATM   28  C   UNK N   1      37.172  12.273  13.946  0.00  0.00     0.136 A 
HETATM   29  N   UNK N   1      37.219  10.553  12.659  0.00  0.00    -0.309 N 
HETATM   30  N   UNK N   1      37.479  10.972  13.895  0.00  0.00    -0.285 N 
ATOM     31  HN  UNK N   1      37.353   9.601  12.318  1.00  0.00     0.186 HD
HETATM   32  H   UNK N   1      37.833  10.427  14.634  0.00  0.00     0.188 HD
HETATM   33  N   UNK N   1      37.279  13.091  15.018  0.00  0.00    -0.337 N 
HETATM   34  C   UNK N   1      36.893  14.394  14.876  0.00  0.00     0.183 A 
ATOM     35  HN  UNK N   1      37.637  12.744  15.908  1.00  0.00     0.168 HD
HETATM   36  N   UNK N   1      36.414  14.852  13.674  0.00  0.00    -0.338 N 
ATOM     37  HN  UNK N   1      36.120  15.825  13.593  1.00  0.00     0.168 HD
ENDBRANCH   4  25
TORSDOF 4
ENDMDL
MODEL 3
REMARK VINA RESULT:      -8.3      4.768      7.874
REMARK  4 active torsions:
REMARK  status: ('A' for Active; 'I' for Inactive)
REMARK    1  A    between atoms: C_4  and  C_26 
REMARK    2  A    between atoms: C_7  and  C_8 
REMARK    3  A    between atoms: N_11  and  C_14 
REMARK    4  A    between atoms: C_30  and  C_32 
ROOT
HETATM    1  C   UNK N   1      25.868  18.459   4.121  0.00  0.00     0.057 C 
HETATM    2  C   UNK N   1      26.564  17.089   4.196  0.00  0.00     0.032 C 
HETATM    3  C   UNK N   1      27.019  16.796   5.624  0.00  0.00     0.125 C 
HETATM    4  N   UNK N   1      27.896  17.868   6.019  0.00  0.00    -0.366 N 
HETATM    5  C   UNK N   1      27.342  19.204   6.070  0.00  0.00     0.125 C 
HETATM    6  C   UNK N   1      26.739  19.575   4.716  0.00  0.00     0.032 C 
ENDROOT
BRANCH   1   7
HETATM    7  C   UNK N   1      24.455  18.384   4.637  0.00  0.00     0.087 A 
HETATM    8  N   UNK N   1      24.084  17.511   5.586  0.00  0.00    -0.344 N 
HETATM    9  C   UNK N   1      22.745  17.611   5.657  0.00  0.00     0.059 A 
ATOM     10  HN  UNK N   1      24.689  16.901   6.136  1.00  0.00     0.167 HD
HETATM   11  C   UNK N   1      22.302  18.563   4.753  0.00  0.00     0.122 A 
HETATM   12  N   UNK N   1      23.394  19.045   4.129  0.00  0.00    -0.348 N 
HETATM   13  C   UNK N   1      23.394  20.016   3.048  0.00  0.00     0.157 C 
BRANCH   9  14
HETATM   14  C   UNK N   1      21.950  16.657   6.435  0.00  0.00    -0.007 A 
HETATM   15  C   UNK N   1      22.404  15.363   6.713  0.00  0.00     0.017 A 
HETATM   16  C   UNK N   1      21.694  14.557   7.613  0.00  0.00     0.044 A 
HETATM   17  C   UNK N   1      20.539  15.044   8.241  0.00  0.00     0.131 A 
HETATM   18  C   UNK N   1      20.069  16.335   7.941  0.00  0.00     0.087 A 
HETATM   19  F   UNK N   1      19.881  14.263   9.134  0.00  0.00    -0.205 F 
HETATM   20  C   UNK N   1      20.785  17.126   7.046  0.00  0.00     0.033 A 
BRANCH  18  21
HETATM   21  C   UNK N   1      18.830  16.892   8.589  0.00  0.00     0.420 C 
HETATM   22  F   UNK N   1      19.032  18.216   8.928  0.00  0.00    -0.166 F 
HETATM   23  F   UNK N   1      18.513  16.186   9.740  0.00  0.00    -0.166 F 
HETATM   24  F   UNK N   1      17.766  16.800   7.710  0.00  0.00    -0.166 F 
ENDBRANCH  18  21
ENDBRANCH   9  14
ENDBRANCH   1   7
BRANCH   4  25
HETATM   25  C   UNK N   1      29.299  17.653   6.157  0.00  0.00     0.119 A 
HETATM   26  C   UNK N   1      29.921  17.531   7.404  0.00  0.00     0.070 A 
HETATM   27  C   UNK N   1      29.488  17.611   8.712  0.00  0.00     0.126 A 
HETATM   28  C   UNK N   1      31.251  17.296   7.475  0.00  0.00     0.136 A 
HETATM   29  N   UNK N   1      30.571  17.422   9.509  0.00  0.00    -0.309 N 
HETATM   30  N   UNK N   1      31.647  17.229   8.751  0.00  0.00    -0.285 N 
ATOM     31  HN  UNK N   1      30.562  17.428  10.530  1.00  0.00     0.186 HD
HETATM   32  H   UNK N   1      32.564  17.065   9.070  0.00  0.00     0.188 HD
HETATM   33  N   UNK N   1      32.028  17.160   6.376  0.00  0.00    -0.337 N 
HETATM   34  C   UNK N   1      31.437  17.282   5.150  0.00  0.00     0.183 A 
ATOM     35  HN  UNK N   1      33.027  16.972   6.460  1.00  0.00     0.168 HD
HETATM   36  N   UNK N   1      30.091  17.533   5.046  0.00  0.00    -0.338 N 
ATOM     37  HN  UNK N   1      29.672  17.633   4.122  1.00  0.00     0.168 HD
ENDBRANCH   4  25
TORSDOF 4
ENDMDL
MODEL 4
REMARK VINA RESULT:      -8.3      7.200     10.186
REMARK  4 active torsions:
REMARK  status: ('A' for Active; 'I' for Inactive)
REMARK    1  A    between atoms: C_4  and  C_26 
REMARK    2  A    between atoms: C_7  and  C_8 
REMARK    3  A    between atoms: N_11  and  C_14 
REMARK    4  A    between atoms: C_30  and  C_32 
ROOT
HETATM    1  C   UNK N   1      33.439  15.172   6.040  0.00  0.00     0.057 C 
HETATM    2  C   UNK N   1      33.239  14.072   7.098  0.00  0.00     0.032 C 
HETATM    3  C   UNK N   1      32.937  14.688   8.461  0.00  0.00     0.125 C 
HETATM    4  N   UNK N   1      34.039  15.557   8.789  0.00  0.00    -0.366 N 
HETATM    5  C   UNK N   1      34.288  16.684   7.917  0.00  0.00     0.125 C 
HETATM    6  C   UNK N   1      34.489  16.203   6.481  0.00  0.00     0.032 C 
ENDROOT
BRANCH   1   7
HETATM    7  C   UNK N   1      32.121  15.735   5.579  0.00  0.00     0.087 A 
HETATM    8  N   UNK N   1      31.518  16.756   6.208  0.00  0.00    -0.344 N 
HETATM    9  C   UNK N   1      30.307  16.860   5.635  0.00  0.00     0.059 A 
ATOM     10  HN  UNK N   1      31.898  17.329   6.961  1.00  0.00     0.167 HD
HETATM   11  C   UNK N   1      30.178  15.904   4.641  0.00  0.00     0.122 A 
HETATM   12  N   UNK N   1      31.334  15.213   4.614  0.00  0.00    -0.348 N 
HETATM   13  C   UNK N   1      31.618  14.066   3.769  0.00  0.00     0.157 C 
BRANCH   9  14
HETATM   14  C   UNK N   1      29.270  17.729   6.199  0.00  0.00    -0.007 A 
HETATM   15  C   UNK N   1      29.096  17.881   7.579  0.00  0.00     0.017 A 
HETATM   16  C   UNK N   1      28.219  18.860   8.065  0.00  0.00     0.044 A 
HETATM   17  C   UNK N   1      27.525  19.692   7.175  0.00  0.00     0.131 A 
HETATM   18  C   UNK N   1      27.680  19.523   5.788  0.00  0.00     0.087 A 
HETATM   19  F   UNK N   1      26.705  20.657   7.662  0.00  0.00    -0.205 F 
HETATM   20  C   UNK N   1      28.556  18.546   5.320  0.00  0.00     0.033 A 
BRANCH  18  21
HETATM   21  C   UNK N   1      26.948  20.392   4.802  0.00  0.00     0.420 C 
HETATM   22  F   UNK N   1      25.605  20.065   4.795  0.00  0.00    -0.166 F 
HETATM   23  F   UNK N   1      27.450  20.217   3.520  0.00  0.00    -0.166 F 
HETATM   24  F   UNK N   1      27.097  21.720   5.155  0.00  0.00    -0.166 F 
ENDBRANCH  18  21
ENDBRANCH   9  14
ENDBRANCH   1   7
BRANCH   4  25
HETATM   25  C   UNK N   1      34.968  15.205   9.813  0.00  0.00     0.119 A 
HETATM   26  C   UNK N   1      36.145  14.497   9.547  0.00  0.00     0.070 A 
HETATM   27  C   UNK N   1      36.704  13.942   8.414  0.00  0.00     0.126 A 
HETATM   28  C   UNK N   1      37.006  14.218  10.552  0.00  0.00     0.136 A 
HETATM   29  N   UNK N   1      37.871  13.355   8.785  0.00  0.00    -0.309 N 
HETATM   30  N   UNK N   1      38.054  13.526  10.092  0.00  0.00    -0.285 N 
ATOM     31  HN  UNK N   1      38.507  12.859   8.160  1.00  0.00     0.186 HD
HETATM   32  H   UNK N   1      38.819  13.204  10.621  0.00  0.00     0.188 HD
HETATM   33  N   UNK N   1      36.787  14.605  11.830  0.00  0.00    -0.337 N 
HETATM   34  C   UNK N   1      35.640  15.293  12.107  0.00  0.00     0.183 A 
ATOM     35  HN  UNK N   1      37.461  14.390  12.565  1.00  0.00     0.168 HD
HETATM   36  N   UNK N   1      34.740  15.580  11.110  0.00  0.00    -0.338 N 
ATOM     37  HN  UNK N   1      33.884  16.084  11.341  1.00  0.00     0.168 HD
ENDBRANCH   4  25
TORSDOF 4
ENDMDL
MODEL 5
REMARK VINA RESULT:      -8.0      8.546     12.152
REMARK  4 active torsions:
REMARK  status: ('A' for Active; 'I' for Inactive)
REMARK    1  A    between atoms: C_4  and  C_26 
REMARK    2  A    between atoms: C_7  and  C_8 
REMARK    3  A    between atoms: N_11  and  C_14 
REMARK    4  A    between atoms: C_30  and  C_32 
ROOT
HETATM    1  C   UNK N   1      34.083  16.495   6.958  0.00  0.00     0.057 C 
HETATM    2  C   UNK N   1      33.312  17.470   7.866  0.00  0.00     0.032 C 
HETATM    3  C   UNK N   1      31.970  16.871   8.278  0.00  0.00     0.125 C 
HETATM    4  N   UNK N   1      31.246  16.576   7.068  0.00  0.00    -0.366 N 
HETATM    5  C   UNK N   1      31.823  15.608   6.160  0.00  0.00     0.125 C 
HETATM    6  C   UNK N   1      33.235  16.037   5.762  0.00  0.00     0.032 C 
ENDROOT
BRANCH   1   7
HETATM    7  C   UNK N   1      34.732  15.397   7.760  0.00  0.00     0.087 A 
HETATM    8  N   UNK N   1      34.489  15.226   9.069  0.00  0.00    -0.344 N 
HETATM    9  C   UNK N   1      35.362  14.287   9.472  0.00  0.00     0.059 A 
ATOM     10  HN  UNK N   1      33.791  15.707   9.636  1.00  0.00     0.167 HD
HETATM   11  C   UNK N   1      36.132  13.875   8.397  0.00  0.00     0.122 A 
HETATM   12  N   UNK N   1      35.713  14.578   7.327  0.00  0.00    -0.348 N 
HETATM   13  C   UNK N   1      36.289  14.519   5.994  0.00  0.00     0.157 C 
BRANCH   9  14
HETATM   14  C   UNK N   1      35.549  13.982  10.893  0.00  0.00    -0.007 A 
HETATM   15  C   UNK N   1      36.062  14.921  11.795  0.00  0.00     0.017 A 
HETATM   16  C   UNK N   1      36.047  14.645  13.169  0.00  0.00     0.044 A 
HETATM   17  C   UNK N   1      35.514  13.437  13.642  0.00  0.00     0.131 A 
HETATM   18  C   UNK N   1      35.022  12.483  12.734  0.00  0.00     0.087 A 
HETATM   19  F   UNK N   1      35.477  13.199  14.977  0.00  0.00    -0.205 F 
HETATM   20  C   UNK N   1      35.042  12.772  11.371  0.00  0.00     0.033 A 
BRANCH  18  21
HETATM   21  C   UNK N   1      34.448  11.173  13.202  0.00  0.00     0.420 C 
HETATM   22  F   UNK N   1      33.584  11.391  14.258  0.00  0.00    -0.166 F 
HETATM   23  F   UNK N   1      35.453  10.315  13.624  0.00  0.00    -0.166 F 
HETATM   24  F   UNK N   1      33.762  10.570  12.164  0.00  0.00    -0.166 F 
ENDBRANCH  18  21
ENDBRANCH   9  14
ENDBRANCH   1   7
BRANCH   4  25
HETATM   25  C   UNK N   1      30.114  17.353   6.684  0.00  0.00     0.119 A 
HETATM   26  C   UNK N   1      29.215  17.882   7.616  0.00  0.00     0.070 A 
HETATM   27  C   UNK N   1      29.095  17.812   8.990  0.00  0.00     0.126 A 
HETATM   28  C   UNK N   1      28.175  18.639   7.198  0.00  0.00     0.136 A 
HETATM   29  N   UNK N   1      27.992  18.526   9.336  0.00  0.00    -0.309 N 
HETATM   30  N   UNK N   1      27.433  19.031   8.239  0.00  0.00    -0.285 N 
ATOM     31  HN  UNK N   1      27.647  18.654  10.287  1.00  0.00     0.186 HD
HETATM   32  H   UNK N   1      26.624  19.590   8.201  0.00  0.00     0.188 HD
HETATM   33  N   UNK N   1      27.959  18.925   5.893  0.00  0.00    -0.337 N 
HETATM   34  C   UNK N   1      28.824  18.412   4.969  0.00  0.00     0.183 A 
ATOM     35  HN  UNK N   1      27.172  19.508   5.608  1.00  0.00     0.168 HD
HETATM   36  N   UNK N   1      29.882  17.630   5.363  0.00  0.00    -0.338 N 
ATOM     37  HN  UNK N   1      30.509  17.246   4.656  1.00  0.00     0.168 HD
ENDBRANCH   4  25
TORSDOF 4
ENDMDL
MODEL 6
REMARK VINA RESULT:      -8.0     11.060     13.828
REMARK  4 active torsions:
REMARK  status: ('A' for Active; 'I' for Inactive)
REMARK    1  A    between atoms: C_4  and  C_26 
REMARK    2  A    between atoms: C_7  and  C_8 
REMARK    3  A    between atoms: N_11  and  C_14 
REMARK    4  A    between atoms: C_30  and  C_32 
ROOT
HETATM    1  C   UNK N   1      34.942  10.068  13.299  0.00  0.00     0.057 C 
HETATM    2  C   UNK N   1      33.826  10.454  14.286  0.00  0.00     0.032 C 
HETATM    3  C   UNK N   1      34.200  11.721  15.050  0.00  0.00     0.125 C 
HETATM    4  N   UNK N   1      35.447  11.460  15.723  0.00  0.00    -0.366 N 
HETATM    5  C   UNK N   1      36.603  11.163  14.904  0.00  0.00     0.125 C 
HETATM    6  C   UNK N   1      36.309   9.972  13.993  0.00  0.00     0.032 C 
ENDROOT
BRANCH   1   7
HETATM    7  C   UNK N   1      34.895  10.922  12.059  0.00  0.00     0.087 A 
HETATM    8  N   UNK N   1      35.160  12.237  12.084  0.00  0.00    -0.344 N 
HETATM    9  C   UNK N   1      34.849  12.685  10.856  0.00  0.00     0.059 A 
ATOM     10  HN  UNK N   1      35.520  12.781  12.869  1.00  0.00     0.167 HD
HETATM   11  C   UNK N   1      34.405  11.630  10.075  0.00  0.00     0.122 A 
HETATM   12  N   UNK N   1      34.452  10.528  10.847  0.00  0.00    -0.348 N 
HETATM   13  C   UNK N   1      34.009   9.200  10.458  0.00  0.00     0.157 C 
BRANCH   9  14
HETATM   14  C   UNK N   1      34.802  14.119  10.557  0.00  0.00    -0.007 A 
HETATM   15  C   UNK N   1      35.470  15.065  11.343  0.00  0.00     0.017 A 
HETATM   16  C   UNK N   1      35.548  16.396  10.911  0.00  0.00     0.044 A 
HETATM   17  C   UNK N   1      34.969  16.780   9.693  0.00  0.00     0.131 A 
HETATM   18  C   UNK N   1      34.276  15.835   8.916  0.00  0.00     0.087 A 
HETATM   19  F   UNK N   1      35.082  18.065   9.274  0.00  0.00    -0.205 F 
HETATM   20  C   UNK N   1      34.208  14.515   9.357  0.00  0.00     0.033 A 
BRANCH  18  21
HETATM   21  C   UNK N   1      33.636  16.209   7.607  0.00  0.00     0.420 C 
HETATM   22  F   UNK N   1      34.604  16.635   6.716  0.00  0.00    -0.166 F 
HETATM   23  F   UNK N   1      32.716  17.233   7.780  0.00  0.00    -0.166 F 
HETATM   24  F   UNK N   1      32.979  15.111   7.082  0.00  0.00    -0.166 F 
ENDBRANCH  18  21
ENDBRANCH   9  14
ENDBRANCH   1   7
BRANCH   4  25
HETATM   25  C   UNK N   1      35.496  11.300  17.139  0.00  0.00     0.119 A 
HETATM   26  C   UNK N   1      35.321  12.370  18.023  0.00  0.00     0.070 A 
HETATM   27  C   UNK N   1      35.126  13.728  17.869  0.00  0.00     0.126 A 
HETATM   28  C   UNK N   1      35.345  12.155  19.358  0.00  0.00     0.136 A 
HETATM   29  N   UNK N   1      35.042  14.268  19.112  0.00  0.00    -0.309 N 
HETATM   30  N   UNK N   1      35.175  13.304  20.020  0.00  0.00    -0.285 N 
ATOM     31  HN  UNK N   1      34.900  15.257  19.318  1.00  0.00     0.186 HD
HETATM   32  H   UNK N   1      35.152  13.417  20.998  0.00  0.00     0.188 HD
HETATM   33  N   UNK N   1      35.524  10.927  19.896  0.00  0.00    -0.337 N 
HETATM   34  C   UNK N   1      35.701   9.871  19.048  0.00  0.00     0.183 A 
ATOM     35  HN  UNK N   1      35.527  10.793  20.908  1.00  0.00     0.168 HD
HETATM   36  N   UNK N   1      35.695  10.060  17.688  0.00  0.00    -0.338 N 
ATOM     37  HN  UNK N   1      35.841   9.260  17.072  1.00  0.00     0.168 HD
ENDBRANCH   4  25
TORSDOF 4
ENDMDL
MODEL 7
REMARK VINA RESULT:      -8.0     10.636     14.492
REMARK  4 active torsions:
REMARK  status: ('A' for Active; 'I' for Inactive)
REMARK    1  A    between atoms: C_4  and  C_26 
REMARK    2  A    between atoms: C_7  and  C_8 
REMARK    3  A    between atoms: N_11  and  C_14 
REMARK    4  A    between atoms: C_30  and  C_32 
ROOT
HETATM    1  C   UNK N   1      35.961  13.481   9.143  0.00  0.00     0.057 C 
HETATM    2  C   UNK N   1      35.876  14.997   9.389  0.00  0.00     0.032 C 
HETATM    3  C   UNK N   1      34.600  15.347  10.150  0.00  0.00     0.125 C 
HETATM    4  N   UNK N   1      33.491  14.866   9.365  0.00  0.00    -0.366 N 
HETATM    5  C   UNK N   1      33.405  13.441   9.127  0.00  0.00     0.125 C 
HETATM    6  C   UNK N   1      34.690  12.940   8.469  0.00  0.00     0.032 C 
ENDROOT
BRANCH   1   7
HETATM    7  C   UNK N   1      36.408  12.749  10.381  0.00  0.00     0.087 A 
HETATM    8  N   UNK N   1      35.537  12.243  11.267  0.00  0.00    -0.344 N 
HETATM    9  C   UNK N   1      36.286  11.832  12.306  0.00  0.00     0.059 A 
ATOM     10  HN  UNK N   1      34.523  12.182  11.174  1.00  0.00     0.167 HD
HETATM   11  C   UNK N   1      37.623  12.080  12.041  0.00  0.00     0.122 A 
HETATM   12  N   UNK N   1      37.680  12.647  10.821  0.00  0.00    -0.348 N 
HETATM   13  C   UNK N   1      38.881  13.138  10.168  0.00  0.00     0.157 C 
BRANCH   9  14
HETATM   14  C   UNK N   1      35.673  11.414  13.569  0.00  0.00    -0.007 A 
HETATM   15  C   UNK N   1      35.330  10.081  13.824  0.00  0.00     0.017 A 
HETATM   16  C   UNK N   1      34.921   9.703  15.110  0.00  0.00     0.044 A 
HETATM   17  C   UNK N   1      34.863  10.651  16.142  0.00  0.00     0.131 A 
HETATM   18  C   UNK N   1      35.183  11.995  15.879  0.00  0.00     0.087 A 
HETATM   19  F   UNK N   1      34.497  10.263  17.389  0.00  0.00    -0.205 F 
HETATM   20  C   UNK N   1      35.589  12.356  14.596  0.00  0.00     0.033 A 
BRANCH  18  21
HETATM   21  C   UNK N   1      35.127  13.044  16.957  0.00  0.00     0.420 C 
HETATM   22  F   UNK N   1      36.129  13.974  16.759  0.00  0.00    -0.166 F 
HETATM   23  F   UNK N   1      35.296  12.473  18.211  0.00  0.00    -0.166 F 
HETATM   24  F   UNK N   1      33.898  13.677  16.924  0.00  0.00    -0.166 F 
ENDBRANCH  18  21
ENDBRANCH   9  14
ENDBRANCH   1   7
BRANCH   4  25
HETATM   25  C   UNK N   1      32.629  15.774   8.682  0.00  0.00     0.119 A 
HETATM   26  C   UNK N   1      32.906  16.249   7.396  0.00  0.00     0.070 A 
HETATM   27  C   UNK N   1      33.948  16.081   6.508  0.00  0.00     0.126 A 
HETATM   28  C   UNK N   1      32.037  17.085   6.784  0.00  0.00     0.136 A 
HETATM   29  N   UNK N   1      33.663  16.820   5.404  0.00  0.00    -0.309 N 
HETATM   30  N   UNK N   1      32.493  17.431   5.575  0.00  0.00    -0.285 N 
ATOM     31  HN  UNK N   1      34.252  16.895   4.575  1.00  0.00     0.186 HD
HETATM   32  H   UNK N   1      32.047  18.027   4.931  0.00  0.00     0.188 HD
HETATM   33  N   UNK N   1      30.881  17.487   7.360  0.00  0.00    -0.337 N 
HETATM   34  C   UNK N   1      30.597  17.036   8.618  0.00  0.00     0.183 A 
ATOM     35  HN  UNK N   1      30.239  18.109   6.869  1.00  0.00     0.168 HD
HETATM   36  N   UNK N   1      31.467  16.197   9.271  0.00  0.00    -0.338 N 
ATOM     37  HN  UNK N   1      31.242  15.882  10.214  1.00  0.00     0.168 HD
ENDBRANCH   4  25
TORSDOF 4
ENDMDL
MODEL 8
REMARK VINA RESULT:      -7.9     10.590     13.608
REMARK  4 active torsions:
REMARK  status: ('A' for Active; 'I' for Inactive)
REMARK    1  A    between atoms: C_4  and  C_26 
REMARK    2  A    between atoms: C_7  and  C_8 
REMARK    3  A    between atoms: N_11  and  C_14 
REMARK    4  A    between atoms: C_30  and  C_32 
ROOT
HETATM    1  C   UNK N   1      36.214  11.302  12.376  0.00  0.00     0.057 C 
HETATM    2  C   UNK N   1      34.850  11.137  13.070  0.00  0.00     0.032 C 
HETATM    3  C   UNK N   1      34.627  12.254  14.086  0.00  0.00     0.125 C 
HETATM    4  N   UNK N   1      35.718  12.201  15.024  0.00  0.00    -0.366 N 
HETATM    5  C   UNK N   1      37.054  12.422  14.514  0.00  0.00     0.125 C 
HETATM    6  C   UNK N   1      37.359  11.430  13.392  0.00  0.00     0.032 C 
ENDROOT
BRANCH   1   7
HETATM    7  C   UNK N   1      36.161  12.364  11.310  0.00  0.00     0.087 A 
HETATM    8  N   UNK N   1      35.060  13.096  11.082  0.00  0.00    -0.344 N 
HETATM    9  C   UNK N   1      35.324  13.796   9.966  0.00  0.00     0.059 A 
ATOM     10  HN  UNK N   1      34.204  13.115  11.637  1.00  0.00     0.167 HD
HETATM   11  C   UNK N   1      36.602  13.498   9.521  0.00  0.00     0.122 A 
HETATM   12  N   UNK N   1      37.115  12.603  10.386  0.00  0.00    -0.348 N 
HETATM   13  C   UNK N   1      38.412  11.957  10.270  0.00  0.00     0.157 C 
BRANCH   9  14
HETATM   14  C   UNK N   1      34.276  14.555   9.277  0.00  0.00    -0.007 A 
HETATM   15  C   UNK N   1      32.964  14.082   9.168  0.00  0.00     0.017 A 
HETATM   16  C   UNK N   1      31.962  14.923   8.667  0.00  0.00     0.044 A 
HETATM   17  C   UNK N   1      32.267  16.237   8.282  0.00  0.00     0.131 A 
HETATM   18  C   UNK N   1      33.591  16.704   8.368  0.00  0.00     0.087 A 
HETATM   19  F   UNK N   1      31.279  17.049   7.830  0.00  0.00    -0.205 F 
HETATM   20  C   UNK N   1      34.576  15.857   8.869  0.00  0.00     0.033 A 
BRANCH  18  21
HETATM   21  C   UNK N   1      33.959  18.105   7.960  0.00  0.00     0.420 C 
HETATM   22  F   UNK N   1      35.139  18.477   8.575  0.00  0.00    -0.166 F 
HETATM   23  F   UNK N   1      32.968  19.004   8.326  0.00  0.00    -0.166 F 
HETATM   24  F   UNK N   1      34.118  18.161   6.587  0.00  0.00    -0.166 F 
ENDBRANCH  18  21
ENDBRANCH   9  14
ENDBRANCH   1   7
BRANCH   4  25
HETATM   25  C   UNK N   1      35.513  11.748  16.361  0.00  0.00     0.119 A 
HETATM   26  C   UNK N   1      35.403  12.627  17.444  0.00  0.00     0.070 A 
HETATM   27  C   UNK N   1      35.490  13.997  17.588  0.00  0.00     0.126 A 
HETATM   28  C   UNK N   1      35.177  12.143  18.686  0.00  0.00     0.136 A 
HETATM   29  N   UNK N   1      35.314  14.276  18.906  0.00  0.00    -0.309 N 
HETATM   30  N   UNK N   1      35.121  13.142  19.574  0.00  0.00    -0.285 N 
ATOM     31  HN  UNK N   1      35.328  15.209  19.318  1.00  0.00     0.186 HD
HETATM   32  H   UNK N   1      34.966  13.054  20.542  0.00  0.00     0.188 HD
HETATM   33  N   UNK N   1      35.038  10.822  18.941  0.00  0.00    -0.337 N 
HETATM   34  C   UNK N   1      35.147   9.949  17.896  0.00  0.00     0.183 A 
ATOM     35  HN  UNK N   1      34.856  10.487  19.888  1.00  0.00     0.168 HD
HETATM   36  N   UNK N   1      35.389  10.409  16.625  0.00  0.00    -0.338 N 
ATOM     37  HN  UNK N   1      35.479   9.740  15.861  1.00  0.00     0.168 HD
ENDBRANCH   4  25
TORSDOF 4
ENDMDL
MODEL 9
REMARK VINA RESULT:      -7.8      5.143      8.053
REMARK  4 active torsions:
REMARK  status: ('A' for Active; 'I' for Inactive)
REMARK    1  A    between atoms: C_4  and  C_26 
REMARK    2  A    between atoms: C_7  and  C_8 
REMARK    3  A    between atoms: N_11  and  C_14 
REMARK    4  A    between atoms: C_30  and  C_32 
ROOT
HETATM    1  C   UNK N   1      27.047  16.383   6.589  0.00  0.00     0.057 C 
HETATM    2  C   UNK N   1      27.739  17.757   6.608  0.00  0.00     0.032 C 
HETATM    3  C   UNK N   1      28.354  18.067   5.246  0.00  0.00     0.125 C 
HETATM    4  N   UNK N   1      29.278  17.004   4.944  0.00  0.00    -0.366 N 
HETATM    5  C   UNK N   1      28.742  15.665   4.816  0.00  0.00     0.125 C 
HETATM    6  C   UNK N   1      27.989  15.277   6.087  0.00  0.00     0.032 C 
ENDROOT
BRANCH   1   7
HETATM    7  C   UNK N   1      25.703  16.456   5.913  0.00  0.00     0.087 A 
HETATM    8  N   UNK N   1      25.357  17.477   5.115  0.00  0.00    -0.344 N 
HETATM    9  C   UNK N   1      24.053  17.292   4.846  0.00  0.00     0.059 A 
ATOM     10  HN  UNK N   1      25.956  18.233   4.783  1.00  0.00     0.167 HD
HETATM   11  C   UNK N   1      23.608  16.141   5.476  0.00  0.00     0.122 A 
HETATM   12  N   UNK N   1      24.664  15.624   6.133  0.00  0.00    -0.348 N 
HETATM   13  C   UNK N   1      24.638  14.451   6.990  0.00  0.00     0.157 C 
BRANCH   9  14
HETATM   14  C   UNK N   1      23.260  18.325   4.173  0.00  0.00    -0.007 A 
HETATM   15  C   UNK N   1      23.829  19.517   3.712  0.00  0.00     0.017 A 
HETATM   16  C   UNK N   1      23.071  20.385   2.914  0.00  0.00     0.044 A 
HETATM   17  C   UNK N   1      21.751  20.059   2.570  0.00  0.00     0.131 A 
HETATM   18  C   UNK N   1      21.172  18.872   3.054  0.00  0.00     0.087 A 
HETATM   19  F   UNK N   1      21.042  20.893   1.770  0.00  0.00    -0.205 F 
HETATM   20  C   UNK N   1      21.938  18.019   3.845  0.00  0.00     0.033 A 
BRANCH  18  21
HETATM   21  C   UNK N   1      19.757  18.490   2.712  0.00  0.00     0.420 C 
HETATM   22  F   UNK N   1      19.313  17.509   3.578  0.00  0.00    -0.166 F 
HETATM   23  F   UNK N   1      19.676  18.002   1.415  0.00  0.00    -0.166 F 
HETATM   24  F   UNK N   1      18.939  19.600   2.816  0.00  0.00    -0.166 F 
ENDBRANCH  18  21
ENDBRANCH   9  14
ENDBRANCH   1   7
BRANCH   4  25
HETATM   25  C   UNK N   1      30.686  17.227   4.972  0.00  0.00     0.119 A 
HETATM   26  C   UNK N   1      31.439  17.132   6.147  0.00  0.00     0.070 A 
HETATM   27  C   UNK N   1      31.136  16.883   7.471  0.00  0.00     0.126 A 
HETATM   28  C   UNK N   1      32.777  17.324   6.110  0.00  0.00     0.136 A 
HETATM   29  N   UNK N   1      32.301  16.936   8.168  0.00  0.00    -0.309 N 
HETATM   30  N   UNK N   1      33.302  17.204   7.334  0.00  0.00    -0.285 N 
ATOM     31  HN  UNK N   1      32.393  16.793   9.174  1.00  0.00     0.186 HD
HETATM   32  H   UNK N   1      34.252  17.296   7.574  0.00  0.00     0.188 HD
HETATM   33  N   UNK N   1      33.443  17.600   4.965  0.00  0.00    -0.337 N 
HETATM   34  C   UNK N   1      32.722  17.702   3.809  0.00  0.00     0.183 A 
ATOM     35  HN  UNK N   1      34.455  17.729   4.965  1.00  0.00     0.168 HD
HETATM   36  N   UNK N   1      31.361  17.525   3.818  0.00  0.00    -0.338 N 
ATOM     37  HN  UNK N   1      30.840  17.617   2.946  1.00  0.00     0.168 HD
ENDBRANCH   4  25
TORSDOF 4
ENDMDL
