REMARK  6 active torsions:
REMARK  status: ('A' for Active; 'I' for Inactive)
REMARK    1  A    between atoms: C_8  and  C_13 
REMARK       I    between atoms: C_13  and  N_15 
REMARK    2  A    between atoms: N_15  and  C_16 
REMARK    3  A    between atoms: C_16  and  C_17 
REMARK    4  A    between atoms: C_17  and  N_20 
REMARK    5  A    between atoms: N_20  and  C_21 
REMARK    6  A    between atoms: C_21  and  C_22 
REMARK       I    between atoms: C_22  and  N_24 
ROOT
HETATM    1  C   UNK N   1       5.272  -6.556  -0.496  0.00  0.00     0.238 C 
HETATM    2  O   UNK N   1       4.285  -7.131  -0.056  0.00  0.00    -0.272 OA
HETATM    3  N   UNK N   1       6.526  -7.037  -0.239  0.00  0.00    -0.334 N 
HETATM    4  C   UNK N   1       7.717  -6.381  -0.699  0.00  0.00     0.127 C 
HETATM    5  C   UNK N   1       8.860  -7.155  -0.070  0.00  0.00     0.023 C 
HETATM    6  C   UNK N   1       8.265  -8.485   0.378  0.00  0.00     0.042 C 
HETATM    7  C   UNK N   1       6.761  -8.257   0.475  0.00  0.00     0.194 C 
HETATM    8  C   UNK N   1       6.061  -9.354  -0.201  0.00  0.00     0.084 C 
HETATM    9  N   UNK N   1       5.485 -10.205  -0.728  0.00  0.00    -0.195 NA
ENDROOT
BRANCH   1  10
HETATM   10  C   UNK N   1       5.088  -5.327  -1.345  0.00  0.00     0.218 C 
BRANCH  10  11
HETATM   11  N   UNK N   1       4.487  -4.201  -0.617  0.00  0.00    -0.404 N 
HETATM   12  H   UNK N   1       3.602  -3.770  -0.885  0.00  0.00     0.154 HD
BRANCH  11  13
HETATM   13  C   UNK N   1       5.287  -3.754   0.538  0.00  0.00     0.034 C 
HETATM   14  C   UNK N   1       5.059  -4.688   1.713  0.00  0.00     0.039 C 
HETATM   15  C   UNK N   1       6.783  -3.688   0.225  0.00  0.00     0.039 C 
BRANCH  13  16
HETATM   16  C   UNK N   1       4.788  -2.402   1.025  0.00  0.00     0.152 C 
BRANCH  16  17
HETATM   17  N   UNK N   1       5.587  -1.285   0.568  0.00  0.00    -0.354 N 
HETATM   18  C   UNK N   1       5.091  -0.102   0.123  0.00  0.00     0.254 C 
HETATM   19  O   UNK N   1       5.876   0.802  -0.114  0.00  0.00    -0.268 OA
HETATM   20  H   UNK N   1       6.566  -1.392   0.581  0.00  0.00     0.162 HD
BRANCH  18  21
HETATM   21  C   UNK N   1       3.632   0.149  -0.043  0.00  0.00     0.065 A 
HETATM   22  C   UNK N   1       3.161   1.450  -0.342  0.00  0.00     0.108 A 
HETATM   23  N   UNK N   1       1.821   1.696  -0.456  0.00  0.00    -0.350 N 
HETATM   24  C   UNK N   1       0.955   0.667  -0.286  0.00  0.00     0.128 A 
ATOM     25  HN  UNK N   1       1.479   2.634  -0.666  1.00  0.00     0.166 HD
HETATM   26  C   UNK N   1      -0.422   0.689  -0.331  0.00  0.00     0.076 A 
HETATM   27  N   UNK N   1       1.382  -0.567  -0.023  0.00  0.00    -0.250 N 
HETATM   28  C   UNK N   1      -0.757  -0.643  -0.073  0.00  0.00     0.026 A 
HETATM   29  C   UNK N   1      -2.134  -1.191   0.018  0.00  0.00     0.070 C 
HETATM   30  N   UNK N   1       0.358  -1.384   0.108  0.00  0.00    -0.297 N 
ATOM     31  HN  UNK N   1       0.399  -2.383   0.308  1.00  0.00     0.187 HD
HETATM   32  C   UNK N   1       2.685  -0.875   0.105  0.00  0.00     0.136 A 
ENDBRANCH  18  21
ENDBRANCH  16  17
ENDBRANCH  13  16
ENDBRANCH  11  13
ENDBRANCH  10  11
ENDBRANCH   1  10
TORSDOF 6
