MODEL 1
REMARK VINA RESULT:      -8.5      0.000      0.000
REMARK  7 active torsions:
REMARK  status: ('A' for Active; 'I' for Inactive)
REMARK       I    between atoms: N_3  and  C_21 
REMARK    1  A    between atoms: C_7  and  C_17 
REMARK    2  A    between atoms: C_10  and  C_13 
REMARK    3  A    between atoms: C_21  and  C_23 
REMARK    4  A    between atoms: C_23  and  C_24 
REMARK    5  A    between atoms: C_24  and  C_25 
REMARK    6  A    between atoms: C_24  and  N_35 
REMARK    7  A    between atoms: C_25  and  N_26 
ROOT
HETATM    1  C   UNK N   1      34.488  16.159   6.573  0.00  0.00     0.063 C 
HETATM    2  C   UNK N   1      34.899  14.905   7.324  0.00  0.00     0.131 C 
HETATM    3  N   UNK N   1      35.114  15.214   8.732  0.00  0.00    -0.346 N 
HETATM    4  C   UNK N   1      34.204  16.109   9.447  0.00  0.00     0.183 C 
HETATM    5  C   UNK N   1      33.109  16.677   8.589  0.00  0.00     0.037 A 
HETATM    6  C   UNK N   1      33.228  16.675   7.196  0.00  0.00    -0.001 A 
HETATM    7  C   UNK N   1      32.150  17.153   6.430  0.00  0.00     0.126 A 
HETATM    8  N   UNK N   1      31.033  17.601   7.066  0.00  0.00    -0.334 N 
ATOM      9  HN  UNK N   1      30.244  17.935   6.513  1.00  0.00     0.167 HD
HETATM   10  C   UNK N   1      30.946  17.613   8.425  0.00  0.00     0.191 A 
HETATM   11  N   UNK N   1      31.984  17.155   9.174  0.00  0.00    -0.340 N 
ATOM     12  HN  UNK N   1      31.914  17.172  10.191  1.00  0.00     0.167 HD
HETATM   13  C   UNK N   1      36.150  14.620   9.397  0.00  0.00     0.222 C 
HETATM   14  O   UNK N   1      36.916  13.874   8.808  0.00  0.00    -0.273 OA
ENDROOT
BRANCH  13  15
HETATM   15  C   UNK N   1      36.359  14.850  10.868  0.00  0.00     0.129 C 
BRANCH  15  16
HETATM   16  C   UNK N   1      36.719  13.541  11.562  0.00  0.00     0.100 C 
BRANCH  16  17
HETATM   17  C   UNK N   1      36.300  13.526  13.032  0.00  0.00     0.150 C 
BRANCH  17  18
HETATM   18  N   UNK N   1      35.965  12.209  13.534  0.00  0.00    -0.344 N 
HETATM   19  C   UNK N   1      34.592  11.762  13.447  0.00  0.00     0.204 C 
HETATM   20  C   UNK N   1      34.112  11.317  14.834  0.00  0.00     0.260 C 
HETATM   21  C   UNK N   1      35.088  10.316  15.496  0.00  0.00     0.090 C 
HETATM   22  F   UNK N   1      33.996  12.431  15.647  0.00  0.00    -0.205 F 
HETATM   23  F   UNK N   1      32.870  10.725  14.716  0.00  0.00    -0.205 F 
HETATM   24  C   UNK N   1      36.398  10.098  14.720  0.00  0.00     0.109 C 
HETATM   25  C   UNK N   1      36.869  11.406  14.160  0.00  0.00     0.220 C 
HETATM   26  O   UNK N   1      38.029  11.752  14.311  0.00  0.00    -0.273 OA
ENDBRANCH  17  18
ENDBRANCH  16  17
BRANCH  16  27
HETATM   27  N   UNK N   1      38.121  13.198  11.372  0.00  0.00    -0.424 N 
HETATM   28  H   UNK N   1      38.887  12.808  10.824  0.00  0.00     0.150 HD
HETATM   29  H   UNK N   1      38.568  13.508  12.235  0.00  0.00     0.150 HD
ENDBRANCH  16  27
ENDBRANCH  15  16
ENDBRANCH  13  15
BRANCH   7  30
HETATM   30  C   UNK N   1      32.211  17.181   4.928  0.00  0.00     0.433 C 
HETATM   31  F   UNK N   1      31.021  17.670   4.421  0.00  0.00    -0.165 F 
HETATM   32  F   UNK N   1      32.414  15.906   4.427  0.00  0.00    -0.165 F 
HETATM   33  F   UNK N   1      33.253  17.991   4.516  0.00  0.00    -0.165 F 
ENDBRANCH   7  30
BRANCH  10  34
HETATM   34  C   UNK N   1      29.709  18.118   9.101  0.00  0.00     0.449 C 
HETATM   35  F   UNK N   1      30.060  19.034  10.074  0.00  0.00    -0.163 F 
HETATM   36  F   UNK N   1      28.868  18.729   8.188  0.00  0.00    -0.163 F 
HETATM   37  F   UNK N   1      29.040  17.062   9.690  0.00  0.00    -0.163 F 
ENDBRANCH  10  34
TORSDOF 7
ENDMDL
MODEL 2
REMARK VINA RESULT:      -8.3      1.516      1.983
REMARK  7 active torsions:
REMARK  status: ('A' for Active; 'I' for Inactive)
REMARK       I    between atoms: N_3  and  C_21 
REMARK    1  A    between atoms: C_7  and  C_17 
REMARK    2  A    between atoms: C_10  and  C_13 
REMARK    3  A    between atoms: C_21  and  C_23 
REMARK    4  A    between atoms: C_23  and  C_24 
REMARK    5  A    between atoms: C_24  and  C_25 
REMARK    6  A    between atoms: C_24  and  N_35 
REMARK    7  A    between atoms: C_25  and  N_26 
ROOT
HETATM    1  C   UNK N   1      34.308  16.231   6.487  0.00  0.00     0.063 C 
HETATM    2  C   UNK N   1      34.744  14.954   7.183  0.00  0.00     0.131 C 
HETATM    3  N   UNK N   1      34.995  15.217   8.595  0.00  0.00    -0.346 N 
HETATM    4  C   UNK N   1      34.099  16.082   9.363  0.00  0.00     0.183 C 
HETATM    5  C   UNK N   1      32.980  16.672   8.553  0.00  0.00     0.037 A 
HETATM    6  C   UNK N   1      33.062  16.718   7.159  0.00  0.00    -0.001 A 
HETATM    7  C   UNK N   1      31.962  17.215   6.438  0.00  0.00     0.126 A 
HETATM    8  N   UNK N   1      30.859  17.635   7.117  0.00  0.00    -0.334 N 
ATOM      9  HN  UNK N   1      30.055  17.983   6.596  1.00  0.00     0.167 HD
HETATM   10  C   UNK N   1      30.808  17.601   8.477  0.00  0.00     0.191 A 
HETATM   11  N   UNK N   1      31.867  17.124   9.183  0.00  0.00    -0.340 N 
ATOM     12  HN  UNK N   1      31.824  17.106  10.202  1.00  0.00     0.167 HD
HETATM   13  C   UNK N   1      36.050  14.606   9.213  0.00  0.00     0.222 C 
HETATM   14  O   UNK N   1      36.804  13.885   8.579  0.00  0.00    -0.273 OA
ENDROOT
BRANCH  13  15
HETATM   15  C   UNK N   1      36.297  14.788  10.685  0.00  0.00     0.129 C 
BRANCH  15  16
HETATM   16  C   UNK N   1      36.920  13.529  11.275  0.00  0.00     0.100 C 
BRANCH  16  17
HETATM   17  C   UNK N   1      36.577  13.346  12.754  0.00  0.00     0.150 C 
BRANCH  17  18
HETATM   18  N   UNK N   1      35.838  12.135  13.042  0.00  0.00    -0.344 N 
HETATM   19  C   UNK N   1      36.124  10.947  12.268  0.00  0.00     0.204 C 
HETATM   20  C   UNK N   1      34.823  10.406  11.664  0.00  0.00     0.260 C 
HETATM   21  C   UNK N   1      33.709  10.245  12.727  0.00  0.00     0.090 C 
HETATM   22  F   UNK N   1      34.383  11.282  10.687  0.00  0.00    -0.205 F 
HETATM   23  F   UNK N   1      35.069   9.179  11.080  0.00  0.00    -0.205 F 
HETATM   24  C   UNK N   1      34.070  10.802  14.114  0.00  0.00     0.109 C 
HETATM   25  C   UNK N   1      34.828  12.085  13.953  0.00  0.00     0.220 C 
HETATM   26  O   UNK N   1      34.505  13.069  14.599  0.00  0.00    -0.273 OA
ENDBRANCH  17  18
ENDBRANCH  16  17
BRANCH  16  27
HETATM   27  N   UNK N   1      38.351  13.463  11.017  0.00  0.00    -0.424 N 
HETATM   28  H   UNK N   1      39.267  13.897  10.903  0.00  0.00     0.150 HD
HETATM   29  H   UNK N   1      38.531  12.469  10.877  0.00  0.00     0.150 HD
ENDBRANCH  16  27
ENDBRANCH  15  16
ENDBRANCH  13  15
BRANCH   7  30
HETATM   30  C   UNK N   1      31.984  17.293   4.936  0.00  0.00     0.433 C 
HETATM   31  F   UNK N   1      33.075  18.036   4.524  0.00  0.00    -0.165 F 
HETATM   32  F   UNK N   1      30.832  17.900   4.465  0.00  0.00    -0.165 F 
HETATM   33  F   UNK N   1      32.066  16.021   4.401  0.00  0.00    -0.165 F 
ENDBRANCH   7  30
BRANCH  10  34
HETATM   34  C   UNK N   1      29.587  18.076   9.202  0.00  0.00     0.449 C 
HETATM   35  F   UNK N   1      28.745  18.715   8.313  0.00  0.00    -0.163 F 
HETATM   36  F   UNK N   1      28.915  17.012   9.776  0.00  0.00    -0.163 F 
HETATM   37  F   UNK N   1      29.956  18.963  10.197  0.00  0.00    -0.163 F 
ENDBRANCH  10  34
TORSDOF 7
ENDMDL
MODEL 3
REMARK VINA RESULT:      -8.2      1.891      2.313
REMARK  7 active torsions:
REMARK  status: ('A' for Active; 'I' for Inactive)
REMARK       I    between atoms: N_3  and  C_21 
REMARK    1  A    between atoms: C_7  and  C_17 
REMARK    2  A    between atoms: C_10  and  C_13 
REMARK    3  A    between atoms: C_21  and  C_23 
REMARK    4  A    between atoms: C_23  and  C_24 
REMARK    5  A    between atoms: C_24  and  C_25 
REMARK    6  A    between atoms: C_24  and  N_35 
REMARK    7  A    between atoms: C_25  and  N_26 
ROOT
HETATM    1  C   UNK N   1      33.430  15.892   6.224  0.00  0.00     0.063 C 
HETATM    2  C   UNK N   1      33.760  14.544   6.839  0.00  0.00     0.131 C 
HETATM    3  N   UNK N   1      34.164  14.715   8.229  0.00  0.00    -0.346 N 
HETATM    4  C   UNK N   1      33.456  15.652   9.101  0.00  0.00     0.183 C 
HETATM    5  C   UNK N   1      32.354  16.409   8.416  0.00  0.00     0.037 A 
HETATM    6  C   UNK N   1      32.320  16.502   7.021  0.00  0.00    -0.001 A 
HETATM    7  C   UNK N   1      31.234  17.160   6.419  0.00  0.00     0.126 A 
HETATM    8  N   UNK N   1      30.257  17.685   7.208  0.00  0.00    -0.334 N 
ATOM      9  HN  UNK N   1      29.461  18.152   6.774  1.00  0.00     0.167 HD
HETATM   10  C   UNK N   1      30.320  17.602   8.566  0.00  0.00     0.191 A 
HETATM   11  N   UNK N   1      31.368  16.969   9.158  0.00  0.00    -0.340 N 
ATOM     12  HN  UNK N   1      31.411  16.915  10.175  1.00  0.00     0.167 HD
HETATM   13  C   UNK N   1      35.183  13.953   8.729  0.00  0.00     0.222 C 
HETATM   14  O   UNK N   1      35.781  13.171   8.008  0.00  0.00    -0.273 OA
ENDROOT
BRANCH  13  15
HETATM   15  C   UNK N   1      35.578  14.042  10.177  0.00  0.00     0.129 C 
BRANCH  15  16
HETATM   16  C   UNK N   1      34.796  13.026  11.002  0.00  0.00     0.100 C 
BRANCH  16  17
HETATM   17  C   UNK N   1      35.666  12.333  12.050  0.00  0.00     0.150 C 
BRANCH  17  18
HETATM   18  N   UNK N   1      35.405  12.762  13.409  0.00  0.00    -0.344 N 
HETATM   19  C   UNK N   1      36.133  13.898  13.931  0.00  0.00     0.204 C 
HETATM   20  C   UNK N   1      36.813  13.505  15.248  0.00  0.00     0.260 C 
HETATM   21  C   UNK N   1      35.825  12.846  16.240  0.00  0.00     0.090 C 
HETATM   22  F   UNK N   1      37.835  12.612  14.977  0.00  0.00    -0.205 F 
HETATM   23  F   UNK N   1      37.354  14.633  15.833  0.00  0.00    -0.205 F 
HETATM   24  C   UNK N   1      34.427  12.572  15.658  0.00  0.00     0.109 C 
HETATM   25  C   UNK N   1      34.563  12.094  14.245  0.00  0.00     0.220 C 
HETATM   26  O   UNK N   1      33.960  11.098  13.878  0.00  0.00    -0.273 OA
ENDBRANCH  17  18
ENDBRANCH  16  17
BRANCH  16  27
HETATM   27  N   UNK N   1      34.077  12.085  10.156  0.00  0.00    -0.424 N 
HETATM   28  H   UNK N   1      34.030  11.245   9.580  0.00  0.00     0.150 HD
HETATM   29  H   UNK N   1      33.129  12.460  10.123  0.00  0.00     0.150 HD
ENDBRANCH  16  27
ENDBRANCH  15  16
ENDBRANCH  13  15
BRANCH   7  30
HETATM   30  C   UNK N   1      31.134  17.297   4.924  0.00  0.00     0.433 C 
HETATM   31  F   UNK N   1      29.984  17.991   4.595  0.00  0.00    -0.165 F 
HETATM   32  F   UNK N   1      31.086  16.050   4.326  0.00  0.00    -0.165 F 
HETATM   33  F   UNK N   1      32.236  17.979   4.442  0.00  0.00    -0.165 F 
ENDBRANCH   7  30
BRANCH  10  34
HETATM   34  C   UNK N   1      29.237  18.195   9.413  0.00  0.00     0.449 C 
HETATM   35  F   UNK N   1      28.540  17.182  10.043  0.00  0.00    -0.163 F 
HETATM   36  F   UNK N   1      29.773  19.038  10.371  0.00  0.00    -0.163 F 
HETATM   37  F   UNK N   1      28.369  18.917   8.616  0.00  0.00    -0.163 F 
ENDBRANCH  10  34
TORSDOF 7
ENDMDL
MODEL 4
REMARK VINA RESULT:      -7.9     11.133     14.750
REMARK  7 active torsions:
REMARK  status: ('A' for Active; 'I' for Inactive)
REMARK       I    between atoms: N_3  and  C_21 
REMARK    1  A    between atoms: C_7  and  C_17 
REMARK    2  A    between atoms: C_10  and  C_13 
REMARK    3  A    between atoms: C_21  and  C_23 
REMARK    4  A    between atoms: C_23  and  C_24 
REMARK    5  A    between atoms: C_24  and  C_25 
REMARK    6  A    between atoms: C_24  and  N_35 
REMARK    7  A    between atoms: C_25  and  N_26 
ROOT
HETATM    1  C   UNK N   1      23.478  13.789   7.568  0.00  0.00     0.063 C 
HETATM    2  C   UNK N   1      24.545  14.823   7.258  0.00  0.00     0.131 C 
HETATM    3  N   UNK N   1      24.108  15.678   6.161  0.00  0.00    -0.346 N 
HETATM    4  C   UNK N   1      22.727  16.155   6.092  0.00  0.00     0.183 C 
HETATM    5  C   UNK N   1      21.851  15.646   7.202  0.00  0.00     0.037 A 
HETATM    6  C   UNK N   1      22.225  14.519   7.940  0.00  0.00    -0.001 A 
HETATM    7  C   UNK N   1      21.410  14.119   9.013  0.00  0.00     0.126 A 
HETATM    8  N   UNK N   1      20.288  14.836   9.296  0.00  0.00    -0.334 N 
ATOM      9  HN  UNK N   1      19.702  14.556  10.083  1.00  0.00     0.167 HD
HETATM   10  C   UNK N   1      19.930  15.918   8.552  0.00  0.00     0.191 A 
HETATM   11  N   UNK N   1      20.711  16.311   7.510  0.00  0.00    -0.340 N 
ATOM     12  HN  UNK N   1      20.434  17.120   6.953  1.00  0.00     0.167 HD
HETATM   13  C   UNK N   1      25.015  16.074   5.218  0.00  0.00     0.222 C 
HETATM   14  O   UNK N   1      26.169  15.678   5.267  0.00  0.00    -0.273 OA
ENDROOT
BRANCH  13  15
HETATM   15  C   UNK N   1      24.624  17.019   4.116  0.00  0.00     0.129 C 
BRANCH  15  16
HETATM   16  C   UNK N   1      24.303  18.395   4.689  0.00  0.00     0.100 C 
BRANCH  16  17
HETATM   17  C   UNK N   1      23.786  19.363   3.624  0.00  0.00     0.150 C 
BRANCH  17  18
HETATM   18  N   UNK N   1      22.342  19.447   3.557  0.00  0.00    -0.344 N 
HETATM   19  C   UNK N   1      21.556  18.665   4.486  0.00  0.00     0.204 C 
HETATM   20  C   UNK N   1      20.544  17.816   3.707  0.00  0.00     0.260 C 
HETATM   21  C   UNK N   1      19.724  18.661   2.703  0.00  0.00     0.090 C 
HETATM   22  F   UNK N   1      21.224  16.832   3.011  0.00  0.00    -0.205 F 
HETATM   23  F   UNK N   1      19.680  17.210   4.599  0.00  0.00    -0.205 F 
HETATM   24  C   UNK N   1      20.191  20.120   2.571  0.00  0.00     0.109 C 
HETATM   25  C   UNK N   1      21.688  20.168   2.604  0.00  0.00     0.220 C 
HETATM   26  O   UNK N   1      22.297  20.806   1.761  0.00  0.00    -0.273 OA
ENDBRANCH  17  18
ENDBRANCH  16  17
BRANCH  16  27
HETATM   27  N   UNK N   1      25.420  18.937   5.448  0.00  0.00    -0.424 N 
HETATM   28  H   UNK N   1      25.871  19.679   5.982  0.00  0.00     0.150 HD
HETATM   29  H   UNK N   1      26.108  18.184   5.445  0.00  0.00     0.150 HD
ENDBRANCH  16  27
ENDBRANCH  15  16
ENDBRANCH  13  15
BRANCH   7  30
HETATM   30  C   UNK N   1      21.753  12.916   9.848  0.00  0.00     0.433 C 
HETATM   31  F   UNK N   1      22.906  13.163  10.571  0.00  0.00    -0.165 F 
HETATM   32  F   UNK N   1      21.965  11.811   9.041  0.00  0.00    -0.165 F 
HETATM   33  F   UNK N   1      20.716  12.638  10.719  0.00  0.00    -0.165 F 
ENDBRANCH   7  30
BRANCH  10  34
HETATM   34  C   UNK N   1      18.687  16.686   8.878  0.00  0.00     0.449 C 
HETATM   35  F   UNK N   1      17.977  16.016   9.856  0.00  0.00    -0.163 F 
HETATM   36  F   UNK N   1      19.002  17.953   9.335  0.00  0.00    -0.163 F 
HETATM   37  F   UNK N   1      17.903  16.800   7.745  0.00  0.00    -0.163 F 
ENDBRANCH  10  34
TORSDOF 7
ENDMDL
MODEL 5
REMARK VINA RESULT:      -7.8     10.760     12.320
REMARK  7 active torsions:
REMARK  status: ('A' for Active; 'I' for Inactive)
REMARK       I    between atoms: N_3  and  C_21 
REMARK    1  A    between atoms: C_7  and  C_17 
REMARK    2  A    between atoms: C_10  and  C_13 
REMARK    3  A    between atoms: C_21  and  C_23 
REMARK    4  A    between atoms: C_23  and  C_24 
REMARK    5  A    between atoms: C_24  and  C_25 
REMARK    6  A    between atoms: C_24  and  N_35 
REMARK    7  A    between atoms: C_25  and  N_26 
ROOT
HETATM    1  C   UNK N   1      25.184  17.229   4.492  0.00  0.00     0.063 C 
HETATM    2  C   UNK N   1      25.135  15.823   3.922  0.00  0.00     0.131 C 
HETATM    3  N   UNK N   1      23.950  15.128   4.409  0.00  0.00    -0.346 N 
HETATM    4  C   UNK N   1      22.664  15.820   4.497  0.00  0.00     0.183 C 
HETATM    5  C   UNK N   1      22.721  17.265   4.093  0.00  0.00     0.037 A 
HETATM    6  C   UNK N   1      23.942  17.944   4.058  0.00  0.00    -0.001 A 
HETATM    7  C   UNK N   1      23.957  19.276   3.608  0.00  0.00     0.126 A 
HETATM    8  N   UNK N   1      22.789  19.858   3.223  0.00  0.00    -0.334 N 
ATOM      9  HN  UNK N   1      22.799  20.819   2.883  1.00  0.00     0.167 HD
HETATM   10  C   UNK N   1      21.606  19.186   3.284  0.00  0.00     0.191 A 
HETATM   11  N   UNK N   1      21.581  17.899   3.721  0.00  0.00    -0.340 N 
ATOM     12  HN  UNK N   1      20.691  17.403   3.769  1.00  0.00     0.167 HD
HETATM   13  C   UNK N   1      24.038  13.804   4.738  0.00  0.00     0.222 C 
HETATM   14  O   UNK N   1      25.108  13.220   4.670  0.00  0.00    -0.273 OA
ENDROOT
BRANCH  13  15
HETATM   15  C   UNK N   1      22.822  13.031   5.169  0.00  0.00     0.129 C 
BRANCH  15  16
HETATM   16  C   UNK N   1      22.952  12.612   6.629  0.00  0.00     0.100 C 
BRANCH  16  17
HETATM   17  C   UNK N   1      23.065  13.811   7.570  0.00  0.00     0.150 C 
BRANCH  17  18
HETATM   18  N   UNK N   1      22.431  13.610   8.857  0.00  0.00    -0.344 N 
HETATM   19  C   UNK N   1      23.257  13.253   9.990  0.00  0.00     0.204 C 
HETATM   20  C   UNK N   1      22.705  11.979  10.641  0.00  0.00     0.260 C 
HETATM   21  C   UNK N   1      21.191  12.086  10.940  0.00  0.00     0.090 C 
HETATM   22  F   UNK N   1      22.917  10.911   9.788  0.00  0.00    -0.205 F 
HETATM   23  F   UNK N   1      23.383  11.743  11.821  0.00  0.00    -0.205 F 
HETATM   24  C   UNK N   1      20.521  13.356  10.387  0.00  0.00     0.109 C 
HETATM   25  C   UNK N   1      21.082  13.663   9.031  0.00  0.00     0.220 C 
HETATM   26  O   UNK N   1      20.329  13.907   8.102  0.00  0.00    -0.273 OA
ENDBRANCH  17  18
ENDBRANCH  16  17
BRANCH  16  27
HETATM   27  N   UNK N   1      24.021  11.643   6.819  0.00  0.00    -0.424 N 
HETATM   28  H   UNK N   1      24.470  10.748   6.628  0.00  0.00     0.150 HD
HETATM   29  H   UNK N   1      24.643  12.093   7.490  0.00  0.00     0.150 HD
ENDBRANCH  16  27
ENDBRANCH  15  16
ENDBRANCH  13  15
BRANCH   7  30
HETATM   30  C   UNK N   1      25.236  20.064   3.546  0.00  0.00     0.433 C 
HETATM   31  F   UNK N   1      25.543  20.553   4.804  0.00  0.00    -0.165 F 
HETATM   32  F   UNK N   1      25.106  21.132   2.676  0.00  0.00    -0.165 F 
HETATM   33  F   UNK N   1      26.266  19.254   3.105  0.00  0.00    -0.165 F 
ENDBRANCH   7  30
BRANCH  10  34
HETATM   34  C   UNK N   1      20.333  19.851   2.863  0.00  0.00     0.449 C 
HETATM   35  F   UNK N   1      20.433  20.241   1.542  0.00  0.00    -0.163 F 
HETATM   36  F   UNK N   1      19.262  18.987   2.999  0.00  0.00    -0.163 F 
HETATM   37  F   UNK N   1      20.112  20.966   3.651  0.00  0.00    -0.163 F 
ENDBRANCH  10  34
TORSDOF 7
ENDMDL
MODEL 6
REMARK VINA RESULT:      -7.7      4.968      6.795
REMARK  7 active torsions:
REMARK  status: ('A' for Active; 'I' for Inactive)
REMARK       I    between atoms: N_3  and  C_21 
REMARK    1  A    between atoms: C_7  and  C_17 
REMARK    2  A    between atoms: C_10  and  C_13 
REMARK    3  A    between atoms: C_21  and  C_23 
REMARK    4  A    between atoms: C_23  and  C_24 
REMARK    5  A    between atoms: C_24  and  C_25 
REMARK    6  A    between atoms: C_24  and  N_35 
REMARK    7  A    between atoms: C_25  and  N_26 
ROOT
HETATM    1  C   UNK N   1      28.685  16.176   3.171  0.00  0.00     0.063 C 
HETATM    2  C   UNK N   1      29.673  15.036   3.340  0.00  0.00     0.131 C 
HETATM    3  N   UNK N   1      30.953  15.550   3.810  0.00  0.00    -0.346 N 
HETATM    4  C   UNK N   1      31.007  16.591   4.837  0.00  0.00     0.183 C 
HETATM    5  C   UNK N   1      29.657  17.072   5.288  0.00  0.00     0.037 A 
HETATM    6  C   UNK N   1      28.525  16.846   4.500  0.00  0.00    -0.001 A 
HETATM    7  C   UNK N   1      27.272  17.252   4.993  0.00  0.00     0.126 A 
HETATM    8  N   UNK N   1      27.203  17.850   6.214  0.00  0.00    -0.334 N 
ATOM      9  HN  UNK N   1      26.294  18.133   6.580  1.00  0.00     0.167 HD
HETATM   10  C   UNK N   1      28.321  18.079   6.957  0.00  0.00     0.191 A 
HETATM   11  N   UNK N   1      29.537  17.692   6.488  0.00  0.00    -0.340 N 
ATOM     12  HN  UNK N   1      30.371  17.872   7.047  1.00  0.00     0.167 HD
HETATM   13  C   UNK N   1      32.111  15.016   3.319  0.00  0.00     0.222 C 
HETATM   14  O   UNK N   1      32.076  14.149   2.460  0.00  0.00    -0.273 OA
ENDROOT
BRANCH  13  15
HETATM   15  C   UNK N   1      33.451  15.462   3.835  0.00  0.00     0.129 C 
BRANCH  15  16
HETATM   16  C   UNK N   1      33.878  14.597   5.015  0.00  0.00     0.100 C 
BRANCH  16  17
HETATM   17  C   UNK N   1      34.899  15.297   5.912  0.00  0.00     0.150 C 
BRANCH  17  18
HETATM   18  N   UNK N   1      34.315  15.984   7.045  0.00  0.00    -0.344 N 
HETATM   19  C   UNK N   1      33.969  15.215   8.220  0.00  0.00     0.204 C 
HETATM   20  C   UNK N   1      32.501  15.470   8.582  0.00  0.00     0.260 C 
HETATM   21  C   UNK N   1      32.175  16.981   8.666  0.00  0.00     0.090 C 
HETATM   22  F   UNK N   1      31.694  14.893   7.617  0.00  0.00    -0.205 F 
HETATM   23  F   UNK N   1      32.225  14.881   9.799  0.00  0.00    -0.205 F 
HETATM   24  C   UNK N   1      33.321  17.904   8.218  0.00  0.00     0.109 C 
HETATM   25  C   UNK N   1      34.002  17.309   7.023  0.00  0.00     0.220 C 
HETATM   26  O   UNK N   1      34.221  17.998   6.040  0.00  0.00    -0.273 OA
ENDBRANCH  17  18
ENDBRANCH  16  17
BRANCH  16  27
HETATM   27  N   UNK N   1      34.316  13.277   4.585  0.00  0.00    -0.424 N 
HETATM   28  H   UNK N   1      34.133  12.332   4.250  0.00  0.00     0.150 HD
HETATM   29  H   UNK N   1      35.332  13.321   4.657  0.00  0.00     0.150 HD
ENDBRANCH  16  27
ENDBRANCH  15  16
ENDBRANCH  13  15
BRANCH   7  30
HETATM   30  C   UNK N   1      26.014  17.041   4.197  0.00  0.00     0.433 C 
HETATM   31  F   UNK N   1      24.919  17.441   4.941  0.00  0.00    -0.165 F 
HETATM   32  F   UNK N   1      25.865  15.704   3.872  0.00  0.00    -0.165 F 
HETATM   33  F   UNK N   1      26.070  17.779   3.029  0.00  0.00    -0.165 F 
ENDBRANCH   7  30
BRANCH  10  34
HETATM   34  C   UNK N   1      28.220  18.746   8.294  0.00  0.00     0.449 C 
HETATM   35  F   UNK N   1      27.688  17.859   9.210  0.00  0.00    -0.163 F 
HETATM   36  F   UNK N   1      29.467  19.155   8.731  0.00  0.00    -0.163 F 
HETATM   37  F   UNK N   1      27.394  19.851   8.198  0.00  0.00    -0.163 F 
ENDBRANCH  10  34
TORSDOF 7
ENDMDL
MODEL 7
REMARK VINA RESULT:      -7.7      9.110     12.620
REMARK  7 active torsions:
REMARK  status: ('A' for Active; 'I' for Inactive)
REMARK       I    between atoms: N_3  and  C_21 
REMARK    1  A    between atoms: C_7  and  C_17 
REMARK    2  A    between atoms: C_10  and  C_13 
REMARK    3  A    between atoms: C_21  and  C_23 
REMARK    4  A    between atoms: C_23  and  C_24 
REMARK    5  A    between atoms: C_24  and  C_25 
REMARK    6  A    between atoms: C_24  and  N_35 
REMARK    7  A    between atoms: C_25  and  N_26 
ROOT
HETATM    1  C   UNK N   1      23.506  13.306   8.005  0.00  0.00     0.063 C 
HETATM    2  C   UNK N   1      24.694  14.193   7.681  0.00  0.00     0.131 C 
HETATM    3  N   UNK N   1      24.414  14.989   6.493  0.00  0.00    -0.346 N 
HETATM    4  C   UNK N   1      23.098  15.599   6.298  0.00  0.00     0.183 C 
HETATM    5  C   UNK N   1      22.113  15.283   7.387  0.00  0.00     0.037 A 
HETATM    6  C   UNK N   1      22.321  14.192   8.236  0.00  0.00    -0.001 A 
HETATM    7  C   UNK N   1      21.410  13.974   9.284  0.00  0.00     0.126 A 
HETATM    8  N   UNK N   1      20.359  14.826   9.436  0.00  0.00    -0.334 N 
ATOM      9  HN  UNK N   1      19.704  14.679  10.204  1.00  0.00     0.167 HD
HETATM   10  C   UNK N   1      20.162  15.871   8.585  0.00  0.00     0.191 A 
HETATM   11  N   UNK N   1      21.037  16.088   7.567  0.00  0.00    -0.340 N 
ATOM     12  HN  UNK N   1      20.881  16.869   6.930  1.00  0.00     0.167 HD
HETATM   13  C   UNK N   1      25.408  15.206   5.581  0.00  0.00     0.222 C 
HETATM   14  O   UNK N   1      26.508  14.698   5.735  0.00  0.00    -0.273 OA
ENDROOT
BRANCH  13  15
HETATM   15  C   UNK N   1      25.183  16.086   4.383  0.00  0.00     0.129 C 
BRANCH  15  16
HETATM   16  C   UNK N   1      26.514  16.610   3.855  0.00  0.00     0.100 C 
BRANCH  16  17
HETATM   17  C   UNK N   1      26.473  18.109   3.558  0.00  0.00     0.150 C 
BRANCH  17  18
HETATM   18  N   UNK N   1      27.156  18.923   4.542  0.00  0.00    -0.344 N 
HETATM   19  C   UNK N   1      28.392  18.434   5.111  0.00  0.00     0.204 C 
HETATM   20  C   UNK N   1      28.288  18.444   6.641  0.00  0.00     0.260 C 
HETATM   21  C   UNK N   1      27.812  19.813   7.184  0.00  0.00     0.090 C 
HETATM   22  F   UNK N   1      27.388  17.470   7.037  0.00  0.00    -0.205 F 
HETATM   23  F   UNK N   1      29.524  18.149   7.181  0.00  0.00    -0.205 F 
HETATM   24  C   UNK N   1      27.389  20.815   6.097  0.00  0.00     0.109 C 
HETATM   25  C   UNK N   1      26.644  20.092   5.016  0.00  0.00     0.220 C 
HETATM   26  O   UNK N   1      25.578  20.530   4.613  0.00  0.00    -0.273 OA
ENDBRANCH  17  18
ENDBRANCH  16  17
BRANCH  16  27
HETATM   27  N   UNK N   1      26.993  15.825   2.727  0.00  0.00    -0.424 N 
HETATM   28  H   UNK N   1      27.090  15.650   1.727  0.00  0.00     0.150 HD
HETATM   29  H   UNK N   1      27.489  15.048   3.162  0.00  0.00     0.150 HD
ENDBRANCH  16  27
ENDBRANCH  15  16
ENDBRANCH  13  15
BRANCH   7  30
HETATM   30  C   UNK N   1      21.574  12.820  10.234  0.00  0.00     0.433 C 
HETATM   31  F   UNK N   1      22.644  13.059  11.077  0.00  0.00    -0.165 F 
HETATM   32  F   UNK N   1      21.812  11.649   9.536  0.00  0.00    -0.165 F 
HETATM   33  F   UNK N   1      20.424  12.664  10.985  0.00  0.00    -0.165 F 
ENDBRANCH   7  30
BRANCH  10  34
HETATM   34  C   UNK N   1      18.994  16.789   8.768  0.00  0.00     0.449 C 
HETATM   35  F   UNK N   1      18.211  16.334   9.812  0.00  0.00    -0.163 F 
HETATM   36  F   UNK N   1      19.422  18.073   9.050  0.00  0.00    -0.163 F 
HETATM   37  F   UNK N   1      18.239  16.812   7.610  0.00  0.00    -0.163 F 
ENDBRANCH  10  34
TORSDOF 7
ENDMDL
MODEL 8
REMARK VINA RESULT:      -7.7      8.489     10.881
REMARK  7 active torsions:
REMARK  status: ('A' for Active; 'I' for Inactive)
REMARK       I    between atoms: N_3  and  C_21 
REMARK    1  A    between atoms: C_7  and  C_17 
REMARK    2  A    between atoms: C_10  and  C_13 
REMARK    3  A    between atoms: C_21  and  C_23 
REMARK    4  A    between atoms: C_23  and  C_24 
REMARK    5  A    between atoms: C_24  and  C_25 
REMARK    6  A    between atoms: C_24  and  N_35 
REMARK    7  A    between atoms: C_25  and  N_26 
ROOT
HETATM    1  C   UNK N   1      25.741  18.354   4.032  0.00  0.00     0.063 C 
HETATM    2  C   UNK N   1      24.386  17.686   4.177  0.00  0.00     0.131 C 
HETATM    3  N   UNK N   1      24.556  16.269   4.468  0.00  0.00    -0.346 N 
HETATM    4  C   UNK N   1      25.585  15.818   5.405  0.00  0.00     0.183 C 
HETATM    5  C   UNK N   1      26.429  16.929   5.963  0.00  0.00     0.037 A 
HETATM    6  C   UNK N   1      26.484  18.169   5.319  0.00  0.00    -0.001 A 
HETATM    7  C   UNK N   1      27.231  19.201   5.913  0.00  0.00     0.126 A 
HETATM    8  N   UNK N   1      27.875  18.961   7.088  0.00  0.00    -0.334 N 
ATOM      9  HN  UNK N   1      28.407  19.712   7.528  1.00  0.00     0.167 HD
HETATM   10  C   UNK N   1      27.826  17.739   7.688  0.00  0.00     0.191 A 
HETATM   11  N   UNK N   1      27.108  16.734   7.120  0.00  0.00    -0.340 N 
ATOM     12  HN  UNK N   1      27.080  15.820   7.572  1.00  0.00     0.167 HD
HETATM   13  C   UNK N   1      23.710  15.360   3.895  0.00  0.00     0.222 C 
HETATM   14  O   UNK N   1      22.850  15.727   3.109  0.00  0.00    -0.273 OA
ENDROOT
BRANCH  13  15
HETATM   15  C   UNK N   1      23.802  13.898   4.230  0.00  0.00     0.129 C 
BRANCH  15  16
HETATM   16  C   UNK N   1      22.694  13.508   5.202  0.00  0.00     0.100 C 
BRANCH  16  17
HETATM   17  C   UNK N   1      23.172  12.521   6.266  0.00  0.00     0.150 C 
BRANCH  17  18
HETATM   18  N   UNK N   1      23.026  13.004   7.624  0.00  0.00    -0.344 N 
HETATM   19  C   UNK N   1      24.205  13.443   8.336  0.00  0.00     0.204 C 
HETATM   20  C   UNK N   1      24.300  12.699   9.674  0.00  0.00     0.260 C 
HETATM   21  C   UNK N   1      22.981  12.777  10.479  0.00  0.00     0.090 C 
HETATM   22  F   UNK N   1      24.596  11.370   9.428  0.00  0.00    -0.205 F 
HETATM   23  F   UNK N   1      25.321  13.248  10.426  0.00  0.00    -0.205 F 
HETATM   24  C   UNK N   1      21.812  13.428   9.721  0.00  0.00     0.109 C 
HETATM   25  C   UNK N   1      21.838  12.986   8.290  0.00  0.00     0.220 C 
HETATM   26  O   UNK N   1      20.818  12.576   7.759  0.00  0.00    -0.273 OA
ENDBRANCH  17  18
ENDBRANCH  16  17
BRANCH  16  27
HETATM   27  N   UNK N   1      21.501  13.049   4.504  0.00  0.00    -0.424 N 
HETATM   28  H   UNK N   1      20.990  12.364   3.949  0.00  0.00     0.150 HD
HETATM   29  H   UNK N   1      20.830  13.805   4.642  0.00  0.00     0.150 HD
ENDBRANCH  16  27
ENDBRANCH  15  16
ENDBRANCH  13  15
BRANCH   7  30
HETATM   30  C   UNK N   1      27.333  20.559   5.274  0.00  0.00     0.433 C 
HETATM   31  F   UNK N   1      27.995  21.426   6.125  0.00  0.00    -0.165 F 
HETATM   32  F   UNK N   1      26.073  21.068   5.015  0.00  0.00    -0.165 F 
HETATM   33  F   UNK N   1      28.029  20.465   4.083  0.00  0.00    -0.165 F 
ENDBRANCH   7  30
BRANCH  10  34
HETATM   34  C   UNK N   1      28.550  17.497   8.976  0.00  0.00     0.449 C 
HETATM   35  F   UNK N   1      27.778  16.693   9.793  0.00  0.00    -0.163 F 
HETATM   36  F   UNK N   1      29.763  16.874   8.745  0.00  0.00    -0.163 F 
HETATM   37  F   UNK N   1      28.780  18.704   9.611  0.00  0.00    -0.163 F 
ENDBRANCH  10  34
TORSDOF 7
ENDMDL
MODEL 9
REMARK VINA RESULT:      -7.6      2.462      9.265
REMARK  7 active torsions:
REMARK  status: ('A' for Active; 'I' for Inactive)
REMARK       I    between atoms: N_3  and  C_21 
REMARK    1  A    between atoms: C_7  and  C_17 
REMARK    2  A    between atoms: C_10  and  C_13 
REMARK    3  A    between atoms: C_21  and  C_23 
REMARK    4  A    between atoms: C_23  and  C_24 
REMARK    5  A    between atoms: C_24  and  C_25 
REMARK    6  A    between atoms: C_24  and  N_35 
REMARK    7  A    between atoms: C_25  and  N_26 
ROOT
HETATM    1  C   UNK N   1      37.314  11.514  12.156  0.00  0.00     0.063 C 
HETATM    2  C   UNK N   1      37.858  12.729  11.428  0.00  0.00     0.131 C 
HETATM    3  N   UNK N   1      36.795  13.704  11.219  0.00  0.00    -0.346 N 
HETATM    4  C   UNK N   1      35.821  13.983  12.275  0.00  0.00     0.183 C 
HETATM    5  C   UNK N   1      36.012  13.155  13.513  0.00  0.00     0.037 A 
HETATM    6  C   UNK N   1      36.760  11.974  13.468  0.00  0.00    -0.001 A 
HETATM    7  C   UNK N   1      36.969  11.267  14.665  0.00  0.00     0.126 A 
HETATM    8  N   UNK N   1      36.440  11.751  15.822  0.00  0.00    -0.334 N 
ATOM      9  HN  UNK N   1      36.602  11.247  16.693  1.00  0.00     0.167 HD
HETATM   10  C   UNK N   1      35.696  12.891  15.840  0.00  0.00     0.191 A 
HETATM   11  N   UNK N   1      35.486  13.581  14.688  0.00  0.00    -0.340 N 
ATOM     12  HN  UNK N   1      34.924  14.432  14.708  1.00  0.00     0.167 HD
HETATM   13  C   UNK N   1      36.743  14.396  10.041  0.00  0.00     0.222 C 
HETATM   14  O   UNK N   1      37.550  14.168   9.154  0.00  0.00    -0.273 OA
ENDROOT
BRANCH  13  15
HETATM   15  C   UNK N   1      35.710  15.466   9.817  0.00  0.00     0.129 C 
BRANCH  15  16
HETATM   16  C   UNK N   1      34.650  14.979   8.836  0.00  0.00     0.100 C 
BRANCH  16  17
HETATM   17  C   UNK N   1      33.229  15.247   9.333  0.00  0.00     0.150 C 
BRANCH  17  18
HETATM   18  N   UNK N   1      32.415  16.007   8.408  0.00  0.00    -0.344 N 
HETATM   19  C   UNK N   1      32.167  17.404   8.687  0.00  0.00     0.204 C 
HETATM   20  C   UNK N   1      30.656  17.667   8.672  0.00  0.00     0.260 C 
HETATM   21  C   UNK N   1      29.983  17.124   7.389  0.00  0.00     0.090 C 
HETATM   22  F   UNK N   1      30.083  17.052   9.771  0.00  0.00    -0.205 F 
HETATM   23  F   UNK N   1      30.432  19.027   8.759  0.00  0.00    -0.205 F 
HETATM   24  C   UNK N   1      30.914  16.302   6.481  0.00  0.00     0.109 C 
HETATM   25  C   UNK N   1      31.804  15.445   7.328  0.00  0.00     0.220 C 
HETATM   26  O   UNK N   1      31.933  14.259   7.071  0.00  0.00    -0.273 OA
ENDBRANCH  17  18
ENDBRANCH  16  17
BRANCH  16  27
HETATM   27  N   UNK N   1      34.862  13.589   8.458  0.00  0.00    -0.424 N 
HETATM   28  H   UNK N   1      35.465  12.798   8.236  0.00  0.00     0.150 HD
HETATM   29  H   UNK N   1      33.918  13.212   8.370  0.00  0.00     0.150 HD
ENDBRANCH  16  27
ENDBRANCH  15  16
ENDBRANCH  13  15
BRANCH   7  30
HETATM   30  C   UNK N   1      37.763   9.990  14.688  0.00  0.00     0.433 C 
HETATM   31  F   UNK N   1      37.231   9.094  13.779  0.00  0.00    -0.165 F 
HETATM   32  F   UNK N   1      37.725   9.418  15.947  0.00  0.00    -0.165 F 
HETATM   33  F   UNK N   1      39.080  10.251  14.358  0.00  0.00    -0.165 F 
ENDBRANCH   7  30
BRANCH  10  34
HETATM   34  C   UNK N   1      35.117  13.398  17.124  0.00  0.00     0.449 C 
HETATM   35  F   UNK N   1      33.816  13.810  16.910  0.00  0.00    -0.163 F 
HETATM   36  F   UNK N   1      35.125  12.406  18.089  0.00  0.00    -0.163 F 
HETATM   37  F   UNK N   1      35.864  14.470  17.577  0.00  0.00    -0.163 F 
ENDBRANCH  10  34
TORSDOF 7
ENDMDL
