MODEL 1
REMARK VINA RESULT:      -7.2      0.000      0.000
REMARK  12 active torsions:
REMARK  status: ('A' for Active; 'I' for Inactive)
REMARK    1  A    between atoms: C_2  and  C_1 
REMARK    2  A    between atoms: C_11  and  C_1 
REMARK    3  A    between atoms: C_12  and  C_2 
REMARK    4  A    between atoms: C_8  and  C_7 
REMARK    5  A    between atoms: C_15  and  C_7 
REMARK    6  A    between atoms: C_16  and  C_8 
REMARK    7  A    between atoms: C_18  and  C_13 
REMARK    8  A    between atoms: C_20  and  C_15 
REMARK    9  A    between atoms: C_15  and  N_25 
REMARK   10  A    between atoms: O_30  and  C_16 
REMARK       I    between atoms: N_25  and  C_18 
REMARK   11  A    between atoms: O_32  and  C_19 
REMARK   12  A    between atoms: O_34  and  C_20 
REMARK       I    between atoms: N_22  and  C_21 
ROOT
HETATM    1  C   UNK N   1      33.723  12.637   8.507  0.00  0.00     0.008 A 
HETATM    2  C   UNK N   1      34.876  14.168   7.039  0.00  0.00     0.008 A 
HETATM    3  C   UNK N   1      34.780  12.690   9.403  0.00  0.00     0.017 A 
HETATM    4  C   UNK N   1      35.920  14.257   7.969  0.00  0.00     0.017 A 
HETATM    5  C   UNK N   1      33.784  13.338   7.307  0.00  0.00    -0.058 A 
HETATM    6  C   UNK N   1      35.895  13.492   9.144  0.00  0.00     0.032 A 
ENDROOT
BRANCH   5   7
HETATM    7  C   UNK N   1      32.764  13.050   6.262  0.00  0.00     0.039 C 
BRANCH   7   8
HETATM    8  C   UNK N   1      32.657  14.201   5.238  0.00  0.00     0.011 C 
BRANCH   8   9
HETATM    9  C   UNK N   1      31.374  15.070   5.281  0.00  0.00     0.008 C 
HETATM   10  C   UNK N   1      31.019  15.553   6.694  0.00  0.00     0.053 C 
HETATM   11  C   UNK N   1      32.086  16.450   7.232  0.00  0.00     0.038 A 
HETATM   12  C   UNK N   1      32.820  17.253   6.353  0.00  0.00     0.127 A 
HETATM   13  C   UNK N   1      32.379  16.500   8.595  0.00  0.00     0.165 A 
HETATM   14  N   UNK N   1      32.561  17.203   4.955  0.00  0.00    -0.375 N 
HETATM   15  N   UNK N   1      33.803  18.054   6.836  0.00  0.00    -0.176 N 
HETATM   16  C   UNK N   1      31.564  16.305   4.395  0.00  0.00     0.126 C 
HETATM   17  H   UNK N   1      33.068  17.793   4.352  0.00  0.00     0.161 HD
HETATM   18  C   UNK N   1      34.080  18.087   8.167  0.00  0.00     0.679 A 
HETATM   19  H   UNK N   1      34.321  18.617   6.216  0.00  0.00     0.186 HD
HETATM   20  N   UNK N   1      35.017  18.839   8.603  0.00  0.00    -0.234 N 
HETATM   21  N   UNK N   1      33.371  17.317   9.036  0.00  0.00    -0.170 N 
HETATM   22  H   UNK N   1      35.711  19.246   8.035  0.00  0.00     0.174 HD
ATOM     23  HN  UNK N   1      35.048  19.031   9.605  1.00  0.00     0.174 HD
ATOM     24  HN  UNK N   1      33.588  17.353  10.032  1.00  0.00     0.186 HD
BRANCH  13  25
HETATM   25  O   UNK N   1      31.695  15.745   9.473  0.00  0.00    -0.345 OA
HETATM   26  H   UNK N   1      32.066  15.533  10.306  0.00  0.00     0.219 HD
ENDBRANCH  13  25
ENDBRANCH   8   9
ENDBRANCH   7   8
ENDBRANCH   5   7
BRANCH   6  27
HETATM   27  C   UNK N   1      37.086  13.336  10.020  0.00  0.00     0.252 C 
HETATM   28  N   UNK N   1      37.306  14.012  11.184  0.00  0.00    -0.343 N 
HETATM   29  H   UNK N   1      38.236  13.994  11.508  0.00  0.00     0.163 HD
HETATM   30  O   UNK N   1      37.939  12.536   9.664  0.00  0.00    -0.268 OA
BRANCH  28  31
HETATM   31  C   UNK N   1      36.380  14.758  12.022  0.00  0.00     0.183 C 
BRANCH  31  32
HETATM   32  C   UNK N   1      35.527  13.849  12.916  0.00  0.00     0.046 C 
BRANCH  32  33
HETATM   33  C   UNK N   1      36.393  13.066  13.913  0.00  0.00     0.112 C 
BRANCH  33  34
HETATM   34  C   UNK N   1      36.558  13.745  15.247  0.00  0.00     0.139 C 
HETATM   35  O   UNK N   1      35.753  13.565  16.150  0.00  0.00    -0.650 OA
BRANCH  34  36
HETATM   36  O   UNK N   1      37.611  14.557  15.452  0.00  0.00    -0.776 OA
HETATM   37  H   UNK N   1      38.295  14.769  14.847  0.00  0.00     0.167 HD
ENDBRANCH  34  36
ENDBRANCH  33  34
ENDBRANCH  32  33
ENDBRANCH  31  32
BRANCH  31  38
HETATM   38  C   UNK N   1      35.586  15.803  11.281  0.00  0.00     0.163 C 
HETATM   39  O   UNK N   1      36.133  16.716  10.691  0.00  0.00    -0.648 OA
BRANCH  38  40
HETATM   40  O   UNK N   1      34.243  15.709  11.246  0.00  0.00    -0.775 OA
HETATM   41  H   UNK N   1      33.835  14.880  11.089  0.00  0.00     0.167 HD
ENDBRANCH  38  40
ENDBRANCH  31  38
ENDBRANCH  28  31
ENDBRANCH   6  27
TORSDOF 12
ENDMDL
MODEL 2
REMARK VINA RESULT:      -7.2      3.432      5.342
REMARK  12 active torsions:
REMARK  status: ('A' for Active; 'I' for Inactive)
REMARK    1  A    between atoms: C_2  and  C_1 
REMARK    2  A    between atoms: C_11  and  C_1 
REMARK    3  A    between atoms: C_12  and  C_2 
REMARK    4  A    between atoms: C_8  and  C_7 
REMARK    5  A    between atoms: C_15  and  C_7 
REMARK    6  A    between atoms: C_16  and  C_8 
REMARK    7  A    between atoms: C_18  and  C_13 
REMARK    8  A    between atoms: C_20  and  C_15 
REMARK    9  A    between atoms: C_15  and  N_25 
REMARK   10  A    between atoms: O_30  and  C_16 
REMARK       I    between atoms: N_25  and  C_18 
REMARK   11  A    between atoms: O_32  and  C_19 
REMARK   12  A    between atoms: O_34  and  C_20 
REMARK       I    between atoms: N_22  and  C_21 
ROOT
HETATM    1  C   UNK N   1      31.406  17.071   6.524  0.00  0.00     0.008 A 
HETATM    2  C   UNK N   1      33.305  16.490   5.149  0.00  0.00     0.008 A 
HETATM    3  C   UNK N   1      32.252  17.640   7.463  0.00  0.00     0.017 A 
HETATM    4  C   UNK N   1      34.153  17.109   6.077  0.00  0.00     0.017 A 
HETATM    5  C   UNK N   1      31.928  16.458   5.389  0.00  0.00    -0.058 A 
HETATM    6  C   UNK N   1      33.635  17.660   7.259  0.00  0.00     0.032 A 
ENDROOT
BRANCH   5   7
HETATM    7  C   UNK N   1      31.020  15.633   4.545  0.00  0.00     0.039 C 
BRANCH   7   8
HETATM    8  C   UNK N   1      29.752  16.416   4.140  0.00  0.00     0.011 C 
BRANCH   8   9
HETATM    9  C   UNK N   1      28.384  15.769   4.475  0.00  0.00     0.008 C 
HETATM   10  C   UNK N   1      27.909  16.067   5.904  0.00  0.00     0.053 C 
HETATM   11  C   UNK N   1      27.677  17.531   6.091  0.00  0.00     0.038 A 
HETATM   12  C   UNK N   1      27.251  18.307   5.008  0.00  0.00     0.127 A 
HETATM   13  C   UNK N   1      27.886  18.152   7.324  0.00  0.00     0.165 A 
HETATM   14  N   UNK N   1      27.055  17.706   3.734  0.00  0.00    -0.375 N 
HETATM   15  N   UNK N   1      27.059  19.641   5.171  0.00  0.00    -0.176 N 
HETATM   16  C   UNK N   1      27.320  16.295   3.506  0.00  0.00     0.126 C 
HETATM   17  H   UNK N   1      26.731  18.260   2.987  0.00  0.00     0.161 HD
HETATM   18  C   UNK N   1      27.272  20.231   6.377  0.00  0.00     0.679 A 
HETATM   19  H   UNK N   1      26.762  20.186   4.407  0.00  0.00     0.186 HD
HETATM   20  N   UNK N   1      27.097  21.490   6.508  0.00  0.00    -0.234 N 
HETATM   21  N   UNK N   1      27.681  19.489   7.442  0.00  0.00    -0.170 N 
HETATM   22  H   UNK N   1      27.024  22.122   5.757  0.00  0.00     0.174 HD
ATOM     23  HN  UNK N   1      27.027  21.865   7.455  1.00  0.00     0.174 HD
ATOM     24  HN  UNK N   1      27.835  19.945   8.342  1.00  0.00     0.186 HD
BRANCH  13  25
HETATM   25  O   UNK N   1      28.294  17.440   8.390  0.00  0.00    -0.345 OA
HETATM   26  H   UNK N   1      28.497  17.870   9.197  0.00  0.00     0.219 HD
ENDBRANCH  13  25
ENDBRANCH   8   9
ENDBRANCH   7   8
ENDBRANCH   5   7
BRANCH   6  27
HETATM   27  C   UNK N   1      34.503  18.074   8.393  0.00  0.00     0.252 C 
HETATM   28  N   UNK N   1      34.936  17.258   9.396  0.00  0.00    -0.343 N 
HETATM   29  H   UNK N   1      35.279  17.724  10.193  0.00  0.00     0.163 HD
HETATM   30  O   UNK N   1      34.854  19.244   8.427  0.00  0.00    -0.268 OA
BRANCH  28  31
HETATM   31  C   UNK N   1      34.970  15.807   9.473  0.00  0.00     0.183 C 
BRANCH  31  32
HETATM   32  C   UNK N   1      33.597  15.199   9.789  0.00  0.00     0.046 C 
BRANCH  32  33
HETATM   33  C   UNK N   1      33.076  14.347   8.622  0.00  0.00     0.112 C 
BRANCH  33  34
HETATM   34  C   UNK N   1      33.430  12.887   8.721  0.00  0.00     0.139 C 
HETATM   35  O   UNK N   1      32.578  12.046   8.970  0.00  0.00    -0.650 OA
BRANCH  34  36
HETATM   36  O   UNK N   1      34.705  12.500   8.528  0.00  0.00    -0.776 OA
HETATM   37  H   UNK N   1      35.070  12.101   7.763  0.00  0.00     0.167 HD
ENDBRANCH  34  36
ENDBRANCH  33  34
ENDBRANCH  32  33
ENDBRANCH  31  32
BRANCH  31  38
HETATM   38  C   UNK N   1      36.088  15.260  10.323  0.00  0.00     0.163 C 
HETATM   39  O   UNK N   1      36.200  14.067  10.533  0.00  0.00    -0.648 OA
BRANCH  38  40
HETATM   40  O   UNK N   1      37.001  16.107  10.836  0.00  0.00    -0.775 OA
HETATM   41  H   UNK N   1      37.603  16.548  10.269  0.00  0.00     0.167 HD
ENDBRANCH  38  40
ENDBRANCH  31  38
ENDBRANCH  28  31
ENDBRANCH   6  27
TORSDOF 12
ENDMDL
MODEL 3
REMARK VINA RESULT:      -7.2      9.180     12.940
REMARK  12 active torsions:
REMARK  status: ('A' for Active; 'I' for Inactive)
REMARK    1  A    between atoms: C_2  and  C_1 
REMARK    2  A    between atoms: C_11  and  C_1 
REMARK    3  A    between atoms: C_12  and  C_2 
REMARK    4  A    between atoms: C_8  and  C_7 
REMARK    5  A    between atoms: C_15  and  C_7 
REMARK    6  A    between atoms: C_16  and  C_8 
REMARK    7  A    between atoms: C_18  and  C_13 
REMARK    8  A    between atoms: C_20  and  C_15 
REMARK    9  A    between atoms: C_15  and  N_25 
REMARK   10  A    between atoms: O_30  and  C_16 
REMARK       I    between atoms: N_25  and  C_18 
REMARK   11  A    between atoms: O_32  and  C_19 
REMARK   12  A    between atoms: O_34  and  C_20 
REMARK       I    between atoms: N_22  and  C_21 
ROOT
HETATM    1  C   UNK N   1      25.690  15.538   2.658  0.00  0.00     0.008 A 
HETATM    2  C   UNK N   1      25.336  15.176   5.020  0.00  0.00     0.008 A 
HETATM    3  C   UNK N   1      26.891  16.175   2.930  0.00  0.00     0.017 A 
HETATM    4  C   UNK N   1      26.574  15.777   5.287  0.00  0.00     0.017 A 
HETATM    5  C   UNK N   1      24.889  15.076   3.699  0.00  0.00    -0.058 A 
HETATM    6  C   UNK N   1      27.346  16.311   4.244  0.00  0.00     0.032 A 
ENDROOT
BRANCH   5   7
HETATM    7  C   UNK N   1      23.500  14.642   3.388  0.00  0.00     0.039 C 
BRANCH   7   8
HETATM    8  C   UNK N   1      22.575  15.849   3.116  0.00  0.00     0.011 C 
BRANCH   8   9
HETATM    9  C   UNK N   1      21.107  15.739   3.603  0.00  0.00     0.008 C 
HETATM   10  C   UNK N   1      20.573  17.045   4.208  0.00  0.00     0.053 C 
HETATM   11  C   UNK N   1      20.538  18.130   3.182  0.00  0.00     0.038 A 
HETATM   12  C   UNK N   1      20.309  17.804   1.841  0.00  0.00     0.127 A 
HETATM   13  C   UNK N   1      20.740  19.468   3.525  0.00  0.00     0.165 A 
HETATM   14  N   UNK N   1      20.126  16.447   1.458  0.00  0.00    -0.375 N 
HETATM   15  N   UNK N   1      20.297  18.786   0.903  0.00  0.00    -0.176 N 
HETATM   16  C   UNK N   1      20.205  15.364   2.424  0.00  0.00     0.126 C 
HETATM   17  H   UNK N   1      19.941  16.236   0.514  0.00  0.00     0.161 HD
HETATM   18  C   UNK N   1      20.500  20.084   1.254  0.00  0.00     0.679 A 
HETATM   19  H   UNK N   1      20.138  18.555  -0.040  0.00  0.00     0.186 HD
HETATM   20  N   UNK N   1      20.496  20.993   0.356  0.00  0.00    -0.234 N 
HETATM   21  N   UNK N   1      20.718  20.418   2.555  0.00  0.00    -0.170 N 
HETATM   22  H   UNK N   1      20.570  20.819  -0.610  0.00  0.00     0.174 HD
ATOM     23  HN  UNK N   1      20.409  21.963   0.660  1.00  0.00     0.174 HD
ATOM     24  HN  UNK N   1      20.867  21.396   2.804  1.00  0.00     0.186 HD
BRANCH  13  25
HETATM   25  O   UNK N   1      20.961  19.822   4.804  0.00  0.00    -0.345 OA
HETATM   26  H   UNK N   1      21.038  19.168   5.470  0.00  0.00     0.219 HD
ENDBRANCH  13  25
ENDBRANCH   8   9
ENDBRANCH   7   8
ENDBRANCH   5   7
BRANCH   6  27
HETATM   27  C   UNK N   1      28.516  17.195   4.491  0.00  0.00     0.252 C 
HETATM   28  N   UNK N   1      28.455  18.529   4.767  0.00  0.00    -0.343 N 
HETATM   29  H   UNK N   1      29.303  19.017   4.651  0.00  0.00     0.163 HD
HETATM   30  O   UNK N   1      29.623  16.680   4.440  0.00  0.00    -0.268 OA
BRANCH  28  31
HETATM   31  C   UNK N   1      27.333  19.343   5.206  0.00  0.00     0.183 C 
BRANCH  31  32
HETATM   32  C   UNK N   1      26.701  20.145   4.060  0.00  0.00     0.046 C 
BRANCH  32  33
HETATM   33  C   UNK N   1      25.219  19.789   3.874  0.00  0.00     0.112 C 
BRANCH  33  34
HETATM   34  C   UNK N   1      24.526  20.584   2.799  0.00  0.00     0.139 C 
HETATM   35  O   UNK N   1      24.981  20.641   1.666  0.00  0.00    -0.650 OA
BRANCH  34  36
HETATM   36  O   UNK N   1      23.386  21.236   3.089  0.00  0.00    -0.776 OA
HETATM   37  H   UNK N   1      22.598  21.262   2.582  0.00  0.00     0.167 HD
ENDBRANCH  34  36
ENDBRANCH  33  34
ENDBRANCH  32  33
ENDBRANCH  31  32
BRANCH  31  38
HETATM   38  C   UNK N   1      27.612  20.162   6.441  0.00  0.00     0.163 C 
HETATM   39  O   UNK N   1      27.790  19.636   7.523  0.00  0.00    -0.648 OA
BRANCH  38  40
HETATM   40  O   UNK N   1      27.697  21.502   6.339  0.00  0.00    -0.775 OA
HETATM   41  H   UNK N   1      26.958  22.037   6.553  0.00  0.00     0.167 HD
ENDBRANCH  38  40
ENDBRANCH  31  38
ENDBRANCH  28  31
ENDBRANCH   6  27
TORSDOF 12
ENDMDL
MODEL 4
REMARK VINA RESULT:      -7.1      8.369     11.701
REMARK  12 active torsions:
REMARK  status: ('A' for Active; 'I' for Inactive)
REMARK    1  A    between atoms: C_2  and  C_1 
REMARK    2  A    between atoms: C_11  and  C_1 
REMARK    3  A    between atoms: C_12  and  C_2 
REMARK    4  A    between atoms: C_8  and  C_7 
REMARK    5  A    between atoms: C_15  and  C_7 
REMARK    6  A    between atoms: C_16  and  C_8 
REMARK    7  A    between atoms: C_18  and  C_13 
REMARK    8  A    between atoms: C_20  and  C_15 
REMARK    9  A    between atoms: C_15  and  N_25 
REMARK   10  A    between atoms: O_30  and  C_16 
REMARK       I    between atoms: N_25  and  C_18 
REMARK   11  A    between atoms: O_32  and  C_19 
REMARK   12  A    between atoms: O_34  and  C_20 
REMARK       I    between atoms: N_22  and  C_21 
ROOT
HETATM    1  C   UNK N   1      25.150  15.929   2.876  0.00  0.00     0.008 A 
HETATM    2  C   UNK N   1      24.823  16.130   5.261  0.00  0.00     0.008 A 
HETATM    3  C   UNK N   1      26.203  16.829   2.939  0.00  0.00     0.017 A 
HETATM    4  C   UNK N   1      25.918  17.002   5.327  0.00  0.00     0.017 A 
HETATM    5  C   UNK N   1      24.431  15.609   4.024  0.00  0.00    -0.058 A 
HETATM    6  C   UNK N   1      26.596  17.384   4.160  0.00  0.00     0.032 A 
ENDROOT
BRANCH   5   7
HETATM    7  C   UNK N   1      23.156  14.856   3.877  0.00  0.00     0.039 C 
BRANCH   7   8
HETATM    8  C   UNK N   1      21.982  15.790   3.509  0.00  0.00     0.011 C 
BRANCH   8   9
HETATM    9  C   UNK N   1      21.294  16.554   4.670  0.00  0.00     0.008 C 
HETATM   10  C   UNK N   1      21.784  18.002   4.813  0.00  0.00     0.053 C 
HETATM   11  C   UNK N   1      21.443  18.800   3.597  0.00  0.00     0.038 A 
HETATM   12  C   UNK N   1      20.287  18.493   2.872  0.00  0.00     0.127 A 
HETATM   13  C   UNK N   1      22.257  19.844   3.156  0.00  0.00     0.165 A 
HETATM   14  N   UNK N   1      19.452  17.418   3.282  0.00  0.00    -0.375 N 
HETATM   15  N   UNK N   1      19.985  19.204   1.755  0.00  0.00    -0.176 N 
HETATM   16  C   UNK N   1      19.782  16.590   4.431  0.00  0.00     0.126 C 
HETATM   17  H   UNK N   1      18.629  17.229   2.776  0.00  0.00     0.161 HD
HETATM   18  C   UNK N   1      20.793  20.214   1.336  0.00  0.00     0.679 A 
HETATM   19  H   UNK N   1      19.173  18.984   1.244  0.00  0.00     0.186 HD
HETATM   20  N   UNK N   1      20.498  20.865   0.276  0.00  0.00    -0.234 N 
HETATM   21  N   UNK N   1      21.917  20.529   2.034  0.00  0.00    -0.170 N 
HETATM   22  H   UNK N   1      19.845  20.564  -0.397  0.00  0.00     0.174 HD
ATOM     23  HN  UNK N   1      20.971  21.755   0.116  1.00  0.00     0.174 HD
ATOM     24  HN  UNK N   1      22.513  21.292   1.709  1.00  0.00     0.186 HD
BRANCH  13  25
HETATM   25  O   UNK N   1      23.377  20.172   3.827  0.00  0.00    -0.345 OA
HETATM   26  H   UNK N   1      24.098  20.568   3.380  0.00  0.00     0.219 HD
ENDBRANCH  13  25
ENDBRANCH   8   9
ENDBRANCH   7   8
ENDBRANCH   5   7
BRANCH   6  27
HETATM   27  C   UNK N   1      27.572  18.505   4.136  0.00  0.00     0.252 C 
HETATM   28  N   UNK N   1      28.815  18.484   4.698  0.00  0.00    -0.343 N 
HETATM   29  H   UNK N   1      29.231  19.368   4.823  0.00  0.00     0.163 HD
HETATM   30  O   UNK N   1      27.229  19.530   3.566  0.00  0.00    -0.268 OA
BRANCH  28  31
HETATM   31  C   UNK N   1      29.621  17.359   5.144  0.00  0.00     0.183 C 
BRANCH  31  32
HETATM   32  C   UNK N   1      29.979  17.440   6.634  0.00  0.00     0.046 C 
BRANCH  32  33
HETATM   33  C   UNK N   1      28.772  17.107   7.522  0.00  0.00     0.112 C 
BRANCH  33  34
HETATM   34  C   UNK N   1      28.124  18.311   8.153  0.00  0.00     0.139 C 
HETATM   35  O   UNK N   1      28.142  19.400   7.599  0.00  0.00    -0.650 OA
BRANCH  34  36
HETATM   36  O   UNK N   1      27.508  18.184   9.343  0.00  0.00    -0.776 OA
HETATM   37  H   UNK N   1      27.176  17.400   9.734  0.00  0.00     0.167 HD
ENDBRANCH  34  36
ENDBRANCH  33  34
ENDBRANCH  32  33
ENDBRANCH  31  32
BRANCH  31  38
HETATM   38  C   UNK N   1      30.796  17.051   4.251  0.00  0.00     0.163 C 
HETATM   39  O   UNK N   1      31.056  15.911   3.914  0.00  0.00    -0.648 OA
BRANCH  38  40
HETATM   40  O   UNK N   1      31.556  18.062   3.789  0.00  0.00    -0.775 OA
HETATM   41  H   UNK N   1      31.343  18.478   2.977  0.00  0.00     0.167 HD
ENDBRANCH  38  40
ENDBRANCH  31  38
ENDBRANCH  28  31
ENDBRANCH   6  27
TORSDOF 12
ENDMDL
MODEL 5
REMARK VINA RESULT:      -6.9     10.262     14.593
REMARK  12 active torsions:
REMARK  status: ('A' for Active; 'I' for Inactive)
REMARK    1  A    between atoms: C_2  and  C_1 
REMARK    2  A    between atoms: C_11  and  C_1 
REMARK    3  A    between atoms: C_12  and  C_2 
REMARK    4  A    between atoms: C_8  and  C_7 
REMARK    5  A    between atoms: C_15  and  C_7 
REMARK    6  A    between atoms: C_16  and  C_8 
REMARK    7  A    between atoms: C_18  and  C_13 
REMARK    8  A    between atoms: C_20  and  C_15 
REMARK    9  A    between atoms: C_15  and  N_25 
REMARK   10  A    between atoms: O_30  and  C_16 
REMARK       I    between atoms: N_25  and  C_18 
REMARK   11  A    between atoms: O_32  and  C_19 
REMARK   12  A    between atoms: O_34  and  C_20 
REMARK       I    between atoms: N_22  and  C_21 
ROOT
HETATM    1  C   UNK N   1      21.817  15.184   7.540  0.00  0.00     0.008 A 
HETATM    2  C   UNK N   1      21.110  13.718   5.757  0.00  0.00     0.008 A 
HETATM    3  C   UNK N   1      22.193  16.142   6.612  0.00  0.00     0.017 A 
HETATM    4  C   UNK N   1      21.445  14.708   4.824  0.00  0.00     0.017 A 
HETATM    5  C   UNK N   1      21.316  13.956   7.119  0.00  0.00    -0.058 A 
HETATM    6  C   UNK N   1      22.021  15.916   5.244  0.00  0.00     0.032 A 
ENDROOT
BRANCH   5   7
HETATM    7  C   UNK N   1      21.175  12.863   8.119  0.00  0.00     0.039 C 
BRANCH   7   8
HETATM    8  C   UNK N   1      22.226  12.983   9.245  0.00  0.00     0.011 C 
BRANCH   8   9
HETATM    9  C   UNK N   1      23.368  11.935   9.260  0.00  0.00     0.008 C 
HETATM   10  C   UNK N   1      24.010  11.721   7.883  0.00  0.00     0.053 C 
HETATM   11  C   UNK N   1      24.669  12.973   7.404  0.00  0.00     0.038 A 
HETATM   12  C   UNK N   1      25.224  13.859   8.333  0.00  0.00     0.127 A 
HETATM   13  C   UNK N   1      24.738  13.290   6.047  0.00  0.00     0.165 A 
HETATM   14  N   UNK N   1      25.145  13.576   9.725  0.00  0.00    -0.375 N 
HETATM   15  N   UNK N   1      25.806  15.008   7.903  0.00  0.00    -0.176 N 
HETATM   16  C   UNK N   1      24.466  12.391  10.225  0.00  0.00     0.126 C 
HETATM   17  H   UNK N   1      25.561  14.196  10.365  0.00  0.00     0.161 HD
HETATM   18  C   UNK N   1      25.860  15.304   6.576  0.00  0.00     0.679 A 
HETATM   19  H   UNK N   1      26.193  15.632   8.558  0.00  0.00     0.186 HD
HETATM   20  N   UNK N   1      26.402  16.395   6.191  0.00  0.00    -0.234 N 
HETATM   21  N   UNK N   1      25.331  14.449   5.660  0.00  0.00    -0.170 N 
HETATM   22  H   UNK N   1      26.601  17.156   6.783  0.00  0.00     0.174 HD
ATOM     23  HN  UNK N   1      26.645  16.483   5.204  1.00  0.00     0.174 HD
ATOM     24  HN  UNK N   1      25.380  14.683   4.668  1.00  0.00     0.186 HD
BRANCH  13  25
HETATM   25  O   UNK N   1      24.219  12.462   5.121  0.00  0.00    -0.345 OA
HETATM   26  H   UNK N   1      23.631  11.778   5.375  0.00  0.00     0.219 HD
ENDBRANCH  13  25
ENDBRANCH   8   9
ENDBRANCH   7   8
ENDBRANCH   5   7
BRANCH   6  27
HETATM   27  C   UNK N   1      22.646  16.874   4.293  0.00  0.00     0.252 C 
HETATM   28  N   UNK N   1      21.970  17.741   3.485  0.00  0.00    -0.343 N 
HETATM   29  H   UNK N   1      22.498  18.116   2.743  0.00  0.00     0.163 HD
HETATM   30  O   UNK N   1      23.866  16.882   4.231  0.00  0.00    -0.268 OA
BRANCH  28  31
HETATM   31  C   UNK N   1      20.591  18.196   3.549  0.00  0.00     0.183 C 
BRANCH  31  32
HETATM   32  C   UNK N   1      19.616  17.228   2.865  0.00  0.00     0.046 C 
BRANCH  32  33
HETATM   33  C   UNK N   1      20.292  16.467   1.715  0.00  0.00     0.112 C 
BRANCH  33  34
HETATM   34  C   UNK N   1      19.813  16.870   0.346  0.00  0.00     0.139 C 
HETATM   35  O   UNK N   1      18.943  16.234  -0.231  0.00  0.00    -0.650 OA
BRANCH  34  36
HETATM   36  O   UNK N   1      20.346  17.952  -0.250  0.00  0.00    -0.776 OA
HETATM   37  H   UNK N   1      21.254  18.147  -0.374  0.00  0.00     0.167 HD
ENDBRANCH  34  36
ENDBRANCH  33  34
ENDBRANCH  32  33
ENDBRANCH  31  32
BRANCH  31  38
HETATM   38  C   UNK N   1      20.399  19.637   3.149  0.00  0.00     0.163 C 
HETATM   39  O   UNK N   1      20.428  20.533   3.972  0.00  0.00    -0.648 OA
BRANCH  38  40
HETATM   40  O   UNK N   1      20.224  19.943   1.849  0.00  0.00    -0.775 OA
HETATM   41  H   UNK N   1      19.362  19.953   1.481  0.00  0.00     0.167 HD
ENDBRANCH  38  40
ENDBRANCH  31  38
ENDBRANCH  28  31
ENDBRANCH   6  27
TORSDOF 12
ENDMDL
MODEL 6
REMARK VINA RESULT:      -6.9      6.216     11.076
REMARK  12 active torsions:
REMARK  status: ('A' for Active; 'I' for Inactive)
REMARK    1  A    between atoms: C_2  and  C_1 
REMARK    2  A    between atoms: C_11  and  C_1 
REMARK    3  A    between atoms: C_12  and  C_2 
REMARK    4  A    between atoms: C_8  and  C_7 
REMARK    5  A    between atoms: C_15  and  C_7 
REMARK    6  A    between atoms: C_16  and  C_8 
REMARK    7  A    between atoms: C_18  and  C_13 
REMARK    8  A    between atoms: C_20  and  C_15 
REMARK    9  A    between atoms: C_15  and  N_25 
REMARK   10  A    between atoms: O_30  and  C_16 
REMARK       I    between atoms: N_25  and  C_18 
REMARK   11  A    between atoms: O_32  and  C_19 
REMARK   12  A    between atoms: O_34  and  C_20 
REMARK       I    between atoms: N_22  and  C_21 
ROOT
HETATM    1  C   UNK N   1      29.130  18.135   4.959  0.00  0.00     0.008 A 
HETATM    2  C   UNK N   1      28.725  18.137   7.340  0.00  0.00     0.008 A 
HETATM    3  C   UNK N   1      28.241  19.186   4.800  0.00  0.00     0.017 A 
HETATM    4  C   UNK N   1      27.864  19.232   7.182  0.00  0.00     0.017 A 
HETATM    5  C   UNK N   1      29.343  17.579   6.217  0.00  0.00    -0.058 A 
HETATM    6  C   UNK N   1      27.590  19.744   5.905  0.00  0.00     0.032 A 
ENDROOT
BRANCH   5   7
HETATM    7  C   UNK N   1      30.090  16.295   6.311  0.00  0.00     0.039 C 
BRANCH   7   8
HETATM    8  C   UNK N   1      31.462  16.484   6.993  0.00  0.00     0.011 C 
BRANCH   8   9
HETATM    9  C   UNK N   1      32.721  16.365   6.096  0.00  0.00     0.008 C 
HETATM   10  C   UNK N   1      33.859  17.301   6.526  0.00  0.00     0.053 C 
HETATM   11  C   UNK N   1      34.349  16.948   7.893  0.00  0.00     0.038 A 
HETATM   12  C   UNK N   1      34.304  15.617   8.319  0.00  0.00     0.127 A 
HETATM   13  C   UNK N   1      34.844  17.918   8.766  0.00  0.00     0.165 A 
HETATM   14  N   UNK N   1      33.780  14.610   7.462  0.00  0.00    -0.375 N 
HETATM   15  N   UNK N   1      34.729  15.296   9.568  0.00  0.00    -0.176 N 
HETATM   16  C   UNK N   1      33.250  14.928   6.146  0.00  0.00     0.126 C 
HETATM   17  H   UNK N   1      33.778  13.674   7.767  0.00  0.00     0.161 HD
HETATM   18  C   UNK N   1      35.204  16.255  10.408  0.00  0.00     0.679 A 
HETATM   19  H   UNK N   1      34.694  14.359   9.868  0.00  0.00     0.186 HD
HETATM   20  N   UNK N   1      35.590  15.935  11.583  0.00  0.00    -0.234 N 
HETATM   21  N   UNK N   1      35.260  17.553  10.005  0.00  0.00    -0.170 N 
HETATM   22  H   UNK N   1      35.378  15.081  12.024  0.00  0.00     0.174 HD
ATOM     23  HN  UNK N   1      36.156  16.610  12.099  1.00  0.00     0.174 HD
ATOM     24  HN  UNK N   1      35.621  18.262  10.645  1.00  0.00     0.186 HD
BRANCH  13  25
HETATM   25  O   UNK N   1      34.906  19.209   8.392  0.00  0.00    -0.345 OA
HETATM   26  H   UNK N   1      35.286  19.447   7.569  0.00  0.00     0.219 HD
ENDBRANCH  13  25
ENDBRANCH   8   9
ENDBRANCH   7   8
ENDBRANCH   5   7
BRANCH   6  27
HETATM   27  C   UNK N   1      26.487  20.708   5.652  0.00  0.00     0.252 C 
HETATM   28  N   UNK N   1      25.480  20.539   4.748  0.00  0.00    -0.343 N 
HETATM   29  H   UNK N   1      24.986  21.359   4.516  0.00  0.00     0.163 HD
HETATM   30  O   UNK N   1      26.486  21.738   6.310  0.00  0.00    -0.268 OA
BRANCH  28  31
HETATM   31  C   UNK N   1      25.024  19.336   4.070  0.00  0.00     0.183 C 
BRANCH  31  32
HETATM   32  C   UNK N   1      24.296  19.639   2.753  0.00  0.00     0.046 C 
BRANCH  32  33
HETATM   33  C   UNK N   1      23.418  20.893   2.870  0.00  0.00     0.112 C 
BRANCH  33  34
HETATM   34  C   UNK N   1      21.952  20.641   2.636  0.00  0.00     0.139 C 
HETATM   35  O   UNK N   1      21.453  20.802   1.531  0.00  0.00    -0.650 OA
BRANCH  34  36
HETATM   36  O   UNK N   1      21.180  20.227   3.657  0.00  0.00    -0.776 OA
HETATM   37  H   UNK N   1      21.443  20.057   4.540  0.00  0.00     0.167 HD
ENDBRANCH  34  36
ENDBRANCH  33  34
ENDBRANCH  32  33
ENDBRANCH  31  32
BRANCH  31  38
HETATM   38  C   UNK N   1      24.290  18.368   4.963  0.00  0.00     0.163 C 
HETATM   39  O   UNK N   1      23.083  18.424   5.104  0.00  0.00    -0.648 OA
BRANCH  38  40
HETATM   40  O   UNK N   1      24.981  17.399   5.593  0.00  0.00    -0.775 OA
HETATM   41  H   UNK N   1      25.913  17.353   5.505  0.00  0.00     0.167 HD
ENDBRANCH  38  40
ENDBRANCH  31  38
ENDBRANCH  28  31
ENDBRANCH   6  27
TORSDOF 12
ENDMDL
MODEL 7
REMARK VINA RESULT:      -6.9      9.114     13.630
REMARK  12 active torsions:
REMARK  status: ('A' for Active; 'I' for Inactive)
REMARK    1  A    between atoms: C_2  and  C_1 
REMARK    2  A    between atoms: C_11  and  C_1 
REMARK    3  A    between atoms: C_12  and  C_2 
REMARK    4  A    between atoms: C_8  and  C_7 
REMARK    5  A    between atoms: C_15  and  C_7 
REMARK    6  A    between atoms: C_16  and  C_8 
REMARK    7  A    between atoms: C_18  and  C_13 
REMARK    8  A    between atoms: C_20  and  C_15 
REMARK    9  A    between atoms: C_15  and  N_25 
REMARK   10  A    between atoms: O_30  and  C_16 
REMARK       I    between atoms: N_25  and  C_18 
REMARK   11  A    between atoms: O_32  and  C_19 
REMARK   12  A    between atoms: O_34  and  C_20 
REMARK       I    between atoms: N_22  and  C_21 
ROOT
HETATM    1  C   UNK N   1      24.722  15.615   3.056  0.00  0.00     0.008 A 
HETATM    2  C   UNK N   1      24.772  16.557   5.279  0.00  0.00     0.008 A 
HETATM    3  C   UNK N   1      23.336  15.639   3.070  0.00  0.00     0.017 A 
HETATM    4  C   UNK N   1      23.373  16.626   5.270  0.00  0.00     0.017 A 
HETATM    5  C   UNK N   1      25.443  16.031   4.171  0.00  0.00    -0.058 A 
HETATM    6  C   UNK N   1      22.642  16.136   4.177  0.00  0.00     0.032 A 
ENDROOT
BRANCH   5   7
HETATM    7  C   UNK N   1      26.902  15.744   4.222  0.00  0.00     0.039 C 
BRANCH   7   8
HETATM    8  C   UNK N   1      27.554  16.329   5.494  0.00  0.00     0.011 C 
BRANCH   8   9
HETATM    9  C   UNK N   1      28.867  17.132   5.311  0.00  0.00     0.008 C 
HETATM   10  C   UNK N   1      28.640  18.541   4.745  0.00  0.00     0.053 C 
HETATM   11  C   UNK N   1      27.833  19.369   5.692  0.00  0.00     0.038 A 
HETATM   12  C   UNK N   1      27.944  19.149   7.068  0.00  0.00     0.127 A 
HETATM   13  C   UNK N   1      26.957  20.355   5.236  0.00  0.00     0.165 A 
HETATM   14  N   UNK N   1      28.809  18.133   7.561  0.00  0.00    -0.375 N 
HETATM   15  N   UNK N   1      27.197  19.886   7.930  0.00  0.00    -0.176 N 
HETATM   16  C   UNK N   1      29.569  17.277   6.665  0.00  0.00     0.126 C 
HETATM   17  H   UNK N   1      28.896  18.007   8.533  0.00  0.00     0.161 HD
HETATM   18  C   UNK N   1      26.345  20.840   7.468  0.00  0.00     0.679 A 
HETATM   19  H   UNK N   1      27.275  19.728   8.898  0.00  0.00     0.186 HD
HETATM   20  N   UNK N   1      25.642  21.516   8.294  0.00  0.00    -0.234 N 
HETATM   21  N   UNK N   1      26.230  21.070   6.132  0.00  0.00    -0.170 N 
HETATM   22  H   UNK N   1      25.498  21.267   9.235  0.00  0.00     0.174 HD
ATOM     23  HN  UNK N   1      25.201  22.372   7.955  1.00  0.00     0.174 HD
ATOM     24  HN  UNK N   1      25.588  21.790   5.800  1.00  0.00     0.186 HD
BRANCH  13  25
HETATM   25  O   UNK N   1      26.823  20.598   3.919  0.00  0.00    -0.345 OA
HETATM   26  H   UNK N   1      25.988  20.512   3.504  0.00  0.00     0.219 HD
ENDBRANCH  13  25
ENDBRANCH   8   9
ENDBRANCH   7   8
ENDBRANCH   5   7
BRANCH   6  27
HETATM   27  C   UNK N   1      21.170  15.930   4.230  0.00  0.00     0.252 C 
HETATM   28  N   UNK N   1      20.247  16.630   3.510  0.00  0.00    -0.343 N 
HETATM   29  H   UNK N   1      19.322  16.559   3.838  0.00  0.00     0.163 HD
HETATM   30  O   UNK N   1      20.756  15.062   4.984  0.00  0.00    -0.268 OA
BRANCH  28  31
HETATM   31  C   UNK N   1      20.418  17.466   2.332  0.00  0.00     0.183 C 
BRANCH  31  32
HETATM   32  C   UNK N   1      19.801  18.861   2.503  0.00  0.00     0.046 C 
BRANCH  32  33
HETATM   33  C   UNK N   1      20.668  19.944   1.844  0.00  0.00     0.112 C 
BRANCH  33  34
HETATM   34  C   UNK N   1      21.685  20.562   2.768  0.00  0.00     0.139 C 
HETATM   35  O   UNK N   1      22.277  19.887   3.597  0.00  0.00    -0.650 OA
BRANCH  34  36
HETATM   36  O   UNK N   1      21.950  21.878   2.675  0.00  0.00    -0.776 OA
HETATM   37  H   UNK N   1      21.544  22.577   3.148  0.00  0.00     0.167 HD
ENDBRANCH  34  36
ENDBRANCH  33  34
ENDBRANCH  32  33
ENDBRANCH  31  32
BRANCH  31  38
HETATM   38  C   UNK N   1      20.046  16.790   1.038  0.00  0.00     0.163 C 
HETATM   39  O   UNK N   1      20.784  15.979   0.510  0.00  0.00    -0.648 OA
BRANCH  38  40
HETATM   40  O   UNK N   1      18.857  17.065   0.468  0.00  0.00    -0.775 OA
HETATM   41  H   UNK N   1      18.651  16.720  -0.378  0.00  0.00     0.167 HD
ENDBRANCH  38  40
ENDBRANCH  31  38
ENDBRANCH  28  31
ENDBRANCH   6  27
TORSDOF 12
ENDMDL
MODEL 8
REMARK VINA RESULT:      -6.9      4.726      6.893
REMARK  12 active torsions:
REMARK  status: ('A' for Active; 'I' for Inactive)
REMARK    1  A    between atoms: C_2  and  C_1 
REMARK    2  A    between atoms: C_11  and  C_1 
REMARK    3  A    between atoms: C_12  and  C_2 
REMARK    4  A    between atoms: C_8  and  C_7 
REMARK    5  A    between atoms: C_15  and  C_7 
REMARK    6  A    between atoms: C_16  and  C_8 
REMARK    7  A    between atoms: C_18  and  C_13 
REMARK    8  A    between atoms: C_20  and  C_15 
REMARK    9  A    between atoms: C_15  and  N_25 
REMARK   10  A    between atoms: O_30  and  C_16 
REMARK       I    between atoms: N_25  and  C_18 
REMARK   11  A    between atoms: O_32  and  C_19 
REMARK   12  A    between atoms: O_34  and  C_20 
REMARK       I    between atoms: N_22  and  C_21 
ROOT
HETATM    1  C   UNK N   1      30.741  17.867   8.060  0.00  0.00     0.008 A 
HETATM    2  C   UNK N   1      31.760  16.954   6.070  0.00  0.00     0.008 A 
HETATM    3  C   UNK N   1      31.993  18.177   8.566  0.00  0.00     0.017 A 
HETATM    4  C   UNK N   1      33.021  17.314   6.563  0.00  0.00     0.017 A 
HETATM    5  C   UNK N   1      30.620  17.218   6.834  0.00  0.00    -0.058 A 
HETATM    6  C   UNK N   1      33.149  17.899   7.832  0.00  0.00     0.032 A 
ENDROOT
BRANCH   5   7
HETATM    7  C   UNK N   1      29.292  16.667   6.449  0.00  0.00     0.039 C 
BRANCH   7   8
HETATM    8  C   UNK N   1      28.199  17.758   6.458  0.00  0.00     0.011 C 
BRANCH   8   9
HETATM    9  C   UNK N   1      28.241  18.811   5.321  0.00  0.00     0.008 C 
HETATM   10  C   UNK N   1      27.655  18.296   3.999  0.00  0.00     0.053 C 
HETATM   11  C   UNK N   1      26.203  17.979   4.150  0.00  0.00     0.038 A 
HETATM   12  C   UNK N   1      25.426  18.716   5.051  0.00  0.00     0.127 A 
HETATM   13  C   UNK N   1      25.598  16.955   3.420  0.00  0.00     0.165 A 
HETATM   14  N   UNK N   1      26.020  19.748   5.828  0.00  0.00    -0.375 N 
HETATM   15  N   UNK N   1      24.111  18.417   5.205  0.00  0.00    -0.176 N 
HETATM   16  C   UNK N   1      27.441  20.048   5.741  0.00  0.00     0.126 C 
HETATM   17  H   UNK N   1      25.456  20.274   6.439  0.00  0.00     0.161 HD
HETATM   18  C   UNK N   1      23.539  17.411   4.490  0.00  0.00     0.679 A 
HETATM   19  H   UNK N   1      23.566  18.934   5.842  0.00  0.00     0.186 HD
HETATM   20  N   UNK N   1      22.302  17.138   4.657  0.00  0.00    -0.234 N 
HETATM   21  N   UNK N   1      24.279  16.690   3.605  0.00  0.00    -0.170 N 
HETATM   22  H   UNK N   1      21.762  17.449   5.419  0.00  0.00     0.174 HD
ATOM     23  HN  UNK N   1      21.843  16.558   3.953  1.00  0.00     0.174 HD
ATOM     24  HN  UNK N   1      23.836  15.941   3.074  1.00  0.00     0.186 HD
BRANCH  13  25
HETATM   25  O   UNK N   1      26.311  16.225   2.542  0.00  0.00    -0.345 OA
HETATM   26  H   UNK N   1      26.236  15.292   2.532  0.00  0.00     0.219 HD
ENDBRANCH  13  25
ENDBRANCH   8   9
ENDBRANCH   7   8
ENDBRANCH   5   7
BRANCH   6  27
HETATM   27  C   UNK N   1      34.462  18.043   8.514  0.00  0.00     0.252 C 
HETATM   28  N   UNK N   1      35.065  17.087   9.279  0.00  0.00    -0.343 N 
HETATM   29  H   UNK N   1      35.788  17.415   9.862  0.00  0.00     0.163 HD
HETATM   30  O   UNK N   1      35.047  19.107   8.379  0.00  0.00    -0.268 OA
BRANCH  28  31
HETATM   31  C   UNK N   1      34.806  15.659   9.368  0.00  0.00     0.183 C 
BRANCH  31  32
HETATM   32  C   UNK N   1      33.643  15.326  10.312  0.00  0.00     0.046 C 
BRANCH  32  33
HETATM   33  C   UNK N   1      32.397  14.880   9.535  0.00  0.00     0.112 C 
BRANCH  33  34
HETATM   34  C   UNK N   1      32.613  13.664   8.674  0.00  0.00     0.139 C 
HETATM   35  O   UNK N   1      32.343  13.680   7.481  0.00  0.00    -0.650 OA
BRANCH  34  36
HETATM   36  O   UNK N   1      33.117  12.544   9.223  0.00  0.00    -0.776 OA
HETATM   37  H   UNK N   1      33.986  12.205   9.133  0.00  0.00     0.167 HD
ENDBRANCH  34  36
ENDBRANCH  33  34
ENDBRANCH  32  33
ENDBRANCH  31  32
BRANCH  31  38
HETATM   38  C   UNK N   1      36.038  14.823   9.600  0.00  0.00     0.163 C 
HETATM   39  O   UNK N   1      37.034  15.291  10.119  0.00  0.00    -0.648 OA
BRANCH  38  40
HETATM   40  O   UNK N   1      36.027  13.521   9.256  0.00  0.00    -0.775 OA
HETATM   41  H   UNK N   1      36.672  12.938   9.604  0.00  0.00     0.167 HD
ENDBRANCH  38  40
ENDBRANCH  31  38
ENDBRANCH  28  31
ENDBRANCH   6  27
TORSDOF 12
ENDMDL
MODEL 9
REMARK VINA RESULT:      -6.9      3.482      8.272
REMARK  12 active torsions:
REMARK  status: ('A' for Active; 'I' for Inactive)
REMARK    1  A    between atoms: C_2  and  C_1 
REMARK    2  A    between atoms: C_11  and  C_1 
REMARK    3  A    between atoms: C_12  and  C_2 
REMARK    4  A    between atoms: C_8  and  C_7 
REMARK    5  A    between atoms: C_15  and  C_7 
REMARK    6  A    between atoms: C_16  and  C_8 
REMARK    7  A    between atoms: C_18  and  C_13 
REMARK    8  A    between atoms: C_20  and  C_15 
REMARK    9  A    between atoms: C_15  and  N_25 
REMARK   10  A    between atoms: O_30  and  C_16 
REMARK       I    between atoms: N_25  and  C_18 
REMARK   11  A    between atoms: O_32  and  C_19 
REMARK   12  A    between atoms: O_34  and  C_20 
REMARK       I    between atoms: N_22  and  C_21 
ROOT
HETATM    1  C   UNK N   1      31.836  16.671   6.821  0.00  0.00     0.008 A 
HETATM    2  C   UNK N   1      33.299  17.578   5.126  0.00  0.00     0.008 A 
HETATM    3  C   UNK N   1      30.816  16.560   5.889  0.00  0.00     0.017 A 
HETATM    4  C   UNK N   1      32.280  17.418   4.177  0.00  0.00     0.017 A 
HETATM    5  C   UNK N   1      33.063  17.218   6.456  0.00  0.00    -0.058 A 
HETATM    6  C   UNK N   1      31.019  16.938   4.559  0.00  0.00     0.032 A 
ENDROOT
BRANCH   5   7
HETATM    7  C   UNK N   1      34.034  17.565   7.529  0.00  0.00     0.039 C 
BRANCH   7   8
HETATM    8  C   UNK N   1      34.227  16.398   8.522  0.00  0.00     0.011 C 
BRANCH   8   9
HETATM    9  C   UNK N   1      34.627  15.023   7.928  0.00  0.00     0.008 C 
HETATM   10  C   UNK N   1      35.978  14.511   8.449  0.00  0.00     0.053 C 
HETATM   11  C   UNK N   1      35.922  14.272   9.922  0.00  0.00     0.038 A 
HETATM   12  C   UNK N   1      34.719  13.872  10.512  0.00  0.00     0.127 A 
HETATM   13  C   UNK N   1      37.044  14.448  10.734  0.00  0.00     0.165 A 
HETATM   14  N   UNK N   1      33.553  13.710   9.714  0.00  0.00    -0.375 N 
HETATM   15  N   UNK N   1      34.660  13.673  11.853  0.00  0.00    -0.176 N 
HETATM   16  C   UNK N   1      33.561  13.983   8.286  0.00  0.00     0.126 C 
HETATM   17  H   UNK N   1      32.719  13.404  10.139  0.00  0.00     0.161 HD
HETATM   18  C   UNK N   1      35.761  13.854  12.631  0.00  0.00     0.679 A 
HETATM   19  H   UNK N   1      33.812  13.395  12.267  0.00  0.00     0.186 HD
HETATM   20  N   UNK N   1      35.684  13.673  13.893  0.00  0.00    -0.234 N 
HETATM   21  N   UNK N   1      36.941  14.237  12.072  0.00  0.00    -0.170 N 
HETATM   22  H   UNK N   1      34.840  13.618  14.396  0.00  0.00     0.174 HD
ATOM     23  HN  UNK N   1      36.556  13.578  14.415  1.00  0.00     0.174 HD
ATOM     24  HN  UNK N   1      37.760  14.367  12.666  1.00  0.00     0.186 HD
BRANCH  13  25
HETATM   25  O   UNK N   1      38.221  14.830  10.205  0.00  0.00    -0.345 OA
HETATM   26  H   UNK N   1      38.271  15.593   9.664  0.00  0.00     0.219 HD
ENDBRANCH  13  25
ENDBRANCH   8   9
ENDBRANCH   7   8
ENDBRANCH   5   7
BRANCH   6  27
HETATM   27  C   UNK N   1      29.833  17.011   3.664  0.00  0.00     0.252 C 
HETATM   28  N   UNK N   1      28.617  17.528   4.003  0.00  0.00    -0.343 N 
HETATM   29  H   UNK N   1      27.876  17.274   3.406  0.00  0.00     0.163 HD
HETATM   30  O   UNK N   1      29.962  16.568   2.533  0.00  0.00    -0.268 OA
BRANCH  28  31
HETATM   31  C   UNK N   1      28.245  18.394   5.110  0.00  0.00     0.183 C 
BRANCH  31  32
HETATM   32  C   UNK N   1      27.227  17.742   6.055  0.00  0.00     0.046 C 
BRANCH  32  33
HETATM   33  C   UNK N   1      27.914  17.111   7.275  0.00  0.00     0.112 C 
BRANCH  33  34
HETATM   34  C   UNK N   1      28.261  18.095   8.361  0.00  0.00     0.139 C 
HETATM   35  O   UNK N   1      29.294  18.746   8.316  0.00  0.00    -0.650 OA
BRANCH  34  36
HETATM   36  O   UNK N   1      27.416  18.265   9.395  0.00  0.00    -0.776 OA
HETATM   37  H   UNK N   1      26.982  17.600   9.892  0.00  0.00     0.167 HD
ENDBRANCH  34  36
ENDBRANCH  33  34
ENDBRANCH  32  33
ENDBRANCH  31  32
BRANCH  31  38
HETATM   38  C   UNK N   1      27.881  19.797   4.697  0.00  0.00     0.163 C 
HETATM   39  O   UNK N   1      27.803  20.698   5.512  0.00  0.00    -0.648 OA
BRANCH  38  40
HETATM   40  O   UNK N   1      27.667  20.068   3.396  0.00  0.00    -0.775 OA
HETATM   41  H   UNK N   1      28.334  20.486   2.888  0.00  0.00     0.167 HD
ENDBRANCH  38  40
ENDBRANCH  31  38
ENDBRANCH  28  31
ENDBRANCH   6  27
TORSDOF 12
ENDMDL
