MODEL 1
REMARK VINA RESULT:      -9.1      0.000      0.000
REMARK  5 active torsions:
REMARK  status: ('A' for Active; 'I' for Inactive)
REMARK    1  A    between atoms: C_9  and  C_3 
REMARK    2  A    between atoms: C_12  and  O_22 
REMARK    3  A    between atoms: C_20  and  N_21 
REMARK    4  A    between atoms: O_22  and  C_23 
REMARK       I    between atoms: C_23  and  N_25 
REMARK    5  A    between atoms: C_28  and  N_31 
ROOT
HETATM    1  C   UNK N   1      26.335  18.275   4.764  0.00  0.00     0.049 C 
HETATM    2  C   UNK N   1      27.216  18.045   3.528  0.00  0.00     0.015 C 
HETATM    3  C   UNK N   1      28.466  17.200   3.784  0.00  0.00     0.040 C 
HETATM    4  C   UNK N   1      28.344  16.286   4.997  0.00  0.00     0.184 C 
HETATM    5  C   UNK N   1      28.727  17.022   6.252  0.00  0.00     0.047 A 
HETATM    6  C   UNK N   1      28.143  18.263   6.652  0.00  0.00    -0.010 A 
HETATM    7  C   UNK N   1      28.634  18.875   7.814  0.00  0.00     0.012 A 
HETATM    8  C   UNK N   1      29.657  18.291   8.553  0.00  0.00     0.018 A 
HETATM    9  C   UNK N   1      30.203  17.087   8.126  0.00  0.00     0.088 A 
HETATM   10  N   UNK N   1      29.736  16.490   6.999  0.00  0.00    -0.367 N 
ATOM     11  HN  UNK N   1      30.155  15.609   6.700  1.00  0.00     0.165 HD
HETATM   12  C   UNK N   1      27.059  19.018   5.899  0.00  0.00     0.118 C 
ENDROOT
BRANCH   4  13
HETATM   13  O   UNK N   1      27.083  15.733   5.065  0.00  0.00    -0.292 OA
BRANCH  13  14
HETATM   14  C   UNK N   1      26.755  14.436   5.322  0.00  0.00     0.363 C 
HETATM   15  O   UNK N   1      27.148  13.586   4.536  0.00  0.00    -0.238 OA
HETATM   16  N   UNK N   1      25.979  14.056   6.384  0.00  0.00    -0.328 N 
HETATM   17  C   UNK N   1      25.532  12.693   6.487  0.00  0.00     0.130 C 
HETATM   18  C   UNK N   1      25.359  14.995   7.280  0.00  0.00     0.130 C 
HETATM   19  C   UNK N   1      24.081  12.669   6.017  0.00  0.00     0.046 C 
HETATM   20  C   UNK N   1      23.216  13.748   6.708  0.00  0.00     0.098 C 
HETATM   21  C   UNK N   1      23.905  15.121   6.850  0.00  0.00     0.046 C 
BRANCH  20  22
HETATM   22  N   UNK N   1      22.590  13.323   7.963  0.00  0.00    -0.291 N 
HETATM   23  C   UNK N   1      23.139  12.879   9.112  0.00  0.00     0.083 A 
HETATM   24  C   UNK N   1      24.474  12.718   9.467  0.00  0.00     0.035 A 
HETATM   25  C   UNK N   1      22.139  12.552   9.979  0.00  0.00     0.136 A 
HETATM   26  C   UNK N   1      24.744  12.209  10.749  0.00  0.00     0.019 A 
HETATM   27  C   UNK N   1      23.674  11.880  11.615  0.00  0.00     0.090 A 
HETATM   28  N   UNK N   1      22.378  12.056  11.216  0.00  0.00    -0.350 N 
ATOM     29  HN  UNK N   1      21.606  11.817  11.839  1.00  0.00     0.166 HD
HETATM   30  N   UNK N   1      20.932  12.775   9.426  0.00  0.00    -0.292 N 
HETATM   31  C   UNK N   1      21.243  13.249   8.184  0.00  0.00     0.329 A 
HETATM   32  H   UNK N   1      20.041  12.632   9.822  0.00  0.00     0.172 HD
HETATM   33  O   UNK N   1      20.402  13.557   7.356  0.00  0.00    -0.246 OA
ENDBRANCH  20  22
ENDBRANCH  13  14
ENDBRANCH   4  13
BRANCH   1  34
HETATM   34  C   UNK N   1      24.961  18.741   4.328  0.00  0.00    -0.010 A 
HETATM   35  C   UNK N   1      23.865  17.978   4.763  0.00  0.00     0.011 A 
HETATM   36  C   UNK N   1      22.564  18.313   4.387  0.00  0.00     0.004 A 
HETATM   37  C   UNK N   1      22.339  19.410   3.559  0.00  0.00     0.045 A 
HETATM   38  C   UNK N   1      23.413  20.186   3.119  0.00  0.00     0.155 A 
HETATM   39  C   UNK N   1      24.722  19.867   3.505  0.00  0.00     0.161 A 
HETATM   40  F   UNK N   1      23.185  21.244   2.304  0.00  0.00    -0.203 F 
HETATM   41  F   UNK N   1      25.732  20.648   3.057  0.00  0.00    -0.202 F 
ENDBRANCH   1  34
BRANCH  12  42
HETATM   42  N   UNK N   1      27.612  20.276   5.415  0.00  0.00    -0.421 N 
HETATM   43  H   UNK N   1      27.286  21.220   5.208  0.00  0.00     0.150 HD
HETATM   44  H   UNK N   1      28.610  20.186   5.229  0.00  0.00     0.150 HD
ENDBRANCH  12  42
TORSDOF 5
ENDMDL
MODEL 2
REMARK VINA RESULT:      -9.0      8.181     12.887
REMARK  5 active torsions:
REMARK  status: ('A' for Active; 'I' for Inactive)
REMARK    1  A    between atoms: C_9  and  C_3 
REMARK    2  A    between atoms: C_12  and  O_22 
REMARK    3  A    between atoms: C_20  and  N_21 
REMARK    4  A    between atoms: O_22  and  C_23 
REMARK       I    between atoms: C_23  and  N_25 
REMARK    5  A    between atoms: C_28  and  N_31 
ROOT
HETATM    1  C   UNK N   1      35.712  12.860  13.183  0.00  0.00     0.049 C 
HETATM    2  C   UNK N   1      37.022  12.974  12.391  0.00  0.00     0.015 C 
HETATM    3  C   UNK N   1      36.874  12.769  10.882  0.00  0.00     0.040 C 
HETATM    4  C   UNK N   1      35.470  13.056  10.363  0.00  0.00     0.184 C 
HETATM    5  C   UNK N   1      34.601  11.835  10.495  0.00  0.00     0.047 A 
HETATM    6  C   UNK N   1      34.415  11.123  11.720  0.00  0.00    -0.010 A 
HETATM    7  C   UNK N   1      33.626   9.965  11.693  0.00  0.00     0.012 A 
HETATM    8  C   UNK N   1      33.042   9.523  10.511  0.00  0.00     0.018 A 
HETATM    9  C   UNK N   1      33.254  10.240   9.339  0.00  0.00     0.088 A 
HETATM   10  N   UNK N   1      34.020  11.362   9.356  0.00  0.00    -0.367 N 
ATOM     11  HN  UNK N   1      34.166  11.870   8.484  1.00  0.00     0.165 HD
HETATM   12  C   UNK N   1      35.043  11.480  13.058  0.00  0.00     0.118 C 
ENDROOT
BRANCH   4  13
HETATM   13  O   UNK N   1      34.936  14.163  10.989  0.00  0.00    -0.292 OA
BRANCH  13  14
HETATM   14  C   UNK N   1      34.963  15.454  10.560  0.00  0.00     0.363 C 
HETATM   15  O   UNK N   1      35.193  16.323  11.390  0.00  0.00    -0.238 OA
HETATM   16  N   UNK N   1      34.702  15.820   9.267  0.00  0.00    -0.328 N 
HETATM   17  C   UNK N   1      34.576  17.213   8.932  0.00  0.00     0.130 C 
HETATM   18  C   UNK N   1      34.286  14.886   8.255  0.00  0.00     0.130 C 
HETATM   19  C   UNK N   1      33.083  17.506   8.824  0.00  0.00     0.046 C 
HETATM   20  C   UNK N   1      32.344  16.495   7.918  0.00  0.00     0.098 C 
HETATM   21  C   UNK N   1      32.778  15.028   8.117  0.00  0.00     0.046 C 
BRANCH  20  22
HETATM   22  N   UNK N   1      32.298  16.860   6.500  0.00  0.00    -0.291 N 
HETATM   23  C   UNK N   1      31.322  16.701   5.582  0.00  0.00     0.083 A 
HETATM   24  C   UNK N   1      30.044  16.167   5.713  0.00  0.00     0.035 A 
HETATM   25  C   UNK N   1      31.774  17.152   4.377  0.00  0.00     0.136 A 
HETATM   26  C   UNK N   1      29.246  16.115   4.557  0.00  0.00     0.019 A 
HETATM   27  C   UNK N   1      29.757  16.591   3.326  0.00  0.00     0.090 A 
HETATM   28  N   UNK N   1      31.023  17.105   3.252  0.00  0.00    -0.350 N 
ATOM     29  HN  UNK N   1      31.392  17.448   2.365  1.00  0.00     0.166 HD
HETATM   30  N   UNK N   1      33.035  17.612   4.479  0.00  0.00    -0.292 N 
HETATM   31  C   UNK N   1      33.330  17.418   5.798  0.00  0.00     0.329 A 
HETATM   32  H   UNK N   1      33.605  17.996   3.773  0.00  0.00     0.172 HD
HETATM   33  O   UNK N   1      34.410  17.701   6.289  0.00  0.00    -0.246 OA
ENDBRANCH  20  22
ENDBRANCH  13  14
ENDBRANCH   4  13
BRANCH   1  34
HETATM   34  C   UNK N   1      35.892  13.477  14.554  0.00  0.00    -0.010 A 
HETATM   35  C   UNK N   1      36.885  14.463  14.681  0.00  0.00     0.011 A 
HETATM   36  C   UNK N   1      37.143  15.067  15.911  0.00  0.00     0.004 A 
HETATM   37  C   UNK N   1      36.421  14.685  17.040  0.00  0.00     0.045 A 
HETATM   38  C   UNK N   1      35.426  13.711  16.936  0.00  0.00     0.155 A 
HETATM   39  C   UNK N   1      35.148  13.111  15.701  0.00  0.00     0.161 A 
HETATM   40  F   UNK N   1      34.737  13.337  18.041  0.00  0.00    -0.203 F 
HETATM   41  F   UNK N   1      34.173  12.174  15.648  0.00  0.00    -0.202 F 
ENDBRANCH   1  34
BRANCH  12  42
HETATM   42  N   UNK N   1      35.971  10.426  13.439  0.00  0.00    -0.421 N 
HETATM   43  H   UNK N   1      36.074   9.419  13.309  0.00  0.00     0.150 HD
HETATM   44  H   UNK N   1      36.738  10.801  13.997  0.00  0.00     0.150 HD
ENDBRANCH  12  42
TORSDOF 5
ENDMDL
MODEL 3
REMARK VINA RESULT:      -8.9      2.752      3.812
REMARK  5 active torsions:
REMARK  status: ('A' for Active; 'I' for Inactive)
REMARK    1  A    between atoms: C_9  and  C_3 
REMARK    2  A    between atoms: C_12  and  O_22 
REMARK    3  A    between atoms: C_20  and  N_21 
REMARK    4  A    between atoms: O_22  and  C_23 
REMARK       I    between atoms: C_23  and  N_25 
REMARK    5  A    between atoms: C_28  and  N_31 
ROOT
HETATM    1  C   UNK N   1      28.922  17.112   4.775  0.00  0.00     0.049 C 
HETATM    2  C   UNK N   1      28.752  16.602   3.337  0.00  0.00     0.015 C 
HETATM    3  C   UNK N   1      29.229  15.166   3.109  0.00  0.00     0.040 C 
HETATM    4  C   UNK N   1      29.245  14.322   4.377  0.00  0.00     0.184 C 
HETATM    5  C   UNK N   1      30.540  14.509   5.118  0.00  0.00     0.047 A 
HETATM    6  C   UNK N   1      31.053  15.785   5.507  0.00  0.00    -0.010 A 
HETATM    7  C   UNK N   1      32.302  15.824   6.141  0.00  0.00     0.012 A 
HETATM    8  C   UNK N   1      33.019  14.658   6.385  0.00  0.00     0.018 A 
HETATM    9  C   UNK N   1      32.488  13.438   5.985  0.00  0.00     0.088 A 
HETATM   10  N   UNK N   1      31.280  13.391   5.366  0.00  0.00    -0.367 N 
ATOM     11  HN  UNK N   1      30.911  12.485   5.077  1.00  0.00     0.165 HD
HETATM   12  C   UNK N   1      30.385  17.127   5.247  0.00  0.00     0.118 C 
ENDROOT
BRANCH   4  13
HETATM   13  O   UNK N   1      28.138  14.591   5.155  0.00  0.00    -0.292 OA
BRANCH  13  14
HETATM   14  C   UNK N   1      26.988  13.868   5.245  0.00  0.00     0.363 C 
HETATM   15  O   UNK N   1      26.934  12.809   4.637  0.00  0.00    -0.238 OA
HETATM   16  N   UNK N   1      25.889  14.294   5.942  0.00  0.00    -0.328 N 
HETATM   17  C   UNK N   1      24.655  13.561   5.844  0.00  0.00     0.130 C 
HETATM   18  C   UNK N   1      25.809  15.585   6.571  0.00  0.00     0.130 C 
HETATM   19  C   UNK N   1      23.761  14.331   4.877  0.00  0.00     0.046 C 
HETATM   20  C   UNK N   1      23.661  15.833   5.229  0.00  0.00     0.098 C 
HETATM   21  C   UNK N   1      24.999  16.479   5.644  0.00  0.00     0.046 C 
BRANCH  20  22
HETATM   22  N   UNK N   1      22.583  16.175   6.160  0.00  0.00    -0.291 N 
HETATM   23  C   UNK N   1      22.083  15.497   7.214  0.00  0.00     0.083 A 
HETATM   24  C   UNK N   1      22.465  14.275   7.759  0.00  0.00     0.035 A 
HETATM   25  C   UNK N   1      21.041  16.204   7.737  0.00  0.00     0.136 A 
HETATM   26  C   UNK N   1      21.734  13.807   8.865  0.00  0.00     0.019 A 
HETATM   27  C   UNK N   1      20.657  14.572   9.373  0.00  0.00     0.090 A 
HETATM   28  N   UNK N   1      20.322  15.767   8.798  0.00  0.00    -0.350 N 
ATOM     29  HN  UNK N   1      19.545  16.319   9.163  1.00  0.00     0.166 HD
HETATM   30  N   UNK N   1      20.841  17.344   7.049  0.00  0.00    -0.292 N 
HETATM   31  C   UNK N   1      21.805  17.297   6.084  0.00  0.00     0.329 A 
HETATM   32  H   UNK N   1      20.163  18.042   7.206  0.00  0.00     0.172 HD
HETATM   33  O   UNK N   1      21.943  18.161   5.234  0.00  0.00    -0.246 OA
ENDBRANCH  20  22
ENDBRANCH  13  14
ENDBRANCH   4  13
BRANCH   1  34
HETATM   34  C   UNK N   1      28.061  18.340   4.984  0.00  0.00    -0.010 A 
HETATM   35  C   UNK N   1      27.489  18.916   3.838  0.00  0.00     0.011 A 
HETATM   36  C   UNK N   1      26.705  20.067   3.928  0.00  0.00     0.004 A 
HETATM   37  C   UNK N   1      26.492  20.668   5.166  0.00  0.00     0.045 A 
HETATM   38  C   UNK N   1      27.047  20.110   6.319  0.00  0.00     0.155 A 
HETATM   39  C   UNK N   1      27.821  18.945   6.241  0.00  0.00     0.161 A 
HETATM   40  F   UNK N   1      26.843  20.709   7.518  0.00  0.00    -0.203 F 
HETATM   41  F   UNK N   1      28.336  18.438   7.385  0.00  0.00    -0.202 F 
ENDBRANCH   1  34
BRANCH  12  42
HETATM   42  N   UNK N   1      31.212  17.893   4.326  0.00  0.00    -0.421 N 
HETATM   43  H   UNK N   1      32.093  17.784   3.823  0.00  0.00     0.150 HD
HETATM   44  H   UNK N   1      30.789  18.799   4.127  0.00  0.00     0.150 HD
ENDBRANCH  12  42
TORSDOF 5
ENDMDL
MODEL 4
REMARK VINA RESULT:      -8.8      4.839      9.096
REMARK  5 active torsions:
REMARK  status: ('A' for Active; 'I' for Inactive)
REMARK    1  A    between atoms: C_9  and  C_3 
REMARK    2  A    between atoms: C_12  and  O_22 
REMARK    3  A    between atoms: C_20  and  N_21 
REMARK    4  A    between atoms: O_22  and  C_23 
REMARK       I    between atoms: C_23  and  N_25 
REMARK    5  A    between atoms: C_28  and  N_31 
ROOT
HETATM    1  C   UNK N   1      23.390  12.234   8.350  0.00  0.00     0.049 C 
HETATM    2  C   UNK N   1      24.832  12.714   8.130  0.00  0.00     0.015 C 
HETATM    3  C   UNK N   1      25.128  13.217   6.716  0.00  0.00     0.040 C 
HETATM    4  C   UNK N   1      23.889  13.689   5.966  0.00  0.00     0.184 C 
HETATM    5  C   UNK N   1      23.212  12.530   5.286  0.00  0.00     0.047 A 
HETATM    6  C   UNK N   1      22.814  11.337   5.963  0.00  0.00    -0.010 A 
HETATM    7  C   UNK N   1      22.247  10.307   5.199  0.00  0.00     0.012 A 
HETATM    8  C   UNK N   1      22.076  10.444   3.826  0.00  0.00     0.018 A 
HETATM    9  C   UNK N   1      22.483  11.619   3.204  0.00  0.00     0.088 A 
HETATM   10  N   UNK N   1      23.037  12.620   3.936  0.00  0.00    -0.367 N 
ATOM     11  HN  UNK N   1      23.334  13.471   3.459  1.00  0.00     0.165 HD
HETATM   12  C   UNK N   1      22.997  11.054   7.446  0.00  0.00     0.118 C 
ENDROOT
BRANCH   4  13
HETATM   13  O   UNK N   1      23.044  14.382   6.807  0.00  0.00    -0.292 OA
BRANCH  13  14
HETATM   14  C   UNK N   1      21.789  14.835   6.539  0.00  0.00     0.363 C 
HETATM   15  O   UNK N   1      20.860  14.333   7.156  0.00  0.00    -0.238 OA
HETATM   16  N   UNK N   1      21.522  15.785   5.589  0.00  0.00    -0.328 N 
HETATM   17  C   UNK N   1      20.158  16.082   5.242  0.00  0.00     0.130 C 
HETATM   18  C   UNK N   1      22.530  16.330   4.719  0.00  0.00     0.130 C 
HETATM   19  C   UNK N   1      19.871  15.358   3.929  0.00  0.00     0.046 C 
HETATM   20  C   UNK N   1      20.947  15.631   2.854  0.00  0.00     0.098 C 
HETATM   21  C   UNK N   1      22.395  15.614   3.384  0.00  0.00     0.046 C 
BRANCH  20  22
HETATM   22  N   UNK N   1      20.691  16.803   2.013  0.00  0.00    -0.291 N 
HETATM   23  C   UNK N   1      20.753  18.120   2.299  0.00  0.00     0.083 A 
HETATM   24  C   UNK N   1      21.109  18.768   3.477  0.00  0.00     0.035 A 
HETATM   25  C   UNK N   1      20.371  18.828   1.198  0.00  0.00     0.136 A 
HETATM   26  C   UNK N   1      21.061  20.173   3.480  0.00  0.00     0.019 A 
HETATM   27  C   UNK N   1      20.654  20.866   2.315  0.00  0.00     0.090 A 
HETATM   28  N   UNK N   1      20.312  20.180   1.183  0.00  0.00    -0.350 N 
ATOM     29  HN  UNK N   1      20.018  20.679   0.343  1.00  0.00     0.166 HD
HETATM   30  N   UNK N   1      20.059  18.002   0.181  0.00  0.00    -0.292 N 
HETATM   31  C   UNK N   1      20.266  16.762   0.714  0.00  0.00     0.329 A 
HETATM   32  H   UNK N   1      19.756  18.236  -0.727  0.00  0.00     0.172 HD
HETATM   33  O   UNK N   1      20.073  15.728   0.096  0.00  0.00    -0.246 OA
ENDBRANCH  20  22
ENDBRANCH  13  14
ENDBRANCH   4  13
BRANCH   1  34
HETATM   34  C   UNK N   1      23.100  12.163   9.834  0.00  0.00    -0.010 A 
HETATM   35  C   UNK N   1      24.201  11.999  10.690  0.00  0.00     0.011 A 
HETATM   36  C   UNK N   1      24.029  11.893  12.070  0.00  0.00     0.004 A 
HETATM   37  C   UNK N   1      22.748  11.935  12.616  0.00  0.00     0.045 A 
HETATM   38  C   UNK N   1      21.639  12.102  11.786  0.00  0.00     0.155 A 
HETATM   39  C   UNK N   1      21.804  12.227  10.400  0.00  0.00     0.161 A 
HETATM   40  F   UNK N   1      20.396  12.130  12.326  0.00  0.00    -0.203 F 
HETATM   41  F   UNK N   1      20.700  12.390   9.634  0.00  0.00    -0.202 F 
ENDBRANCH   1  34
BRANCH  12  42
HETATM   42  N   UNK N   1      23.938   9.954   7.602  0.00  0.00    -0.421 N 
HETATM   43  H   UNK N   1      24.829   9.652   7.206  0.00  0.00     0.150 HD
HETATM   44  H   UNK N   1      23.614   9.297   8.311  0.00  0.00     0.150 HD
ENDBRANCH  12  42
TORSDOF 5
ENDMDL
MODEL 5
REMARK VINA RESULT:      -8.7      3.483      8.424
REMARK  5 active torsions:
REMARK  status: ('A' for Active; 'I' for Inactive)
REMARK    1  A    between atoms: C_9  and  C_3 
REMARK    2  A    between atoms: C_12  and  O_22 
REMARK    3  A    between atoms: C_20  and  N_21 
REMARK    4  A    between atoms: O_22  and  C_23 
REMARK       I    between atoms: C_23  and  N_25 
REMARK    5  A    between atoms: C_28  and  N_31 
ROOT
HETATM    1  C   UNK N   1      22.134  13.652   8.093  0.00  0.00     0.049 C 
HETATM    2  C   UNK N   1      21.110  12.624   7.591  0.00  0.00     0.015 C 
HETATM    3  C   UNK N   1      20.630  12.851   6.156  0.00  0.00     0.040 C 
HETATM    4  C   UNK N   1      21.611  13.648   5.305  0.00  0.00     0.184 C 
HETATM    5  C   UNK N   1      21.388  15.124   5.488  0.00  0.00     0.047 A 
HETATM    6  C   UNK N   1      21.378  15.772   6.762  0.00  0.00    -0.010 A 
HETATM    7  C   UNK N   1      21.098  17.145   6.798  0.00  0.00     0.012 A 
HETATM    8  C   UNK N   1      20.840  17.854   5.630  0.00  0.00     0.018 A 
HETATM    9  C   UNK N   1      20.852  17.185   4.412  0.00  0.00     0.088 A 
HETATM   10  N   UNK N   1      21.118  15.854   4.369  0.00  0.00    -0.367 N 
ATOM     11  HN  UNK N   1      21.117  15.382   3.464  1.00  0.00     0.165 HD
HETATM   12  C   UNK N   1      21.594  15.092   8.105  0.00  0.00     0.118 C 
ENDROOT
BRANCH   4  13
HETATM   13  O   UNK N   1      22.909  13.266   5.571  0.00  0.00    -0.292 OA
BRANCH  13  14
HETATM   14  C   UNK N   1      23.972  13.282   4.720  0.00  0.00     0.363 C 
HETATM   15  O   UNK N   1      24.207  12.263   4.086  0.00  0.00    -0.238 OA
HETATM   16  N   UNK N   1      24.803  14.361   4.581  0.00  0.00    -0.328 N 
HETATM   17  C   UNK N   1      26.003  14.240   3.797  0.00  0.00     0.130 C 
HETATM   18  C   UNK N   1      24.689  15.549   5.384  0.00  0.00     0.130 C 
HETATM   19  C   UNK N   1      27.156  14.069   4.782  0.00  0.00     0.046 C 
HETATM   20  C   UNK N   1      27.148  15.141   5.896  0.00  0.00     0.098 C 
HETATM   21  C   UNK N   1      25.750  15.451   6.470  0.00  0.00     0.046 C 
BRANCH  20  22
HETATM   22  N   UNK N   1      27.887  16.364   5.576  0.00  0.00    -0.291 N 
HETATM   23  C   UNK N   1      27.488  17.497   4.962  0.00  0.00     0.083 A 
HETATM   24  C   UNK N   1      26.239  17.859   4.469  0.00  0.00     0.035 A 
HETATM   25  C   UNK N   1      28.558  18.334   4.845  0.00  0.00     0.136 A 
HETATM   26  C   UNK N   1      26.130  19.118   3.853  0.00  0.00     0.019 A 
HETATM   27  C   UNK N   1      27.268  19.953   3.750  0.00  0.00     0.090 A 
HETATM   28  N   UNK N   1      28.475  19.547   4.249  0.00  0.00    -0.350 N 
ATOM     29  HN  UNK N   1      29.296  20.148   4.175  1.00  0.00     0.166 HD
HETATM   30  N   UNK N   1      29.663  17.778   5.376  0.00  0.00    -0.292 N 
HETATM   31  C   UNK N   1      29.218  16.565   5.818  0.00  0.00     0.329 A 
HETATM   32  H   UNK N   1      30.571  18.155   5.432  0.00  0.00     0.172 HD
HETATM   33  O   UNK N   1      29.941  15.743   6.356  0.00  0.00    -0.246 OA
ENDBRANCH  20  22
ENDBRANCH  13  14
ENDBRANCH   4  13
BRANCH   1  34
HETATM   34  C   UNK N   1      22.836  13.111   9.321  0.00  0.00    -0.010 A 
HETATM   35  C   UNK N   1      24.238  13.034   9.268  0.00  0.00     0.011 A 
HETATM   36  C   UNK N   1      24.969  12.522  10.340  0.00  0.00     0.004 A 
HETATM   37  C   UNK N   1      24.308  12.064  11.478  0.00  0.00     0.045 A 
HETATM   38  C   UNK N   1      22.917  12.136  11.554  0.00  0.00     0.155 A 
HETATM   39  C   UNK N   1      22.175  12.665  10.490  0.00  0.00     0.161 A 
HETATM   40  F   UNK N   1      22.283  11.678  12.661  0.00  0.00    -0.203 F 
HETATM   41  F   UNK N   1      20.828  12.717  10.610  0.00  0.00    -0.202 F 
ENDBRANCH   1  34
BRANCH  12  42
HETATM   42  N   UNK N   1      20.361  15.170   8.876  0.00  0.00    -0.421 N 
HETATM   43  H   UNK N   1      19.427  14.761   8.860  0.00  0.00     0.150 HD
HETATM   44  H   UNK N   1      20.460  15.821   9.654  0.00  0.00     0.150 HD
ENDBRANCH  12  42
TORSDOF 5
ENDMDL
MODEL 6
REMARK VINA RESULT:      -8.6      3.699      7.701
REMARK  5 active torsions:
REMARK  status: ('A' for Active; 'I' for Inactive)
REMARK    1  A    between atoms: C_9  and  C_3 
REMARK    2  A    between atoms: C_12  and  O_22 
REMARK    3  A    between atoms: C_20  and  N_21 
REMARK    4  A    between atoms: O_22  and  C_23 
REMARK       I    between atoms: C_23  and  N_25 
REMARK    5  A    between atoms: C_28  and  N_31 
ROOT
HETATM    1  C   UNK N   1      22.386  15.435   3.304  0.00  0.00     0.049 C 
HETATM    2  C   UNK N   1      21.323  16.081   2.404  0.00  0.00     0.015 C 
HETATM    3  C   UNK N   1      20.657  17.325   2.996  0.00  0.00     0.040 C 
HETATM    4  C   UNK N   1      21.505  18.026   4.049  0.00  0.00     0.184 C 
HETATM    5  C   UNK N   1      21.284  17.407   5.402  0.00  0.00     0.047 A 
HETATM    6  C   UNK N   1      21.429  16.011   5.668  0.00  0.00    -0.010 A 
HETATM    7  C   UNK N   1      21.133  15.554   6.960  0.00  0.00     0.012 A 
HETATM    8  C   UNK N   1      20.714  16.433   7.952  0.00  0.00     0.018 A 
HETATM    9  C   UNK N   1      20.579  17.783   7.651  0.00  0.00     0.088 A 
HETATM   10  N   UNK N   1      20.859  18.233   6.400  0.00  0.00    -0.367 N 
ATOM     11  HN  UNK N   1      20.748  19.227   6.200  1.00  0.00     0.165 HD
HETATM   12  C   UNK N   1      21.829  14.951   4.653  0.00  0.00     0.118 C 
ENDROOT
BRANCH   4  13
HETATM   13  O   UNK N   1      22.833  18.037   3.677  0.00  0.00    -0.292 OA
BRANCH  13  14
HETATM   14  C   UNK N   1      23.784  18.953   4.011  0.00  0.00     0.363 C 
HETATM   15  O   UNK N   1      23.610  20.108   3.648  0.00  0.00    -0.238 OA
HETATM   16  N   UNK N   1      24.930  18.631   4.687  0.00  0.00    -0.328 N 
HETATM   17  C   UNK N   1      25.964  19.618   4.847  0.00  0.00     0.130 C 
HETATM   18  C   UNK N   1      25.286  17.280   5.031  0.00  0.00     0.130 C 
HETATM   19  C   UNK N   1      27.040  19.299   3.813  0.00  0.00     0.046 C 
HETATM   20  C   UNK N   1      27.472  17.815   3.844  0.00  0.00     0.098 C 
HETATM   21  C   UNK N   1      26.306  16.817   4.003  0.00  0.00     0.046 C 
BRANCH  20  22
HETATM   22  N   UNK N   1      28.572  17.515   4.764  0.00  0.00    -0.291 N 
HETATM   23  C   UNK N   1      28.737  17.823   6.066  0.00  0.00     0.083 A 
HETATM   24  C   UNK N   1      27.894  18.497   6.945  0.00  0.00     0.035 A 
HETATM   25  C   UNK N   1      29.958  17.372   6.473  0.00  0.00     0.136 A 
HETATM   26  C   UNK N   1      28.353  18.687   8.260  0.00  0.00     0.019 A 
HETATM   27  C   UNK N   1      29.629  18.205   8.638  0.00  0.00     0.090 A 
HETATM   28  N   UNK N   1      30.419  17.550   7.734  0.00  0.00    -0.350 N 
ATOM     29  HN  UNK N   1      31.340  17.203   8.005  1.00  0.00     0.166 HD
HETATM   30  N   UNK N   1      30.606  16.764   5.463  0.00  0.00    -0.292 N 
HETATM   31  C   UNK N   1      29.728  16.869   4.423  0.00  0.00     0.329 A 
HETATM   32  H   UNK N   1      31.498  16.345   5.472  0.00  0.00     0.172 HD
HETATM   33  O   UNK N   1      29.962  16.443   3.304  0.00  0.00    -0.246 OA
ENDBRANCH  20  22
ENDBRANCH  13  14
ENDBRANCH   4  13
BRANCH   1  34
HETATM   34  C   UNK N   1      23.251  14.504   2.480  0.00  0.00    -0.010 A 
HETATM   35  C   UNK N   1      22.895  14.334   1.132  0.00  0.00     0.011 A 
HETATM   36  C   UNK N   1      23.615  13.473   0.303  0.00  0.00     0.004 A 
HETATM   37  C   UNK N   1      24.697  12.758   0.814  0.00  0.00     0.045 A 
HETATM   38  C   UNK N   1      25.071  12.916   2.149  0.00  0.00     0.155 A 
HETATM   39  C   UNK N   1      24.364  13.791   2.984  0.00  0.00     0.161 A 
HETATM   40  F   UNK N   1      26.117  12.207   2.639  0.00  0.00    -0.203 F 
HETATM   41  F   UNK N   1      24.766  13.914   4.271  0.00  0.00    -0.202 F 
ENDBRANCH   1  34
BRANCH  12  42
HETATM   42  N   UNK N   1      20.705  14.048   4.448  0.00  0.00    -0.421 N 
HETATM   43  H   UNK N   1      20.446  13.090   4.685  0.00  0.00     0.150 HD
HETATM   44  H   UNK N   1      19.967  14.503   3.912  0.00  0.00     0.150 HD
ENDBRANCH  12  42
TORSDOF 5
ENDMDL
MODEL 7
REMARK VINA RESULT:      -8.6     13.767     16.805
REMARK  5 active torsions:
REMARK  status: ('A' for Active; 'I' for Inactive)
REMARK    1  A    between atoms: C_9  and  C_3 
REMARK    2  A    between atoms: C_12  and  O_22 
REMARK    3  A    between atoms: C_20  and  N_21 
REMARK    4  A    between atoms: O_22  and  C_23 
REMARK       I    between atoms: C_23  and  N_25 
REMARK    5  A    between atoms: C_28  and  N_31 
ROOT
HETATM    1  C   UNK N   1      27.119  26.730  -6.634  0.00  0.00     0.049 C 
HETATM    2  C   UNK N   1      25.814  27.273  -6.033  0.00  0.00     0.015 C 
HETATM    3  C   UNK N   1      24.863  26.200  -5.499  0.00  0.00     0.040 C 
HETATM    4  C   UNK N   1      25.561  24.898  -5.128  0.00  0.00     0.184 C 
HETATM    5  C   UNK N   1      25.696  24.011  -6.336  0.00  0.00     0.047 A 
HETATM    6  C   UNK N   1      26.298  24.428  -7.563  0.00  0.00    -0.010 A 
HETATM    7  C   UNK N   1      26.306  23.522  -8.632  0.00  0.00     0.012 A 
HETATM    8  C   UNK N   1      25.745  22.255  -8.502  0.00  0.00     0.018 A 
HETATM    9  C   UNK N   1      25.163  21.891  -7.294  0.00  0.00     0.088 A 
HETATM   10  N   UNK N   1      25.148  22.765  -6.254  0.00  0.00    -0.367 N 
ATOM     11  HN  UNK N   1      24.711  22.478  -5.378  1.00  0.00     0.165 HD
HETATM   12  C   UNK N   1      26.894  25.800  -7.838  0.00  0.00     0.118 C 
ENDROOT
BRANCH   4  13
HETATM   13  O   UNK N   1      26.769  25.151  -4.513  0.00  0.00    -0.292 OA
BRANCH  13  14
HETATM   14  C   UNK N   1      27.508  24.300  -3.749  0.00  0.00     0.363 C 
HETATM   15  O   UNK N   1      27.136  24.101  -2.601  0.00  0.00    -0.238 OA
HETATM   16  N   UNK N   1      28.658  23.702  -4.191  0.00  0.00    -0.328 N 
HETATM   17  C   UNK N   1      29.475  22.959  -3.269  0.00  0.00     0.130 C 
HETATM   18  C   UNK N   1      29.247  23.984  -5.473  0.00  0.00     0.130 C 
HETATM   19  C   UNK N   1      30.644  23.863  -2.890  0.00  0.00     0.046 C 
HETATM   20  C   UNK N   1      31.349  24.469  -4.124  0.00  0.00     0.098 C 
HETATM   21  C   UNK N   1      30.390  24.958  -5.229  0.00  0.00     0.046 C 
BRANCH  20  22
HETATM   22  N   UNK N   1      32.437  23.655  -4.672  0.00  0.00    -0.291 N 
HETATM   23  C   UNK N   1      32.522  22.324  -4.877  0.00  0.00     0.083 A 
HETATM   24  C   UNK N   1      31.584  21.320  -4.657  0.00  0.00     0.035 A 
HETATM   25  C   UNK N   1      33.763  22.032  -5.358  0.00  0.00     0.136 A 
HETATM   26  C   UNK N   1      31.971  20.002  -4.953  0.00  0.00     0.019 A 
HETATM   27  C   UNK N   1      33.272  19.743  -5.447  0.00  0.00     0.090 A 
HETATM   28  N   UNK N   1      34.157  20.768  -5.644  0.00  0.00    -0.350 N 
ATOM     29  HN  UNK N   1      35.095  20.582  -6.000  1.00  0.00     0.166 HD
HETATM   30  N   UNK N   1      34.506  23.147  -5.481  0.00  0.00    -0.292 N 
HETATM   31  C   UNK N   1      33.662  24.131  -5.050  0.00  0.00     0.329 A 
HETATM   32  H   UNK N   1      35.433  23.233  -5.804  0.00  0.00     0.172 HD
HETATM   33  O   UNK N   1      33.979  25.307  -4.995  0.00  0.00    -0.246 OA
ENDBRANCH  20  22
ENDBRANCH  13  14
ENDBRANCH   4  13
BRANCH   1  34
HETATM   34  C   UNK N   1      28.134  27.849  -6.738  0.00  0.00    -0.010 A 
HETATM   35  C   UNK N   1      27.800  29.068  -6.126  0.00  0.00     0.011 A 
HETATM   36  C   UNK N   1      28.659  30.165  -6.196  0.00  0.00     0.004 A 
HETATM   37  C   UNK N   1      29.862  30.064  -6.890  0.00  0.00     0.045 A 
HETATM   38  C   UNK N   1      30.217  28.860  -7.501  0.00  0.00     0.155 A 
HETATM   39  C   UNK N   1      29.368  27.748  -7.423  0.00  0.00     0.161 A 
HETATM   40  F   UNK N   1      31.384  28.774  -8.185  0.00  0.00    -0.203 F 
HETATM   41  F   UNK N   1      29.755  26.601  -8.028  0.00  0.00    -0.202 F 
ENDBRANCH   1  34
BRANCH  12  42
HETATM   42  N   UNK N   1      26.093  26.465  -8.855  0.00  0.00    -0.421 N 
HETATM   43  H   UNK N   1      26.221  27.163  -9.589  0.00  0.00     0.150 HD
HETATM   44  H   UNK N   1      25.126  26.143  -8.825  0.00  0.00     0.150 HD
ENDBRANCH  12  42
TORSDOF 5
ENDMDL
MODEL 8
REMARK VINA RESULT:      -8.3      3.220      7.903
REMARK  5 active torsions:
REMARK  status: ('A' for Active; 'I' for Inactive)
REMARK    1  A    between atoms: C_9  and  C_3 
REMARK    2  A    between atoms: C_12  and  O_22 
REMARK    3  A    between atoms: C_20  and  N_21 
REMARK    4  A    between atoms: O_22  and  C_23 
REMARK       I    between atoms: C_23  and  N_25 
REMARK    5  A    between atoms: C_28  and  N_31 
ROOT
HETATM    1  C   UNK N   1      22.565  13.706   5.692  0.00  0.00     0.049 C 
HETATM    2  C   UNK N   1      23.870  12.915   5.852  0.00  0.00     0.015 C 
HETATM    3  C   UNK N   1      24.782  12.932   4.624  0.00  0.00     0.040 C 
HETATM    4  C   UNK N   1      24.553  14.131   3.713  0.00  0.00     0.184 C 
HETATM    5  C   UNK N   1      23.442  13.848   2.739  0.00  0.00     0.047 A 
HETATM    6  C   UNK N   1      22.138  13.413   3.129  0.00  0.00    -0.010 A 
HETATM    7  C   UNK N   1      21.212  13.126   2.117  0.00  0.00     0.012 A 
HETATM    8  C   UNK N   1      21.552  13.260   0.775  0.00  0.00     0.018 A 
HETATM    9  C   UNK N   1      22.834  13.679   0.438  0.00  0.00     0.088 A 
HETATM   10  N   UNK N   1      23.738  13.956   1.412  0.00  0.00    -0.367 N 
ATOM     11  HN  UNK N   1      24.675  14.257   1.142  1.00  0.00     0.165 HD
HETATM   12  C   UNK N   1      21.670  13.181   4.557  0.00  0.00     0.118 C 
ENDROOT
BRANCH   4  13
HETATM   13  O   UNK N   1      24.334  15.273   4.456  0.00  0.00    -0.292 OA
BRANCH  13  14
HETATM   14  C   UNK N   1      25.023  16.446   4.400  0.00  0.00     0.363 C 
HETATM   15  O   UNK N   1      24.720  17.240   3.521  0.00  0.00    -0.238 OA
HETATM   16  N   UNK N   1      26.054  16.751   5.249  0.00  0.00    -0.328 N 
HETATM   17  C   UNK N   1      26.844  17.929   5.015  0.00  0.00     0.130 C 
HETATM   18  C   UNK N   1      26.571  15.825   6.220  0.00  0.00     0.130 C 
HETATM   19  C   UNK N   1      28.140  17.467   4.356  0.00  0.00     0.046 C 
HETATM   20  C   UNK N   1      28.815  16.308   5.123  0.00  0.00     0.098 C 
HETATM   21  C   UNK N   1      27.838  15.227   5.630  0.00  0.00     0.046 C 
BRANCH  20  22
HETATM   22  N   UNK N   1      29.750  16.727   6.170  0.00  0.00    -0.291 N 
HETATM   23  C   UNK N   1      29.529  17.319   7.361  0.00  0.00     0.083 A 
HETATM   24  C   UNK N   1      28.334  17.686   7.974  0.00  0.00     0.035 A 
HETATM   25  C   UNK N   1      30.728  17.563   7.961  0.00  0.00     0.136 A 
HETATM   26  C   UNK N   1      28.420  18.313   9.229  0.00  0.00     0.019 A 
HETATM   27  C   UNK N   1      29.688  18.550   9.813  0.00  0.00     0.090 A 
HETATM   28  N   UNK N   1      30.832  18.171   9.167  0.00  0.00    -0.350 N 
ATOM     29  HN  UNK N   1      31.746  18.342   9.587  1.00  0.00     0.166 HD
HETATM   30  N   UNK N   1      31.746  17.139   7.189  0.00  0.00    -0.292 N 
HETATM   31  C   UNK N   1      31.112  16.629   6.093  0.00  0.00     0.329 A 
HETATM   32  H   UNK N   1      32.713  17.185   7.372  0.00  0.00     0.172 HD
HETATM   33  O   UNK N   1      31.705  16.153   5.139  0.00  0.00    -0.246 OA
ENDBRANCH  20  22
ENDBRANCH  13  14
ENDBRANCH   4  13
BRANCH   1  34
HETATM   34  C   UNK N   1      21.960  13.970   7.055  0.00  0.00    -0.010 A 
HETATM   35  C   UNK N   1      21.997  12.914   7.980  0.00  0.00     0.011 A 
HETATM   36  C   UNK N   1      21.437  13.054   9.251  0.00  0.00     0.004 A 
HETATM   37  C   UNK N   1      20.819  14.249   9.611  0.00  0.00     0.045 A 
HETATM   38  C   UNK N   1      20.775  15.313   8.709  0.00  0.00     0.155 A 
HETATM   39  C   UNK N   1      21.349  15.188   7.437  0.00  0.00     0.161 A 
HETATM   40  F   UNK N   1      20.161  16.468   9.064  0.00  0.00    -0.203 F 
HETATM   41  F   UNK N   1      21.284  16.247   6.596  0.00  0.00    -0.202 F 
ENDBRANCH   1  34
BRANCH  12  42
HETATM   42  N   UNK N   1      21.396  11.762   4.737  0.00  0.00    -0.421 N 
HETATM   43  H   UNK N   1      21.458  11.063   5.478  0.00  0.00     0.150 HD
HETATM   44  H   UNK N   1      21.042  11.348   3.875  0.00  0.00     0.150 HD
ENDBRANCH  12  42
TORSDOF 5
ENDMDL
MODEL 9
REMARK VINA RESULT:      -8.3     11.007     15.336
REMARK  5 active torsions:
REMARK  status: ('A' for Active; 'I' for Inactive)
REMARK    1  A    between atoms: C_9  and  C_3 
REMARK    2  A    between atoms: C_12  and  O_22 
REMARK    3  A    between atoms: C_20  and  N_21 
REMARK    4  A    between atoms: O_22  and  C_23 
REMARK       I    between atoms: C_23  and  N_25 
REMARK    5  A    between atoms: C_28  and  N_31 
ROOT
HETATM    1  C   UNK N   1      36.192  10.141  14.747  0.00  0.00     0.049 C 
HETATM    2  C   UNK N   1      34.794  10.316  14.137  0.00  0.00     0.015 C 
HETATM    3  C   UNK N   1      34.003  11.505  14.685  0.00  0.00     0.040 C 
HETATM    4  C   UNK N   1      34.882  12.603  15.271  0.00  0.00     0.184 C 
HETATM    5  C   UNK N   1      35.205  12.306  16.710  0.00  0.00     0.047 A 
HETATM    6  C   UNK N   1      35.785  11.078  17.155  0.00  0.00    -0.010 A 
HETATM    7  C   UNK N   1      35.980  10.905  18.532  0.00  0.00     0.012 A 
HETATM    8  C   UNK N   1      35.622  11.899  19.436  0.00  0.00     0.018 A 
HETATM    9  C   UNK N   1      35.054  13.076  18.964  0.00  0.00     0.088 A 
HETATM   10  N   UNK N   1      34.858  13.249  17.631  0.00  0.00    -0.367 N 
ATOM     11  HN  UNK N   1      34.435  14.119  17.306  1.00  0.00     0.165 HD
HETATM   12  C   UNK N   1      36.168   9.904  16.267  0.00  0.00     0.118 C 
ENDROOT
BRANCH   4  13
HETATM   13  O   UNK N   1      36.008  12.791  14.497  0.00  0.00    -0.292 OA
BRANCH  13  14
HETATM   14  C   UNK N   1      36.372  13.911  13.815  0.00  0.00     0.363 C 
HETATM   15  O   UNK N   1      36.680  14.898  14.468  0.00  0.00    -0.238 OA
HETATM   16  N   UNK N   1      36.365  13.991  12.448  0.00  0.00    -0.328 N 
HETATM   17  C   UNK N   1      36.592  15.258  11.807  0.00  0.00     0.130 C 
HETATM   18  C   UNK N   1      35.887  12.930  11.602  0.00  0.00     0.130 C 
HETATM   19  C   UNK N   1      35.226  15.785  11.379  0.00  0.00     0.046 C 
HETATM   20  C   UNK N   1      34.405  14.736  10.595  0.00  0.00     0.098 C 
HETATM   21  C   UNK N   1      34.477  13.309  11.174  0.00  0.00     0.046 C 
BRANCH  20  22
HETATM   22  N   UNK N   1      34.622  14.745   9.146  0.00  0.00    -0.291 N 
HETATM   23  C   UNK N   1      35.701  14.396   8.417  0.00  0.00     0.083 A 
HETATM   24  C   UNK N   1      36.933  13.891   8.820  0.00  0.00     0.035 A 
HETATM   25  C   UNK N   1      35.438  14.633   7.100  0.00  0.00     0.136 A 
HETATM   26  C   UNK N   1      37.885  13.635   7.818  0.00  0.00     0.019 A 
HETATM   27  C   UNK N   1      37.569  13.899   6.464  0.00  0.00     0.090 A 
HETATM   28  N   UNK N   1      36.343  14.398   6.120  0.00  0.00    -0.350 N 
ATOM     29  HN  UNK N   1      36.115  14.590   5.144  1.00  0.00     0.166 HD
HETATM   30  N   UNK N   1      34.197  15.130   6.940  0.00  0.00    -0.292 N 
HETATM   31  C   UNK N   1      33.720  15.188   8.218  0.00  0.00     0.329 A 
HETATM   32  H   UNK N   1      33.744  15.388   6.104  0.00  0.00     0.172 HD
HETATM   33  O   UNK N   1      32.610  15.609   8.498  0.00  0.00    -0.246 OA
ENDBRANCH  20  22
ENDBRANCH  13  14
ENDBRANCH   4  13
BRANCH   1  34
HETATM   34  C   UNK N   1      37.021   9.231  13.866  0.00  0.00    -0.010 A 
HETATM   35  C   UNK N   1      36.322   8.398  12.978  0.00  0.00     0.011 A 
HETATM   36  C   UNK N   1      37.000   7.505  12.147  0.00  0.00     0.004 A 
HETATM   37  C   UNK N   1      38.389   7.421  12.203  0.00  0.00     0.045 A 
HETATM   38  C   UNK N   1      39.105   8.243  13.074  0.00  0.00     0.155 A 
HETATM   39  C   UNK N   1      38.434   9.155  13.900  0.00  0.00     0.161 A 
HETATM   40  F   UNK N   1      40.456   8.146  13.129  0.00  0.00    -0.203 F 
HETATM   41  F   UNK N   1      39.170   9.934  14.727  0.00  0.00    -0.202 F 
ENDBRANCH   1  34
BRANCH  12  42
HETATM   42  N   UNK N   1      35.315   8.770  16.593  0.00  0.00    -0.421 N 
HETATM   43  H   UNK N   1      34.410   8.392  16.311  0.00  0.00     0.150 HD
HETATM   44  H   UNK N   1      35.746   8.186  17.310  0.00  0.00     0.150 HD
ENDBRANCH  12  42
TORSDOF 5
ENDMDL
