REMARK  4 active torsions:
REMARK  status: ('A' for Active; 'I' for Inactive)
REMARK    1  A    between atoms: C_6  and  S_11 
REMARK    2  A    between atoms: S_11  and  N_14 
REMARK       I    between atoms: N_17  and  C_20 
REMARK    3  A    between atoms: C_24  and  C_28 
REMARK       I    between atoms: C_28  and  N_30 
REMARK    4  A    between atoms: N_30  and  O_31 
ROOT
HETATM    1  N   UNK N   1       5.386   0.102  -0.719  0.00  0.00    -0.203 NA
HETATM    2  C   UNK N   1       5.464   1.570  -0.916  0.00  0.00     0.128 C 
HETATM    3  C   UNK N   1       5.785   2.299   0.389  0.00  0.00     0.157 C 
HETATM    4  N   UNK N   1       7.014   1.742   0.863  0.00  0.00    -0.215 N 
HETATM    5  C   UNK N   1       7.032   0.328   1.158  0.00  0.00     0.157 C 
HETATM    6  C   UNK N   1       6.601  -0.448  -0.095  0.00  0.00     0.128 C 
HETATM    7  C   UNK N   1       8.213   2.447   0.604  0.00  0.00     0.679 A 
HETATM    8  N   UNK N   1       8.159   3.760   0.242  0.00  0.00    -0.201 N 
ATOM      9  HN  UNK N   1       7.266   4.252   0.272  1.00  0.00     0.183 HD
HETATM   10  C   UNK N   1       9.271   4.422  -0.157  0.00  0.00     0.124 A 
HETATM   11  C   UNK N   1      10.494   3.753  -0.234  0.00  0.00     0.066 A 
HETATM   12  C   UNK N   1      10.532   2.414   0.168  0.00  0.00     0.124 A 
HETATM   13  N   UNK N   1       9.401   1.790   0.584  0.00  0.00    -0.201 N 
ATOM     14  HN  UNK N   1       9.444   0.816   0.884  1.00  0.00     0.183 HD
ENDROOT
BRANCH   1  15
HETATM   15  S   UNK N   1       3.911  -0.422   0.156  0.00  0.00     0.243 S 
HETATM   16  O   UNK N   1       3.374  -0.056  -1.242  0.00  0.00    -0.206 OA
HETATM   17  O   UNK N   1       3.444   0.925   0.729  0.00  0.00    -0.206 OA
BRANCH  15  18
HETATM   18  C   UNK N   1       2.297  -1.231   0.019  0.00  0.00     0.075 A 
HETATM   19  C   UNK N   1       1.139  -0.428   0.008  0.00  0.00     0.037 A 
HETATM   20  C   UNK N   1      -0.121  -0.992  -0.002  0.00  0.00    -0.025 A 
HETATM   21  C   UNK N   1      -1.244  -0.166  -0.033  0.00  0.00     0.012 A 
HETATM   22  C   UNK N   1      -0.260  -2.393   0.030  0.00  0.00    -0.026 A 
HETATM   23  C   UNK N   1      -2.520  -0.730  -0.027  0.00  0.00     0.001 A 
HETATM   24  C   UNK N   1      -2.669  -2.121   0.013  0.00  0.00     0.001 A 
HETATM   25  C   UNK N   1      -1.541  -2.954   0.040  0.00  0.00     0.012 A 
HETATM   26  C   UNK N   1       0.884  -3.207   0.058  0.00  0.00     0.014 A 
HETATM   27  C   UNK N   1       2.164  -2.626   0.058  0.00  0.00     0.026 A 
ENDBRANCH  15  18
ENDBRANCH   1  15
BRANCH  11  28
HETATM   28  C   UNK N   1      11.691   4.460  -0.762  0.00  0.00     0.277 C 
HETATM   29  O   UNK N   1      11.614   5.657  -0.995  0.00  0.00    -0.265 OA
HETATM   30  N   UNK N   1      12.859   3.821  -1.030  0.00  0.00    -0.233 N 
HETATM   31  H   UNK N   1      13.622   4.349  -1.359  0.00  0.00     0.197 HD
BRANCH  30  32
HETATM   32  O   UNK N   1      13.013   2.500  -0.866  0.00  0.00    -0.287 OA
HETATM   33  H   UNK N   1      12.241   1.925  -0.747  0.00  0.00     0.244 HD
ENDBRANCH  30  32
ENDBRANCH  11  28
TORSDOF 4
