REMARK  6 active torsions:
REMARK  status: ('A' for Active; 'I' for Inactive)
REMARK    1  A    between atoms: C_5  and  C_21 
REMARK    2  A    between atoms: C_6  and  C_13 
REMARK    3  A    between atoms: N_17  and  O_19 
REMARK    4  A    between atoms: C_21  and  C_22 
REMARK    5  A    between atoms: C_21  and  N_26 
REMARK    6  A    between atoms: N_26  and  C_27 
ROOT
HETATM    1  C   UNK N   1      -3.494  -8.444  -0.375  0.00  0.00     0.003 A 
HETATM    2  C   UNK N   1      -3.517  -7.045  -0.361  0.00  0.00     0.014 A 
HETATM    3  C   UNK N   1      -2.319  -6.328  -0.281  0.00  0.00    -0.007 A 
HETATM    4  C   UNK N   1      -2.326  -4.938  -0.193  0.00  0.00     0.025 A 
HETATM    5  C   UNK N   1      -1.130  -4.213  -0.017  0.00  0.00     0.002 A 
HETATM    6  C   UNK N   1       0.094  -4.952   0.003  0.00  0.00     0.053 A 
HETATM    7  N   UNK N   1       0.058  -6.309  -0.128  0.00  0.00    -0.353 N 
ATOM      8  HN  UNK N   1       0.941  -6.819  -0.150  1.00  0.00     0.166 HD
HETATM    9  C   UNK N   1      -1.095  -7.011  -0.231  0.00  0.00     0.065 A 
HETATM   10  C   UNK N   1      -1.074  -8.416  -0.241  0.00  0.00     0.061 A 
HETATM   11  C   UNK N   1      -2.276  -9.127  -0.306  0.00  0.00     0.026 A 
HETATM   12 Cl   UNK N   1       0.441  -9.297  -0.112  0.00  0.00    -0.082 Cl
ENDROOT
BRANCH   5  13
HETATM   13  C   UNK N   1      -1.192  -2.699   0.234  0.00  0.00     0.227 C 
BRANCH  13  14
HETATM   14  C   UNK N   1      -2.605  -2.105   0.476  0.00  0.00     0.411 C 
HETATM   15  F   UNK N   1      -3.237  -1.830  -0.725  0.00  0.00    -0.168 F 
HETATM   16  F   UNK N   1      -2.493  -0.950   1.226  0.00  0.00    -0.168 F 
HETATM   17  F   UNK N   1      -3.396  -2.960   1.220  0.00  0.00    -0.168 F 
ENDBRANCH  13  14
BRANCH  13  18
HETATM   18  N   UNK N   1      -0.388  -1.922  -0.717  0.00  0.00    -0.357 N 
HETATM   19  H   UNK N   1       0.059  -2.393  -1.457  0.00  0.00     0.162 HD
BRANCH  18  20
HETATM   20  C   UNK N   1      -0.231  -0.507  -0.606  0.00  0.00     0.132 A 
HETATM   21  C   UNK N   1       1.030   0.071  -0.407  0.00  0.00     0.103 A 
HETATM   22  C   UNK N   1       1.113   1.455  -0.173  0.00  0.00     0.063 A 
HETATM   23  N   UNK N   1       2.165  -0.682  -0.398  0.00  0.00    -0.361 N 
HETATM   24  C   UNK N   1       2.351   2.037   0.094  0.00  0.00     0.033 A 
HETATM   25  N   UNK N   1      -0.012   2.215  -0.188  0.00  0.00    -0.350 N 
HETATM   26  C   UNK N   1       3.496   1.241   0.111  0.00  0.00     0.019 A 
HETATM   27  C   UNK N   1       3.383  -0.126  -0.153  0.00  0.00     0.088 A 
HETATM   28  C   UNK N   1      -1.221   1.649  -0.434  0.00  0.00     0.182 A 
ATOM     29  HN  UNK N   1       0.051   3.218  -0.014  1.00  0.00     0.166 HD
HETATM   30  N   UNK N   1      -1.324   0.309  -0.630  0.00  0.00    -0.337 N 
ATOM     31  HN  UNK N   1      -2.244  -0.099  -0.799  1.00  0.00     0.168 HD
ATOM     32  HN  UNK N   1       2.101  -1.683  -0.580  1.00  0.00     0.165 HD
ENDBRANCH  18  20
ENDBRANCH  13  18
ENDBRANCH   5  13
BRANCH   6  33
HETATM   33  C   UNK N   1       1.423  -4.359   0.267  0.00  0.00     0.009 A 
HETATM   34  C   UNK N   1       1.583  -3.244   1.093  0.00  0.00     0.016 A 
HETATM   35  C   UNK N   1       2.863  -2.795   1.414  0.00  0.00     0.021 A 
HETATM   36  C   UNK N   1       3.974  -3.444   0.875  0.00  0.00     0.122 A 
HETATM   37  N   UNK N   1       3.810  -4.526   0.069  0.00  0.00    -0.246 N 
HETATM   38  C   UNK N   1       2.570  -5.004  -0.218  0.00  0.00     0.136 A 
BRANCH  37  39
HETATM   39  O   UNK N   1       4.877  -5.131  -0.440  0.00  0.00    -0.284 OA
ATOM     40  HO  UNK N   1       4.762  -5.887  -1.004  1.00  0.00     0.245 HD
ENDBRANCH  37  39
ENDBRANCH   6  33
TORSDOF 6
