MODEL 1
REMARK VINA RESULT:      -4.0      0.000      0.000
REMARK  5 active torsions:
REMARK  status: ('A' for Active; 'I' for Inactive)
REMARK    1  A    between atoms: Se_1  and  C_6 
REMARK    2  A    between atoms: O_2  and  C_8 
REMARK    3  A    between atoms: C_5  and  N_4 
REMARK    4  A    between atoms: C_5  and  C_6 
REMARK    5  A    between atoms: C_5  and  C_8 
ROOT
HETATM    1  C   UNK N   1      34.066  17.262   9.027  0.00  0.00     0.173 C 
ENDROOT
BRANCH   1   2
HETATM    2  N   UNK N   1      34.725  17.029  10.304  0.00  0.00    -0.418 N 
HETATM    3  H   UNK N   1      35.384  16.257  10.405  0.00  0.00     0.150 HD
HETATM    4  H   UNK N   1      34.527  17.639  11.098  0.00  0.00     0.150 HD
ENDBRANCH   1   2
BRANCH   1   5
HETATM    5  C   UNK N   1      32.818  16.477   8.649  0.00  0.00     0.038 C 
BRANCH   5   6
HETATM    6 Se   UNK N   1      31.219  17.563   8.442  0.00  0.00     0.000 Se
HETATM    7  C   UNK N   1      31.113  16.931   6.609  0.00  0.00     0.000 C 
ENDBRANCH   5   6
ENDBRANCH   1   5
BRANCH   1   8
HETATM    8  C   UNK N   1      34.635  18.282   8.096  0.00  0.00     0.163 C 
HETATM    9  O   UNK N   1      35.272  19.228   8.532  0.00  0.00    -0.648 OA
BRANCH   8  10
HETATM   10  O   UNK N   1      34.446  18.160   6.769  0.00  0.00    -0.775 OA
HETATM   11  H   UNK N   1      34.529  17.321   6.359  0.00  0.00     0.167 HD
ENDBRANCH   8  10
ENDBRANCH   1   8
TORSDOF 5
ENDMDL
MODEL 2
REMARK VINA RESULT:      -3.8      1.851      2.524
REMARK  5 active torsions:
REMARK  status: ('A' for Active; 'I' for Inactive)
REMARK    1  A    between atoms: Se_1  and  C_6 
REMARK    2  A    between atoms: O_2  and  C_8 
REMARK    3  A    between atoms: C_5  and  N_4 
REMARK    4  A    between atoms: C_5  and  C_6 
REMARK    5  A    between atoms: C_5  and  C_8 
ROOT
HETATM    1  C   UNK N   1      34.278  17.189   9.133  0.00  0.00     0.173 C 
ENDROOT
BRANCH   1   2
HETATM    2  N   UNK N   1      34.920  17.145  10.438  0.00  0.00    -0.418 N 
HETATM    3  H   UNK N   1      34.994  17.994  10.999  0.00  0.00     0.150 HD
HETATM    4  H   UNK N   1      35.297  16.266  10.792  0.00  0.00     0.150 HD
ENDBRANCH   1   2
BRANCH   1   5
HETATM    5  C   UNK N   1      33.209  16.170   8.765  0.00  0.00     0.038 C 
BRANCH   5   6
HETATM    6 Se   UNK N   1      33.698  14.325   9.128  0.00  0.00     0.000 Se
HETATM    7  C   UNK N   1      35.147  14.532   7.851  0.00  0.00     0.000 C 
ENDBRANCH   5   6
ENDBRANCH   1   5
BRANCH   1   8
HETATM    8  C   UNK N   1      34.685  18.250   8.163  0.00  0.00     0.163 C 
HETATM    9  O   UNK N   1      34.412  18.141   6.979  0.00  0.00    -0.648 OA
BRANCH   8  10
HETATM   10  O   UNK N   1      35.358  19.333   8.596  0.00  0.00    -0.775 OA
HETATM   11  H   UNK N   1      35.473  20.071   8.030  0.00  0.00     0.167 HD
ENDBRANCH   8  10
ENDBRANCH   1   8
TORSDOF 5
ENDMDL
MODEL 3
REMARK VINA RESULT:      -3.8      2.508      3.388
REMARK  5 active torsions:
REMARK  status: ('A' for Active; 'I' for Inactive)
REMARK    1  A    between atoms: Se_1  and  C_6 
REMARK    2  A    between atoms: O_2  and  C_8 
REMARK    3  A    between atoms: C_5  and  N_4 
REMARK    4  A    between atoms: C_5  and  C_6 
REMARK    5  A    between atoms: C_5  and  C_8 
ROOT
HETATM    1  C   UNK N   1      33.792  17.164   8.764  0.00  0.00     0.173 C 
ENDROOT
BRANCH   1   2
HETATM    2  N   UNK N   1      32.380  17.352   9.061  0.00  0.00    -0.418 N 
HETATM    3  H   UNK N   1      31.874  16.650   9.601  0.00  0.00     0.150 HD
HETATM    4  H   UNK N   1      31.895  18.186   8.728  0.00  0.00     0.150 HD
ENDBRANCH   1   2
BRANCH   1   5
HETATM    5  C   UNK N   1      34.538  15.949   9.298  0.00  0.00     0.038 C 
BRANCH   5   6
HETATM    6 Se   UNK N   1      35.533  16.274  10.935  0.00  0.00     0.000 Se
HETATM    7  C   UNK N   1      34.854  14.580  11.600  0.00  0.00     0.000 C 
ENDBRANCH   5   6
ENDBRANCH   1   5
BRANCH   1   8
HETATM    8  C   UNK N   1      34.495  18.183   7.927  0.00  0.00     0.163 C 
HETATM    9  O   UNK N   1      34.416  18.142   6.710  0.00  0.00    -0.648 OA
BRANCH   8  10
HETATM   10  O   UNK N   1      35.220  19.151   8.517  0.00  0.00    -0.775 OA
HETATM   11  H   UNK N   1      35.096  19.343   9.426  0.00  0.00     0.167 HD
ENDBRANCH   8  10
ENDBRANCH   1   8
TORSDOF 5
ENDMDL
MODEL 4
REMARK VINA RESULT:      -3.7     13.411     14.395
REMARK  5 active torsions:
REMARK  status: ('A' for Active; 'I' for Inactive)
REMARK    1  A    between atoms: Se_1  and  C_6 
REMARK    2  A    between atoms: O_2  and  C_8 
REMARK    3  A    between atoms: C_5  and  N_4 
REMARK    4  A    between atoms: C_5  and  C_6 
REMARK    5  A    between atoms: C_5  and  C_8 
ROOT
HETATM    1  C   UNK N   1      20.147  19.501   2.508  0.00  0.00     0.173 C 
ENDROOT
BRANCH   1   2
HETATM    2  N   UNK N   1      18.920  18.747   2.301  0.00  0.00    -0.418 N 
HETATM    3  H   UNK N   1      18.442  18.787   1.401  0.00  0.00     0.150 HD
HETATM    4  H   UNK N   1      18.537  18.179   3.057  0.00  0.00     0.150 HD
ENDBRANCH   1   2
BRANCH   1   5
HETATM    5  C   UNK N   1      20.841  19.489   3.863  0.00  0.00     0.038 C 
BRANCH   5   6
HETATM    6 Se   UNK N   1      22.068  18.005   4.123  0.00  0.00     0.000 Se
HETATM    7  C   UNK N   1      21.669  18.100   6.021  0.00  0.00     0.000 C 
ENDBRANCH   5   6
ENDBRANCH   1   5
BRANCH   1   8
HETATM    8  C   UNK N   1      20.713  20.286   1.369  0.00  0.00     0.163 C 
HETATM    9  O   UNK N   1      21.285  21.345   1.575  0.00  0.00    -0.648 OA
BRANCH   8  10
HETATM   10  O   UNK N   1      20.591  19.826   0.110  0.00  0.00    -0.775 OA
HETATM   11  H   UNK N   1      20.392  20.418  -0.589  0.00  0.00     0.167 HD
ENDBRANCH   8  10
ENDBRANCH   1   8
TORSDOF 5
ENDMDL
MODEL 5
REMARK VINA RESULT:      -3.6      4.786      5.485
REMARK  5 active torsions:
REMARK  status: ('A' for Active; 'I' for Inactive)
REMARK    1  A    between atoms: Se_1  and  C_6 
REMARK    2  A    between atoms: O_2  and  C_8 
REMARK    3  A    between atoms: C_5  and  N_4 
REMARK    4  A    between atoms: C_5  and  C_6 
REMARK    5  A    between atoms: C_5  and  C_8 
ROOT
HETATM    1  C   UNK N   1      34.795  15.018  11.144  0.00  0.00     0.173 C 
ENDROOT
BRANCH   1   2
HETATM    2  N   UNK N   1      33.380  15.112  10.820  0.00  0.00    -0.418 N 
HETATM    3  H   UNK N   1      33.007  15.965  10.402  0.00  0.00     0.150 HD
HETATM    4  H   UNK N   1      32.760  14.325  11.011  0.00  0.00     0.150 HD
ENDBRANCH   1   2
BRANCH   1   5
HETATM    5  C   UNK N   1      35.368  13.738  11.734  0.00  0.00     0.038 C 
BRANCH   5   6
HETATM    6 Se   UNK N   1      35.899  13.880  13.598  0.00  0.00     0.000 Se
HETATM    7  C   UNK N   1      34.888  12.257  13.937  0.00  0.00     0.000 C 
ENDBRANCH   5   6
ENDBRANCH   1   5
BRANCH   1   8
HETATM    8  C   UNK N   1      35.674  16.199  10.888  0.00  0.00     0.163 C 
HETATM    9  O   UNK N   1      35.186  17.299  10.685  0.00  0.00    -0.648 OA
BRANCH   8  10
HETATM   10  O   UNK N   1      37.012  16.051  10.880  0.00  0.00    -0.775 OA
HETATM   11  H   UNK N   1      37.562  16.734  11.211  0.00  0.00     0.167 HD
ENDBRANCH   8  10
ENDBRANCH   1   8
TORSDOF 5
ENDMDL
MODEL 6
REMARK VINA RESULT:      -3.6     11.341     12.093
REMARK  5 active torsions:
REMARK  status: ('A' for Active; 'I' for Inactive)
REMARK    1  A    between atoms: Se_1  and  C_6 
REMARK    2  A    between atoms: O_2  and  C_8 
REMARK    3  A    between atoms: C_5  and  N_4 
REMARK    4  A    between atoms: C_5  and  C_6 
REMARK    5  A    between atoms: C_5  and  C_8 
ROOT
HETATM    1  C   UNK N   1      22.682  11.877  11.173  0.00  0.00     0.173 C 
ENDROOT
BRANCH   1   2
HETATM    2  N   UNK N   1      21.308  11.858  11.652  0.00  0.00    -0.418 N 
HETATM    3  H   UNK N   1      20.805  12.734  11.794  0.00  0.00     0.150 HD
HETATM    4  H   UNK N   1      20.848  10.969  11.845  0.00  0.00     0.150 HD
ENDBRANCH   1   2
BRANCH   1   5
HETATM    5  C   UNK N   1      22.986  11.700   9.692  0.00  0.00     0.038 C 
BRANCH   5   6
HETATM    6 Se   UNK N   1      22.857  13.332   8.645  0.00  0.00     0.000 Se
HETATM    7  C   UNK N   1      24.765  13.187   8.314  0.00  0.00     0.000 C 
ENDBRANCH   5   6
ENDBRANCH   1   5
BRANCH   1   8
HETATM    8  C   UNK N   1      23.788  12.073  12.160  0.00  0.00     0.163 C 
HETATM    9  O   UNK N   1      23.562  12.019  13.358  0.00  0.00    -0.648 OA
BRANCH   8  10
HETATM   10  O   UNK N   1      25.040  12.309  11.726  0.00  0.00    -0.775 OA
HETATM   11  H   UNK N   1      25.216  13.052  11.181  0.00  0.00     0.167 HD
ENDBRANCH   8  10
ENDBRANCH   1   8
TORSDOF 5
ENDMDL
MODEL 7
REMARK VINA RESULT:      -3.5     11.076     11.856
REMARK  5 active torsions:
REMARK  status: ('A' for Active; 'I' for Inactive)
REMARK    1  A    between atoms: Se_1  and  C_6 
REMARK    2  A    between atoms: O_2  and  C_8 
REMARK    3  A    between atoms: C_5  and  N_4 
REMARK    4  A    between atoms: C_5  and  C_6 
REMARK    5  A    between atoms: C_5  and  C_8 
ROOT
HETATM    1  C   UNK N   1      23.216  12.161  11.444  0.00  0.00     0.173 C 
ENDROOT
BRANCH   1   2
HETATM    2  N   UNK N   1      23.289  12.105  12.896  0.00  0.00    -0.418 N 
HETATM    3  H   UNK N   1      22.448  12.249  13.455  0.00  0.00     0.150 HD
HETATM    4  H   UNK N   1      24.181  11.921  13.356  0.00  0.00     0.150 HD
ENDBRANCH   1   2
BRANCH   1   5
HETATM    5  C   UNK N   1      21.871  12.088  10.735  0.00  0.00     0.038 C 
BRANCH   5   6
HETATM    6 Se   UNK N   1      21.379  13.708   9.780  0.00  0.00     0.000 Se
HETATM    7  C   UNK N   1      21.446  12.675   8.137  0.00  0.00     0.000 C 
ENDBRANCH   5   6
ENDBRANCH   1   5
BRANCH   1   8
HETATM    8  C   UNK N   1      24.483  12.290  10.663  0.00  0.00     0.163 C 
HETATM    9  O   UNK N   1      24.553  11.853   9.525  0.00  0.00    -0.648 OA
BRANCH   8  10
HETATM   10  O   UNK N   1      25.554  12.892  11.214  0.00  0.00    -0.775 OA
HETATM   11  H   UNK N   1      25.466  13.739  11.605  0.00  0.00     0.167 HD
ENDBRANCH   8  10
ENDBRANCH   1   8
TORSDOF 5
ENDMDL
MODEL 8
REMARK VINA RESULT:      -3.4      2.423      2.843
REMARK  5 active torsions:
REMARK  status: ('A' for Active; 'I' for Inactive)
REMARK    1  A    between atoms: Se_1  and  C_6 
REMARK    2  A    between atoms: O_2  and  C_8 
REMARK    3  A    between atoms: C_5  and  N_4 
REMARK    4  A    between atoms: C_5  and  C_6 
REMARK    5  A    between atoms: C_5  and  C_8 
ROOT
HETATM    1  C   UNK N   1      34.506  15.634  10.012  0.00  0.00     0.173 C 
ENDROOT
BRANCH   1   2
HETATM    2  N   UNK N   1      33.739  14.988  11.067  0.00  0.00    -0.418 N 
HETATM    3  H   UNK N   1      32.721  14.956  11.011  0.00  0.00     0.150 HD
HETATM    4  H   UNK N   1      34.220  14.568  11.862  0.00  0.00     0.150 HD
ENDBRANCH   1   2
BRANCH   1   5
HETATM    5  C   UNK N   1      34.174  15.378   8.549  0.00  0.00     0.038 C 
BRANCH   5   6
HETATM    6 Se   UNK N   1      32.287  15.539   8.114  0.00  0.00     0.000 Se
HETATM    7  C   UNK N   1      32.457  17.453   8.401  0.00  0.00     0.000 C 
ENDBRANCH   5   6
ENDBRANCH   1   5
BRANCH   1   8
HETATM    8  C   UNK N   1      35.624  16.551  10.390  0.00  0.00     0.163 C 
HETATM    9  O   UNK N   1      35.531  17.752  10.189  0.00  0.00    -0.648 OA
BRANCH   8  10
HETATM   10  O   UNK N   1      36.739  16.053  10.956  0.00  0.00    -0.775 OA
HETATM   11  H   UNK N   1      36.950  16.266  11.844  0.00  0.00     0.167 HD
ENDBRANCH   8  10
ENDBRANCH   1   8
TORSDOF 5
ENDMDL
MODEL 9
REMARK VINA RESULT:      -3.3      4.498      5.277
REMARK  5 active torsions:
REMARK  status: ('A' for Active; 'I' for Inactive)
REMARK    1  A    between atoms: Se_1  and  C_6 
REMARK    2  A    between atoms: O_2  and  C_8 
REMARK    3  A    between atoms: C_5  and  N_4 
REMARK    4  A    between atoms: C_5  and  C_6 
REMARK    5  A    between atoms: C_5  and  C_8 
ROOT
HETATM    1  C   UNK N   1      34.799  15.035  10.665  0.00  0.00     0.173 C 
ENDROOT
BRANCH   1   2
HETATM    2  N   UNK N   1      33.372  15.292  10.788  0.00  0.00    -0.418 N 
HETATM    3  H   UNK N   1      32.989  16.191  10.496  0.00  0.00     0.150 HD
HETATM    4  H   UNK N   1      32.755  14.573  11.167  0.00  0.00     0.150 HD
ENDBRANCH   1   2
BRANCH   1   5
HETATM    5  C   UNK N   1      35.320  13.608  10.567  0.00  0.00     0.038 C 
BRANCH   5   6
HETATM    6 Se   UNK N   1      35.487  12.695  12.274  0.00  0.00     0.000 Se
HETATM    7  C   UNK N   1      37.385  12.510  11.910  0.00  0.00     0.000 C 
ENDBRANCH   5   6
ENDBRANCH   1   5
BRANCH   1   8
HETATM    8  C   UNK N   1      35.742  16.194  10.637  0.00  0.00     0.163 C 
HETATM    9  O   UNK N   1      35.340  17.308  10.343  0.00  0.00    -0.648 OA
BRANCH   8  10
HETATM   10  O   UNK N   1      37.041  16.009  10.936  0.00  0.00    -0.775 OA
HETATM   11  H   UNK N   1      37.421  16.450  11.671  0.00  0.00     0.167 HD
ENDBRANCH   8  10
ENDBRANCH   1   8
TORSDOF 5
ENDMDL
