MODEL 1
REMARK VINA RESULT:      -6.0      0.000      0.000
REMARK  6 active torsions:
REMARK  status: ('A' for Active; 'I' for Inactive)
REMARK    1  A    between atoms: C_3  and  C_18 
REMARK    2  A    between atoms: C_4  and  C_16 
REMARK    3  A    between atoms: C_10  and  N_13 
REMARK    4  A    between atoms: C_16  and  O_17 
REMARK    5  A    between atoms: C_19  and  C_20 
REMARK    6  A    between atoms: C_20  and  O_21 
ROOT
HETATM    1  C   UNK N   1      34.362  14.138   5.576  0.00  0.00     0.156 C 
HETATM    2  N   UNK N   1      34.498  15.111   6.653  0.00  0.00    -0.347 N 
HETATM    3  C   UNK N   1      34.171  16.426   6.615  0.00  0.00     0.043 A 
HETATM    4  C   UNK N   1      34.450  17.020   7.840  0.00  0.00     0.009 A 
HETATM    5  C   UNK N   1      34.933  15.998   8.661  0.00  0.00     0.057 A 
HETATM    6  C   UNK N   1      34.955  14.856   7.895  0.00  0.00     0.100 A 
HETATM    7  C   UNK N   1      35.403  13.567   8.452  0.00  0.00     0.201 A 
HETATM    8  O   UNK N   1      35.434  12.555   7.769  0.00  0.00    -0.286 OA
HETATM    9  C   UNK N   1      35.792  13.518   9.882  0.00  0.00     0.085 A 
HETATM   10  C   UNK N   1      35.768  14.627  10.661  0.00  0.00     0.066 A 
HETATM   11  C   UNK N   1      35.337  15.943  10.087  0.00  0.00     0.206 A 
HETATM   12  O   UNK N   1      35.281  16.930  10.800  0.00  0.00    -0.285 OA
ENDROOT
BRANCH   3  13
HETATM   13  C   UNK N   1      33.555  17.149   5.481  0.00  0.00     0.028 C 
HETATM   14  C   UNK N   1      32.264  17.041   5.159  0.00  0.00     0.001 C 
BRANCH  14  15
HETATM   15  C   UNK N   1      31.654  17.839   4.043  0.00  0.00     0.191 C 
BRANCH  15  16
HETATM   16  O   UNK N   1      31.803  17.202   2.807  0.00  0.00    -0.397 OA
HETATM   17  H   UNK N   1      32.073  17.713   2.028  0.00  0.00     0.209 HD
ENDBRANCH  15  16
ENDBRANCH  14  15
ENDBRANCH   3  13
BRANCH   4  18
HETATM   18  C   UNK N   1      34.197  18.479   8.117  0.00  0.00     0.206 C 
BRANCH  18  19
HETATM   19  O   UNK N   1      35.323  19.166   8.555  0.00  0.00    -0.396 OA
HETATM   20  H   UNK N   1      36.135  18.681   8.777  0.00  0.00     0.209 HD
ENDBRANCH  18  19
ENDBRANCH   4  18
BRANCH  10  21
HETATM   21  N   UNK N   1      36.096  14.517  12.041  0.00  0.00    -0.278 NA
HETATM   22  C   UNK N   1      35.278  13.900  12.987  0.00  0.00     0.110 A 
HETATM   23  C   UNK N   1      36.800  13.449  12.597  0.00  0.00     0.110 A 
ENDBRANCH  10  21
TORSDOF 6
ENDMDL
MODEL 2
REMARK VINA RESULT:      -5.8     11.307     12.947
REMARK  6 active torsions:
REMARK  status: ('A' for Active; 'I' for Inactive)
REMARK    1  A    between atoms: C_3  and  C_18 
REMARK    2  A    between atoms: C_4  and  C_16 
REMARK    3  A    between atoms: C_10  and  N_13 
REMARK    4  A    between atoms: C_16  and  O_17 
REMARK    5  A    between atoms: C_19  and  C_20 
REMARK    6  A    between atoms: C_20  and  O_21 
ROOT
HETATM    1  C   UNK N   1      19.232  16.663   7.717  0.00  0.00     0.156 C 
HETATM    2  N   UNK N   1      20.551  16.095   7.469  0.00  0.00    -0.347 N 
HETATM    3  C   UNK N   1      21.466  16.514   6.560  0.00  0.00     0.043 A 
HETATM    4  C   UNK N   1      22.601  15.714   6.627  0.00  0.00     0.009 A 
HETATM    5  C   UNK N   1      22.365  14.797   7.653  0.00  0.00     0.057 A 
HETATM    6  C   UNK N   1      21.102  15.058   8.131  0.00  0.00     0.100 A 
HETATM    7  C   UNK N   1      20.525  14.279   9.241  0.00  0.00     0.201 A 
HETATM    8  O   UNK N   1      19.400  14.503   9.659  0.00  0.00    -0.286 OA
HETATM    9  C   UNK N   1      21.361  13.225   9.867  0.00  0.00     0.085 A 
HETATM   10  C   UNK N   1      22.613  12.956   9.421  0.00  0.00     0.066 A 
HETATM   11  C   UNK N   1      23.189  13.732   8.275  0.00  0.00     0.206 A 
HETATM   12  O   UNK N   1      24.329  13.512   7.903  0.00  0.00    -0.285 OA
ENDROOT
BRANCH   3  13
HETATM   13  C   UNK N   1      21.340  17.675   5.653  0.00  0.00     0.028 C 
HETATM   14  C   UNK N   1      20.864  17.585   4.410  0.00  0.00     0.001 C 
BRANCH  14  15
HETATM   15  C   UNK N   1      20.686  18.793   3.537  0.00  0.00     0.191 C 
BRANCH  15  16
HETATM   16  O   UNK N   1      20.697  19.977   4.279  0.00  0.00    -0.397 OA
HETATM   17  H   UNK N   1      19.898  20.261   4.749  0.00  0.00     0.209 HD
ENDBRANCH  15  16
ENDBRANCH  14  15
ENDBRANCH   3  13
BRANCH   4  18
HETATM   18  C   UNK N   1      23.801  15.925   5.740  0.00  0.00     0.206 C 
BRANCH  18  19
HETATM   19  O   UNK N   1      24.990  16.087   6.442  0.00  0.00    -0.396 OA
HETATM   20  H   UNK N   1      24.975  16.412   7.357  0.00  0.00     0.209 HD
ENDBRANCH  18  19
ENDBRANCH   4  18
BRANCH  10  21
HETATM   21  N   UNK N   1      23.395  11.975  10.092  0.00  0.00    -0.278 NA
HETATM   22  C   UNK N   1      24.584  12.255  10.764  0.00  0.00     0.110 A 
HETATM   23  C   UNK N   1      23.232  11.623  11.432  0.00  0.00     0.110 A 
ENDBRANCH  10  21
TORSDOF 6
ENDMDL
MODEL 3
REMARK VINA RESULT:      -5.8      4.564      8.491
REMARK  6 active torsions:
REMARK  status: ('A' for Active; 'I' for Inactive)
REMARK    1  A    between atoms: C_3  and  C_18 
REMARK    2  A    between atoms: C_4  and  C_16 
REMARK    3  A    between atoms: C_10  and  N_13 
REMARK    4  A    between atoms: C_16  and  O_17 
REMARK    5  A    between atoms: C_19  and  C_20 
REMARK    6  A    between atoms: C_20  and  O_21 
ROOT
HETATM    1  C   UNK N   1      31.224  15.367   5.490  0.00  0.00     0.156 C 
HETATM    2  N   UNK N   1      30.498  16.389   6.233  0.00  0.00    -0.347 N 
HETATM    3  C   UNK N   1      30.705  16.771   7.518  0.00  0.00     0.043 A 
HETATM    4  C   UNK N   1      29.807  17.775   7.865  0.00  0.00     0.009 A 
HETATM    5  C   UNK N   1      29.053  18.029   6.717  0.00  0.00     0.057 A 
HETATM    6  C   UNK N   1      29.499  17.156   5.752  0.00  0.00     0.100 A 
HETATM    7  C   UNK N   1      28.927  17.155   4.394  0.00  0.00     0.201 A 
HETATM    8  O   UNK N   1      29.315  16.373   3.540  0.00  0.00    -0.286 OA
HETATM    9  C   UNK N   1      27.878  18.154   4.074  0.00  0.00     0.085 A 
HETATM   10  C   UNK N   1      27.429  19.031   5.005  0.00  0.00     0.066 A 
HETATM   11  C   UNK N   1      27.994  19.015   6.393  0.00  0.00     0.206 A 
HETATM   12  O   UNK N   1      27.614  19.830   7.216  0.00  0.00    -0.285 OA
ENDROOT
BRANCH   3  13
HETATM   13  C   UNK N   1      31.752  16.264   8.430  0.00  0.00     0.028 C 
HETATM   14  C   UNK N   1      33.020  16.677   8.390  0.00  0.00     0.001 C 
BRANCH  14  15
HETATM   15  C   UNK N   1      34.046  16.192   9.373  0.00  0.00     0.191 C 
BRANCH  15  16
HETATM   16  O   UNK N   1      34.556  17.237  10.150  0.00  0.00    -0.397 OA
HETATM   17  H   UNK N   1      34.235  17.369  11.055  0.00  0.00     0.209 HD
ENDBRANCH  15  16
ENDBRANCH  14  15
ENDBRANCH   3  13
BRANCH   4  18
HETATM   18  C   UNK N   1      29.783  18.411   9.230  0.00  0.00     0.206 C 
BRANCH  18  19
HETATM   19  O   UNK N   1      28.503  18.549   9.756  0.00  0.00    -0.396 OA
HETATM   20  H   UNK N   1      28.195  17.950  10.455  0.00  0.00     0.209 HD
ENDBRANCH  18  19
ENDBRANCH   4  18
BRANCH  10  21
HETATM   21  N   UNK N   1      26.462  20.008   4.632  0.00  0.00    -0.278 NA
HETATM   22  C   UNK N   1      26.204  20.383   3.315  0.00  0.00     0.110 A 
HETATM   23  C   UNK N   1      25.127  19.722   4.351  0.00  0.00     0.110 A 
ENDBRANCH  10  21
TORSDOF 6
ENDMDL
MODEL 4
REMARK VINA RESULT:      -5.6      4.327      6.002
REMARK  6 active torsions:
REMARK  status: ('A' for Active; 'I' for Inactive)
REMARK    1  A    between atoms: C_3  and  C_18 
REMARK    2  A    between atoms: C_4  and  C_16 
REMARK    3  A    between atoms: C_10  and  N_13 
REMARK    4  A    between atoms: C_16  and  O_17 
REMARK    5  A    between atoms: C_19  and  C_20 
REMARK    6  A    between atoms: C_20  and  O_21 
ROOT
HETATM    1  C   UNK N   1      28.838  16.543   3.431  0.00  0.00     0.156 C 
HETATM    2  N   UNK N   1      28.966  17.119   4.764  0.00  0.00    -0.347 N 
HETATM    3  C   UNK N   1      28.145  18.026   5.348  0.00  0.00     0.043 A 
HETATM    4  C   UNK N   1      28.604  18.329   6.625  0.00  0.00     0.009 A 
HETATM    5  C   UNK N   1      29.735  17.533   6.825  0.00  0.00     0.057 A 
HETATM    6  C   UNK N   1      29.924  16.821   5.664  0.00  0.00     0.100 A 
HETATM    7  C   UNK N   1      31.034  15.860   5.526  0.00  0.00     0.201 A 
HETATM    8  O   UNK N   1      31.210  15.236   4.492  0.00  0.00    -0.286 OA
HETATM    9  C   UNK N   1      31.924  15.645   6.693  0.00  0.00     0.085 A 
HETATM   10  C   UNK N   1      31.751  16.327   7.851  0.00  0.00     0.066 A 
HETATM   11  C   UNK N   1      30.638  17.322   7.983  0.00  0.00     0.206 A 
HETATM   12  O   UNK N   1      30.462  17.905   9.038  0.00  0.00    -0.285 OA
ENDROOT
BRANCH   3  13
HETATM   13  C   UNK N   1      26.906  18.592   4.773  0.00  0.00     0.028 C 
HETATM   14  C   UNK N   1      26.883  19.698   4.027  0.00  0.00     0.001 C 
BRANCH  14  15
HETATM   15  C   UNK N   1      25.619  20.211   3.402  0.00  0.00     0.191 C 
BRANCH  15  16
HETATM   16  O   UNK N   1      25.876  20.983   2.266  0.00  0.00    -0.397 OA
HETATM   17  H   UNK N   1      25.406  20.798   1.438  0.00  0.00     0.209 HD
ENDBRANCH  15  16
ENDBRANCH  14  15
ENDBRANCH   3  13
BRANCH   4  18
HETATM   18  C   UNK N   1      27.905  19.308   7.532  0.00  0.00     0.206 C 
BRANCH  18  19
HETATM   19  O   UNK N   1      27.531  18.763   8.755  0.00  0.00    -0.396 OA
HETATM   20  H   UNK N   1      28.200  18.373   9.341  0.00  0.00     0.209 HD
ENDBRANCH  18  19
ENDBRANCH   4  18
BRANCH  10  21
HETATM   21  N   UNK N   1      32.596  16.042   8.960  0.00  0.00    -0.278 NA
HETATM   22  C   UNK N   1      33.393  14.902   9.058  0.00  0.00     0.110 A 
HETATM   23  C   UNK N   1      33.927  16.447   9.057  0.00  0.00     0.110 A 
ENDBRANCH  10  21
TORSDOF 6
ENDMDL
MODEL 5
REMARK VINA RESULT:      -5.6     17.560     19.480
REMARK  6 active torsions:
REMARK  status: ('A' for Active; 'I' for Inactive)
REMARK    1  A    between atoms: C_3  and  C_18 
REMARK    2  A    between atoms: C_4  and  C_16 
REMARK    3  A    between atoms: C_10  and  N_13 
REMARK    4  A    between atoms: C_16  and  O_17 
REMARK    5  A    between atoms: C_19  and  C_20 
REMARK    6  A    between atoms: C_20  and  O_21 
ROOT
HETATM    1  C   UNK N   1      27.776  26.012  -8.300  0.00  0.00     0.156 C 
HETATM    2  N   UNK N   1      27.277  25.894  -6.936  0.00  0.00    -0.347 N 
HETATM    3  C   UNK N   1      26.877  24.763  -6.304  0.00  0.00     0.043 A 
HETATM    4  C   UNK N   1      26.466  25.063  -5.010  0.00  0.00     0.009 A 
HETATM    5  C   UNK N   1      26.668  26.436  -4.851  0.00  0.00     0.057 A 
HETATM    6  C   UNK N   1      27.152  26.903  -6.050  0.00  0.00     0.100 A 
HETATM    7  C   UNK N   1      27.493  28.325  -6.239  0.00  0.00     0.201 A 
HETATM    8  O   UNK N   1      27.912  28.743  -7.307  0.00  0.00    -0.286 OA
HETATM    9  C   UNK N   1      27.341  29.242  -5.083  0.00  0.00     0.085 A 
HETATM   10  C   UNK N   1      26.876  28.803  -3.888  0.00  0.00     0.066 A 
HETATM   11  C   UNK N   1      26.506  27.362  -3.704  0.00  0.00     0.206 A 
HETATM   12  O   UNK N   1      26.125  26.965  -2.617  0.00  0.00    -0.285 OA
ENDROOT
BRANCH   3  13
HETATM   13  C   UNK N   1      26.908  23.390  -6.851  0.00  0.00     0.028 C 
HETATM   14  C   UNK N   1      25.881  22.837  -7.499  0.00  0.00     0.001 C 
BRANCH  14  15
HETATM   15  C   UNK N   1      25.967  21.464  -8.100  0.00  0.00     0.191 C 
BRANCH  15  16
HETATM   16  O   UNK N   1      24.988  21.262  -9.077  0.00  0.00    -0.397 OA
HETATM   17  H   UNK N   1      24.691  20.363  -9.287  0.00  0.00     0.209 HD
ENDBRANCH  15  16
ENDBRANCH  14  15
ENDBRANCH   3  13
BRANCH   4  18
HETATM   18  C   UNK N   1      25.963  24.016  -4.050  0.00  0.00     0.206 C 
BRANCH  18  19
HETATM   19  O   UNK N   1      26.656  23.987  -2.845  0.00  0.00    -0.396 OA
HETATM   20  H   UNK N   1      26.722  23.160  -2.340  0.00  0.00     0.209 HD
ENDBRANCH  18  19
ENDBRANCH   4  18
BRANCH  10  21
HETATM   21  N   UNK N   1      26.803  29.710  -2.793  0.00  0.00    -0.278 NA
HETATM   22  C   UNK N   1      27.854  29.947  -1.908  0.00  0.00     0.110 A 
HETATM   23  C   UNK N   1      27.143  31.061  -2.870  0.00  0.00     0.110 A 
ENDBRANCH  10  21
TORSDOF 6
ENDMDL
MODEL 6
REMARK VINA RESULT:      -5.6      8.019     11.323
REMARK  6 active torsions:
REMARK  status: ('A' for Active; 'I' for Inactive)
REMARK    1  A    between atoms: C_3  and  C_18 
REMARK    2  A    between atoms: C_4  and  C_16 
REMARK    3  A    between atoms: C_10  and  N_13 
REMARK    4  A    between atoms: C_16  and  O_17 
REMARK    5  A    between atoms: C_19  and  C_20 
REMARK    6  A    between atoms: C_20  and  O_21 
ROOT
HETATM    1  C   UNK N   1      22.495  16.561   5.353  0.00  0.00     0.156 C 
HETATM    2  N   UNK N   1      23.405  17.545   4.782  0.00  0.00    -0.347 N 
HETATM    3  C   UNK N   1      23.074  18.691   4.137  0.00  0.00     0.043 A 
HETATM    4  C   UNK N   1      24.226  19.361   3.739  0.00  0.00     0.009 A 
HETATM    5  C   UNK N   1      25.297  18.594   4.204  0.00  0.00     0.057 A 
HETATM    6  C   UNK N   1      24.751  17.493   4.823  0.00  0.00     0.100 A 
HETATM    7  C   UNK N   1      25.602  16.465   5.449  0.00  0.00     0.201 A 
HETATM    8  O   UNK N   1      25.120  15.482   5.989  0.00  0.00    -0.286 OA
HETATM    9  C   UNK N   1      27.072  16.666   5.433  0.00  0.00     0.085 A 
HETATM   10  C   UNK N   1      27.632  17.747   4.839  0.00  0.00     0.066 A 
HETATM   11  C   UNK N   1      26.768  18.780   4.181  0.00  0.00     0.206 A 
HETATM   12  O   UNK N   1      27.274  19.770   3.680  0.00  0.00    -0.285 OA
ENDROOT
BRANCH   3  13
HETATM   13  C   UNK N   1      21.710  19.216   3.917  0.00  0.00     0.028 C 
HETATM   14  C   UNK N   1      20.939  18.846   2.892  0.00  0.00     0.001 C 
BRANCH  14  15
HETATM   15  C   UNK N   1      19.533  19.348   2.733  0.00  0.00     0.191 C 
BRANCH  15  16
HETATM   16  O   UNK N   1      18.681  18.356   2.239  0.00  0.00    -0.397 OA
HETATM   17  H   UNK N   1      17.737  18.374   2.460  0.00  0.00     0.209 HD
ENDBRANCH  15  16
ENDBRANCH  14  15
ENDBRANCH   3  13
BRANCH   4  18
HETATM   18  C   UNK N   1      24.192  20.671   2.995  0.00  0.00     0.206 C 
BRANCH  18  19
HETATM   19  O   UNK N   1      25.024  20.700   1.882  0.00  0.00    -0.396 OA
HETATM   20  H   UNK N   1      25.170  19.894   1.361  0.00  0.00     0.209 HD
ENDBRANCH  18  19
ENDBRANCH   4  18
BRANCH  10  21
HETATM   21  N   UNK N   1      29.043  17.924   4.901  0.00  0.00    -0.278 NA
HETATM   22  C   UNK N   1      29.854  17.361   5.885  0.00  0.00     0.110 A 
HETATM   23  C   UNK N   1      29.967  17.084   4.279  0.00  0.00     0.110 A 
ENDBRANCH  10  21
TORSDOF 6
ENDMDL
MODEL 7
REMARK VINA RESULT:      -5.5      4.513      7.091
REMARK  6 active torsions:
REMARK  status: ('A' for Active; 'I' for Inactive)
REMARK    1  A    between atoms: C_3  and  C_18 
REMARK    2  A    between atoms: C_4  and  C_16 
REMARK    3  A    between atoms: C_10  and  N_13 
REMARK    4  A    between atoms: C_16  and  O_17 
REMARK    5  A    between atoms: C_19  and  C_20 
REMARK    6  A    between atoms: C_20  and  O_21 
ROOT
HETATM    1  C   UNK N   1      27.441  20.113   7.023  0.00  0.00     0.156 C 
HETATM    2  N   UNK N   1      28.064  19.014   6.296  0.00  0.00    -0.347 N 
HETATM    3  C   UNK N   1      27.884  18.688   4.992  0.00  0.00     0.043 A 
HETATM    4  C   UNK N   1      28.653  17.575   4.671  0.00  0.00     0.009 A 
HETATM    5  C   UNK N   1      29.355  17.245   5.833  0.00  0.00     0.057 A 
HETATM    6  C   UNK N   1      28.958  18.140   6.799  0.00  0.00     0.100 A 
HETATM    7  C   UNK N   1      29.514  18.093   8.164  0.00  0.00     0.201 A 
HETATM    8  O   UNK N   1      29.154  18.880   9.025  0.00  0.00    -0.286 OA
HETATM    9  C   UNK N   1      30.552  17.077   8.463  0.00  0.00     0.085 A 
HETATM   10  C   UNK N   1      30.967  16.191   7.525  0.00  0.00     0.066 A 
HETATM   11  C   UNK N   1      30.383  16.223   6.145  0.00  0.00     0.206 A 
HETATM   12  O   UNK N   1      30.787  15.449   5.294  0.00  0.00    -0.285 OA
ENDROOT
BRANCH   3  13
HETATM   13  C   UNK N   1      27.051  19.413   4.009  0.00  0.00     0.028 C 
HETATM   14  C   UNK N   1      25.722  19.303   3.954  0.00  0.00     0.001 C 
BRANCH  14  15
HETATM   15  C   UNK N   1      24.898  20.103   2.987  0.00  0.00     0.191 C 
BRANCH  15  16
HETATM   16  O   UNK N   1      25.690  20.937   2.194  0.00  0.00    -0.397 OA
HETATM   17  H   UNK N   1      26.656  20.913   2.279  0.00  0.00     0.209 HD
ENDBRANCH  15  16
ENDBRANCH  14  15
ENDBRANCH   3  13
BRANCH   4  18
HETATM   18  C   UNK N   1      28.671  16.966   3.293  0.00  0.00     0.206 C 
BRANCH  18  19
HETATM   19  O   UNK N   1      29.941  16.904   2.729  0.00  0.00    -0.396 OA
HETATM   20  H   UNK N   1      30.701  17.284   3.197  0.00  0.00     0.209 HD
ENDBRANCH  18  19
ENDBRANCH   4  18
BRANCH  10  21
HETATM   21  N   UNK N   1      32.007  15.273   7.845  0.00  0.00    -0.278 NA
HETATM   22  C   UNK N   1      33.349  15.630   7.966  0.00  0.00     0.110 A 
HETATM   23  C   UNK N   1      32.422  14.980   9.144  0.00  0.00     0.110 A 
ENDBRANCH  10  21
TORSDOF 6
ENDMDL
MODEL 8
REMARK VINA RESULT:      -5.4     13.640     16.733
REMARK  6 active torsions:
REMARK  status: ('A' for Active; 'I' for Inactive)
REMARK    1  A    between atoms: C_3  and  C_18 
REMARK    2  A    between atoms: C_4  and  C_16 
REMARK    3  A    between atoms: C_10  and  N_13 
REMARK    4  A    between atoms: C_16  and  O_17 
REMARK    5  A    between atoms: C_19  and  C_20 
REMARK    6  A    between atoms: C_20  and  O_21 
ROOT
HETATM    1  C   UNK N   1      30.002  19.912  -6.893  0.00  0.00     0.156 C 
HETATM    2  N   UNK N   1      30.044  20.938  -5.859  0.00  0.00    -0.347 N 
HETATM    3  C   UNK N   1      30.845  20.968  -4.765  0.00  0.00     0.043 A 
HETATM    4  C   UNK N   1      30.584  22.111  -4.018  0.00  0.00     0.009 A 
HETATM    5  C   UNK N   1      29.605  22.816  -4.721  0.00  0.00     0.057 A 
HETATM    6  C   UNK N   1      29.298  22.060  -5.829  0.00  0.00     0.100 A 
HETATM    7  C   UNK N   1      28.299  22.514  -6.814  0.00  0.00     0.201 A 
HETATM    8  O   UNK N   1      28.018  21.840  -7.792  0.00  0.00    -0.286 OA
HETATM    9  C   UNK N   1      27.657  23.835  -6.605  0.00  0.00     0.085 A 
HETATM   10  C   UNK N   1      27.951  24.602  -5.526  0.00  0.00     0.066 A 
HETATM   11  C   UNK N   1      28.948  24.129  -4.512  0.00  0.00     0.206 A 
HETATM   12  O   UNK N   1      29.237  24.838  -3.564  0.00  0.00    -0.285 OA
ENDROOT
BRANCH   3  13
HETATM   13  C   UNK N   1      31.891  19.984  -4.412  0.00  0.00     0.028 C 
HETATM   14  C   UNK N   1      33.137  20.040  -4.884  0.00  0.00     0.001 C 
BRANCH  14  15
HETATM   15  C   UNK N   1      34.195  19.065  -4.455  0.00  0.00     0.191 C 
BRANCH  15  16
HETATM   16  O   UNK N   1      33.665  18.033  -3.675  0.00  0.00    -0.397 OA
HETATM   17  H   UNK N   1      33.873  17.110  -3.886  0.00  0.00     0.209 HD
ENDBRANCH  15  16
ENDBRANCH  14  15
ENDBRANCH   3  13
BRANCH   4  18
HETATM   18  C   UNK N   1      31.313  22.433  -2.739  0.00  0.00     0.206 C 
BRANCH  18  19
HETATM   19  O   UNK N   1      30.481  22.893  -1.725  0.00  0.00    -0.396 OA
HETATM   20  H   UNK N   1      30.142  22.277  -1.055  0.00  0.00     0.209 HD
ENDBRANCH  18  19
ENDBRANCH   4  18
BRANCH  10  21
HETATM   21  N   UNK N   1      27.351  25.886  -5.401  0.00  0.00    -0.278 NA
HETATM   22  C   UNK N   1      27.032  26.704  -6.484  0.00  0.00     0.110 A 
HETATM   23  C   UNK N   1      25.975  26.112  -5.387  0.00  0.00     0.110 A 
ENDBRANCH  10  21
TORSDOF 6
ENDMDL
MODEL 9
REMARK VINA RESULT:      -5.4      3.498      7.787
REMARK  6 active torsions:
REMARK  status: ('A' for Active; 'I' for Inactive)
REMARK    1  A    between atoms: C_3  and  C_18 
REMARK    2  A    between atoms: C_4  and  C_16 
REMARK    3  A    between atoms: C_10  and  N_13 
REMARK    4  A    between atoms: C_16  and  O_17 
REMARK    5  A    between atoms: C_19  and  C_20 
REMARK    6  A    between atoms: C_20  and  O_21 
ROOT
HETATM    1  C   UNK N   1      30.224  17.660   9.270  0.00  0.00     0.156 C 
HETATM    2  N   UNK N   1      30.782  17.463   7.937  0.00  0.00    -0.347 N 
HETATM    3  C   UNK N   1      32.093  17.440   7.593  0.00  0.00     0.043 A 
HETATM    4  C   UNK N   1      32.220  17.229   6.224  0.00  0.00     0.009 A 
HETATM    5  C   UNK N   1      30.919  17.082   5.736  0.00  0.00     0.057 A 
HETATM    6  C   UNK N   1      30.076  17.243   6.810  0.00  0.00     0.100 A 
HETATM    7  C   UNK N   1      28.613  17.138   6.660  0.00  0.00     0.201 A 
HETATM    8  O   UNK N   1      27.863  17.291   7.611  0.00  0.00    -0.286 OA
HETATM    9  C   UNK N   1      28.068  16.810   5.321  0.00  0.00     0.085 A 
HETATM   10  C   UNK N   1      28.879  16.637   4.249  0.00  0.00     0.066 A 
HETATM   11  C   UNK N   1      30.365  16.768   4.397  0.00  0.00     0.206 A 
HETATM   12  O   UNK N   1      31.092  16.575   3.438  0.00  0.00    -0.285 OA
ENDROOT
BRANCH   3  13
HETATM   13  C   UNK N   1      33.247  17.559   8.509  0.00  0.00     0.028 C 
HETATM   14  C   UNK N   1      33.799  16.515   9.130  0.00  0.00     0.001 C 
BRANCH  14  15
HETATM   15  C   UNK N   1      35.012  16.659  10.003  0.00  0.00     0.191 C 
BRANCH  15  16
HETATM   16  O   UNK N   1      35.566  17.940   9.916  0.00  0.00    -0.397 OA
HETATM   17  H   UNK N   1      35.648  18.375   9.053  0.00  0.00     0.209 HD
ENDBRANCH  15  16
ENDBRANCH  14  15
ENDBRANCH   3  13
BRANCH   4  18
HETATM   18  C   UNK N   1      33.555  17.152   5.531  0.00  0.00     0.206 C 
BRANCH  18  19
HETATM   19  O   UNK N   1      33.741  15.977   4.811  0.00  0.00    -0.396 OA
HETATM   20  H   UNK N   1      33.615  15.970   3.849  0.00  0.00     0.209 HD
ENDBRANCH  18  19
ENDBRANCH   4  18
BRANCH  10  21
HETATM   21  N   UNK N   1      28.310  16.266   2.997  0.00  0.00    -0.278 NA
HETATM   22  C   UNK N   1      28.095  14.947   2.601  0.00  0.00     0.110 A 
HETATM   23  C   UNK N   1      26.944  16.094   2.777  0.00  0.00     0.110 A 
ENDBRANCH  10  21
TORSDOF 6
ENDMDL
