MODEL 1
REMARK VINA RESULT:      -8.8      0.000      0.000
REMARK  12 active torsions:
REMARK  status: ('A' for Active; 'I' for Inactive)
REMARK    1  A    between atoms: C_2  and  C_3 
REMARK    2  A    between atoms: C_3  and  S_4 
REMARK    3  A    between atoms: S_4  and  N_7 
REMARK    4  A    between atoms: N_10  and  C_13 
REMARK    5  A    between atoms: C_13  and  C_14 
REMARK    6  A    between atoms: C_17  and  N_20 
REMARK       I    between atoms: N_20  and  C_21 
REMARK    7  A    between atoms: C_21  and  C_23 
REMARK    8  A    between atoms: C_26  and  C_29 
REMARK    9  A    between atoms: C_31  and  N_40 
REMARK   10  A    between atoms: C_34  and  O_35 
REMARK   11  A    between atoms: O_35  and  C_36 
REMARK       I    between atoms: N_40  and  C_41 
REMARK   12  A    between atoms: C_41  and  C_43 
ROOT
HETATM    1  C   UNK N   1      35.443  12.356  17.320  0.00  0.00     0.032 A 
HETATM    2  C   UNK N   1      35.783  11.013  17.263  0.00  0.00     0.018 A 
HETATM    3  C   UNK N   1      35.979  10.334  18.442  0.00  0.00     0.013 A 
HETATM    4  C   UNK N   1      35.717  10.957  19.676  0.00  0.00    -0.023 A 
HETATM    5  C   UNK N   1      35.334  12.295  19.725  0.00  0.00     0.013 A 
HETATM    6  C   UNK N   1      35.216  12.997  18.540  0.00  0.00     0.018 A 
ENDROOT
BRANCH   1   7
HETATM    7  C   UNK N   1      35.079  13.049  16.141  0.00  0.00     0.256 C 
HETATM    8  N   UNK N   1      35.975  13.123  15.127  0.00  0.00    -0.323 N 
HETATM    9  H   UNK N   1      36.945  13.146  15.296  0.00  0.00     0.169 HD
HETATM   10  O   UNK N   1      33.883  13.287  15.942  0.00  0.00    -0.267 OA
BRANCH   8  11
HETATM   11  C   UNK N   1      35.455  13.166  13.831  0.00  0.00     0.035 A 
HETATM   12  C   UNK N   1      35.008  11.992  13.239  0.00  0.00     0.030 A 
HETATM   13  C   UNK N   1      34.992  11.898  11.849  0.00  0.00     0.011 A 
HETATM   14  C   UNK N   1      35.442  12.968  11.067  0.00  0.00    -0.041 A 
HETATM   15  C   UNK N   1      35.819  14.167  11.668  0.00  0.00     0.011 A 
HETATM   16  C   UNK N   1      35.812  14.271  13.040  0.00  0.00     0.030 A 
BRANCH  14  17
HETATM   17  C   UNK N   1      35.734  12.729   9.625  0.00  0.00     0.155 C 
BRANCH  17  18
HETATM   18  N   UNK N   1      34.883  13.467   8.704  0.00  0.00    -0.406 N 
HETATM   19  C   UNK N   1      33.478  13.531   9.142  0.00  0.00     0.132 C 
HETATM   20  C   UNK N   1      32.992  14.952   9.401  0.00  0.00     0.126 C 
HETATM   21  N   UNK N   1      33.431  15.777   8.296  0.00  0.00    -0.208 NA
HETATM   22  C   UNK N   1      34.863  15.956   8.466  0.00  0.00     0.126 C 
HETATM   23  C   UNK N   1      35.537  14.643   8.092  0.00  0.00     0.132 C 
BRANCH  21  24
HETATM   24  S   UNK N   1      32.581  17.326   8.298  0.00  0.00     0.211 S 
HETATM   25  O   UNK N   1      33.556  18.505   8.144  0.00  0.00    -0.211 OA
HETATM   26  O   UNK N   1      32.537  17.220   6.768  0.00  0.00    -0.211 OA
BRANCH  24  27
HETATM   27  C   UNK N   1      30.781  17.525   8.124  0.00  0.00     0.157 C 
BRANCH  27  28
HETATM   28  C   UNK N   1      30.239  18.547   9.108  0.00  0.00     0.012 C 
HETATM   29  C   UNK N   1      28.791  18.253   9.456  0.00  0.00     0.006 C 
ENDBRANCH  27  28
ENDBRANCH  24  27
ENDBRANCH  21  24
ENDBRANCH  17  18
ENDBRANCH  14  17
ENDBRANCH   8  11
ENDBRANCH   1   7
BRANCH   4  30
HETATM   30  C   UNK N   1      36.068  10.253  20.890  0.00  0.00     0.010 A 
HETATM   31  C   UNK N   1      37.403  10.259  21.167  0.00  0.00     0.044 A 
HETATM   32  C   UNK N   1      37.943   9.760  22.315  0.00  0.00     0.035 A 
HETATM   33  C   UNK N   1      37.083   9.142  23.241  0.00  0.00     0.032 A 
HETATM   34  C   UNK N   1      35.687   9.094  22.974  0.00  0.00     0.040 A 
HETATM   35  C   UNK N   1      35.164   9.677  21.792  0.00  0.00     0.089 A 
BRANCH  32  36
HETATM   36  N   UNK N   1      39.352   9.906  22.508  0.00  0.00    -0.327 N 
HETATM   37  C   UNK N   1      39.913  11.098  22.912  0.00  0.00     0.226 C 
HETATM   38  O   UNK N   1      39.207  12.027  23.297  0.00  0.00    -0.273 OA
HETATM   39  H   UNK N   1      39.939   9.132  22.347  0.00  0.00     0.169 HD
BRANCH  37  40
HETATM   40  C   UNK N   1      41.403  11.286  22.869  0.00  0.00     0.078 A 
HETATM   41  C   UNK N   1      41.881  11.640  21.461  0.00  0.00     0.015 A 
HETATM   42  C   UNK N   1      41.732  12.722  22.507  0.00  0.00     0.015 A 
ENDBRANCH  37  40
ENDBRANCH  32  36
BRANCH  35  43
HETATM   43  O   UNK N   1      33.841   9.647  21.457  0.00  0.00    -0.254 OA
BRANCH  43  44
HETATM   44  C   UNK N   1      32.772  10.320  22.021  0.00  0.00     0.530 C 
HETATM   45  F   UNK N   1      31.643  10.063  21.265  0.00  0.00    -0.144 F 
HETATM   46  F   UNK N   1      32.970  11.687  22.070  0.00  0.00    -0.144 F 
HETATM   47  F   UNK N   1      32.559   9.839  23.300  0.00  0.00    -0.144 F 
ENDBRANCH  43  44
ENDBRANCH  35  43
ENDBRANCH   4  30
TORSDOF 12
ENDMDL
MODEL 2
REMARK VINA RESULT:      -8.7      6.177     15.264
REMARK  12 active torsions:
REMARK  status: ('A' for Active; 'I' for Inactive)
REMARK    1  A    between atoms: C_2  and  C_3 
REMARK    2  A    between atoms: C_3  and  S_4 
REMARK    3  A    between atoms: S_4  and  N_7 
REMARK    4  A    between atoms: N_10  and  C_13 
REMARK    5  A    between atoms: C_13  and  C_14 
REMARK    6  A    between atoms: C_17  and  N_20 
REMARK       I    between atoms: N_20  and  C_21 
REMARK    7  A    between atoms: C_21  and  C_23 
REMARK    8  A    between atoms: C_26  and  C_29 
REMARK    9  A    between atoms: C_31  and  N_40 
REMARK   10  A    between atoms: C_34  and  O_35 
REMARK   11  A    between atoms: O_35  and  C_36 
REMARK       I    between atoms: N_40  and  C_41 
REMARK   12  A    between atoms: C_41  and  C_43 
ROOT
HETATM    1  C   UNK N   1      33.228  15.989   8.850  0.00  0.00     0.032 A 
HETATM    2  C   UNK N   1      32.641  14.856   8.308  0.00  0.00     0.018 A 
HETATM    3  C   UNK N   1      31.852  14.996   7.192  0.00  0.00     0.013 A 
HETATM    4  C   UNK N   1      31.746  16.240   6.543  0.00  0.00    -0.023 A 
HETATM    5  C   UNK N   1      32.374  17.366   7.069  0.00  0.00     0.013 A 
HETATM    6  C   UNK N   1      33.102  17.238   8.238  0.00  0.00     0.018 A 
ENDROOT
BRANCH   1   7
HETATM    7  C   UNK N   1      34.170  15.869   9.899  0.00  0.00     0.256 C 
HETATM    8  N   UNK N   1      33.854  15.108  10.975  0.00  0.00    -0.323 N 
HETATM    9  H   UNK N   1      32.925  15.018  11.288  0.00  0.00     0.169 HD
HETATM   10  O   UNK N   1      35.343  16.188   9.677  0.00  0.00    -0.267 OA
BRANCH   8  11
HETATM   11  C   UNK N   1      34.911  14.457  11.616  0.00  0.00     0.035 A 
HETATM   12  C   UNK N   1      34.863  13.079  11.778  0.00  0.00     0.030 A 
HETATM   13  C   UNK N   1      35.579  12.494  12.820  0.00  0.00     0.011 A 
HETATM   14  C   UNK N   1      36.316  13.293  13.701  0.00  0.00    -0.041 A 
HETATM   15  C   UNK N   1      36.417  14.665  13.488  0.00  0.00     0.011 A 
HETATM   16  C   UNK N   1      35.730  15.242  12.444  0.00  0.00     0.030 A 
BRANCH  14  17
HETATM   17  C   UNK N   1      36.785  12.698  14.986  0.00  0.00     0.155 C 
BRANCH  17  18
HETATM   18  N   UNK N   1      35.788  11.900  15.683  0.00  0.00    -0.406 N 
HETATM   19  C   UNK N   1      36.192  10.493  15.855  0.00  0.00     0.132 C 
HETATM   20  C   UNK N   1      36.318  10.078  17.316  0.00  0.00     0.126 C 
HETATM   21  N   UNK N   1      35.155  10.576  18.019  0.00  0.00    -0.208 NA
HETATM   22  C   UNK N   1      35.336  12.012  18.139  0.00  0.00     0.126 C 
HETATM   23  C   UNK N   1      35.089  12.622  16.766  0.00  0.00     0.132 C 
BRANCH  21  24
HETATM   24  S   UNK N   1      35.007   9.807  19.603  0.00  0.00     0.211 S 
HETATM   25  O   UNK N   1      36.363   9.733  20.323  0.00  0.00    -0.211 OA
HETATM   26  O   UNK N   1      34.822  11.214  20.187  0.00  0.00    -0.211 OA
BRANCH  24  27
HETATM   27  C   UNK N   1      33.434   9.477  20.457  0.00  0.00     0.157 C 
BRANCH  27  28
HETATM   28  C   UNK N   1      32.680   8.330  19.805  0.00  0.00     0.012 C 
HETATM   29  C   UNK N   1      31.181   8.504  19.967  0.00  0.00     0.006 C 
ENDBRANCH  27  28
ENDBRANCH  24  27
ENDBRANCH  21  24
ENDBRANCH  17  18
ENDBRANCH  14  17
ENDBRANCH   8  11
ENDBRANCH   1   7
BRANCH   4  30
HETATM   30  C   UNK N   1      30.799  16.373   5.458  0.00  0.00     0.010 A 
HETATM   31  C   UNK N   1      29.654  17.030   5.800  0.00  0.00     0.044 A 
HETATM   32  C   UNK N   1      28.679  17.370   4.910  0.00  0.00     0.035 A 
HETATM   33  C   UNK N   1      28.827  16.961   3.572  0.00  0.00     0.032 A 
HETATM   34  C   UNK N   1      29.996  16.251   3.184  0.00  0.00     0.040 A 
HETATM   35  C   UNK N   1      31.011  15.968   4.133  0.00  0.00     0.089 A 
BRANCH  32  36
HETATM   36  N   UNK N   1      27.569  18.130   5.394  0.00  0.00    -0.327 N 
HETATM   37  C   UNK N   1      27.482  19.493   5.210  0.00  0.00     0.226 C 
HETATM   38  O   UNK N   1      28.265  20.077   4.465  0.00  0.00    -0.273 OA
HETATM   39  H   UNK N   1      26.845  17.665   5.874  0.00  0.00     0.169 HD
BRANCH  37  40
HETATM   40  C   UNK N   1      26.436  20.290   5.936  0.00  0.00     0.078 A 
HETATM   41  C   UNK N   1      26.902  20.675   7.340  0.00  0.00     0.015 A 
HETATM   42  C   UNK N   1      26.955  21.687   6.218  0.00  0.00     0.015 A 
ENDBRANCH  37  40
ENDBRANCH  32  36
BRANCH  35  43
HETATM   43  O   UNK N   1      32.146  15.271   3.841  0.00  0.00    -0.254 OA
BRANCH  43  44
HETATM   44  C   UNK N   1      33.394  15.733   3.464  0.00  0.00     0.530 C 
HETATM   45  F   UNK N   1      33.278  17.062   3.097  0.00  0.00    -0.144 F 
HETATM   46  F   UNK N   1      33.925  15.026   2.402  0.00  0.00    -0.144 F 
HETATM   47  F   UNK N   1      34.252  15.653   4.546  0.00  0.00    -0.144 F 
ENDBRANCH  43  44
ENDBRANCH  35  43
ENDBRANCH   4  30
TORSDOF 12
ENDMDL
MODEL 3
REMARK VINA RESULT:      -8.6      6.643     15.808
REMARK  12 active torsions:
REMARK  status: ('A' for Active; 'I' for Inactive)
REMARK    1  A    between atoms: C_2  and  C_3 
REMARK    2  A    between atoms: C_3  and  S_4 
REMARK    3  A    between atoms: S_4  and  N_7 
REMARK    4  A    between atoms: N_10  and  C_13 
REMARK    5  A    between atoms: C_13  and  C_14 
REMARK    6  A    between atoms: C_17  and  N_20 
REMARK       I    between atoms: N_20  and  C_21 
REMARK    7  A    between atoms: C_21  and  C_23 
REMARK    8  A    between atoms: C_26  and  C_29 
REMARK    9  A    between atoms: C_31  and  N_40 
REMARK   10  A    between atoms: C_34  and  O_35 
REMARK   11  A    between atoms: O_35  and  C_36 
REMARK       I    between atoms: N_40  and  C_41 
REMARK   12  A    between atoms: C_41  and  C_43 
ROOT
HETATM    1  C   UNK N   1      32.158  17.236   6.582  0.00  0.00     0.032 A 
HETATM    2  C   UNK N   1      32.191  17.416   5.208  0.00  0.00     0.018 A 
HETATM    3  C   UNK N   1      30.999  17.511   4.530  0.00  0.00     0.013 A 
HETATM    4  C   UNK N   1      29.780  17.549   5.231  0.00  0.00    -0.023 A 
HETATM    5  C   UNK N   1      29.757  17.409   6.616  0.00  0.00     0.013 A 
HETATM    6  C   UNK N   1      30.952  17.234   7.288  0.00  0.00     0.018 A 
ENDROOT
BRANCH   1   7
HETATM    7  C   UNK N   1      33.355  17.292   7.335  0.00  0.00     0.256 C 
HETATM    8  N   UNK N   1      33.346  16.824   8.607  0.00  0.00    -0.323 N 
HETATM    9  H   UNK N   1      32.541  16.878   9.171  0.00  0.00     0.169 HD
HETATM   10  O   UNK N   1      34.422  17.464   6.736  0.00  0.00    -0.267 OA
BRANCH   8  11
HETATM   11  C   UNK N   1      34.536  16.263   9.078  0.00  0.00     0.035 A 
HETATM   12  C   UNK N   1      34.876  14.972   8.697  0.00  0.00     0.030 A 
HETATM   13  C   UNK N   1      35.715  14.222   9.517  0.00  0.00     0.011 A 
HETATM   14  C   UNK N   1      36.186  14.761  10.720  0.00  0.00    -0.041 A 
HETATM   15  C   UNK N   1      35.899  16.081  11.059  0.00  0.00     0.011 A 
HETATM   16  C   UNK N   1      35.091  16.832  10.237  0.00  0.00     0.030 A 
BRANCH  14  17
HETATM   17  C   UNK N   1      36.789  13.843  11.729  0.00  0.00     0.155 C 
BRANCH  17  18
HETATM   18  N   UNK N   1      35.969  13.621  12.910  0.00  0.00    -0.406 N 
HETATM   19  C   UNK N   1      34.940  12.585  12.713  0.00  0.00     0.132 C 
HETATM   20  C   UNK N   1      35.107  11.387  13.639  0.00  0.00     0.126 C 
HETATM   21  N   UNK N   1      35.363  11.890  14.972  0.00  0.00    -0.208 NA
HETATM   22  C   UNK N   1      36.723  12.401  14.959  0.00  0.00     0.126 C 
HETATM   23  C   UNK N   1      36.713  13.712  14.185  0.00  0.00     0.132 C 
BRANCH  21  24
HETATM   24  S   UNK N   1      35.165  10.609  16.172  0.00  0.00     0.211 S 
HETATM   25  O   UNK N   1      35.250   9.215  15.528  0.00  0.00    -0.211 OA
HETATM   26  O   UNK N   1      36.693  10.594  16.302  0.00  0.00    -0.211 OA
BRANCH  24  27
HETATM   27  C   UNK N   1      35.225  10.852  17.974  0.00  0.00     0.157 C 
BRANCH  27  28
HETATM   28  C   UNK N   1      35.382  12.321  18.329  0.00  0.00     0.012 C 
HETATM   29  C   UNK N   1      35.198  12.542  19.820  0.00  0.00     0.006 C 
ENDBRANCH  27  28
ENDBRANCH  24  27
ENDBRANCH  21  24
ENDBRANCH  17  18
ENDBRANCH  14  17
ENDBRANCH   8  11
ENDBRANCH   1   7
BRANCH   4  30
HETATM   30  C   UNK N   1      28.548  17.508   4.473  0.00  0.00     0.010 A 
HETATM   31  C   UNK N   1      28.301  16.305   3.881  0.00  0.00     0.044 A 
HETATM   32  C   UNK N   1      27.148  16.006   3.219  0.00  0.00     0.035 A 
HETATM   33  C   UNK N   1      26.181  17.018   3.078  0.00  0.00     0.032 A 
HETATM   34  C   UNK N   1      26.414  18.294   3.660  0.00  0.00     0.040 A 
HETATM   35  C   UNK N   1      27.605  18.541   4.389  0.00  0.00     0.089 A 
BRANCH  32  36
HETATM   36  N   UNK N   1      26.992  14.677   2.717  0.00  0.00    -0.327 N 
HETATM   37  C   UNK N   1      26.331  13.700   3.429  0.00  0.00     0.226 C 
HETATM   38  O   UNK N   1      25.694  13.983   4.441  0.00  0.00    -0.273 OA
HETATM   39  H   UNK N   1      27.368  14.453   1.835  0.00  0.00     0.169 HD
BRANCH  37  40
HETATM   40  C   UNK N   1      26.396  12.266   2.988  0.00  0.00     0.078 A 
HETATM   41  C   UNK N   1      25.586  12.036   1.713  0.00  0.00     0.015 A 
HETATM   42  C   UNK N   1      27.090  12.170   1.643  0.00  0.00     0.015 A 
ENDBRANCH  37  40
ENDBRANCH  32  36
BRANCH  35  43
HETATM   43  O   UNK N   1      27.910  19.746   4.953  0.00  0.00    -0.254 OA
BRANCH  43  44
HETATM   44  C   UNK N   1      27.331  20.386   6.034  0.00  0.00     0.530 C 
HETATM   45  F   UNK N   1      28.008  21.572   6.257  0.00  0.00    -0.144 F 
HETATM   46  F   UNK N   1      27.378  19.627   7.188  0.00  0.00    -0.144 F 
HETATM   47  F   UNK N   1      26.015  20.686   5.732  0.00  0.00    -0.144 F 
ENDBRANCH  43  44
ENDBRANCH  35  43
ENDBRANCH   4  30
TORSDOF 12
ENDMDL
MODEL 4
REMARK VINA RESULT:      -8.5      7.574     16.391
REMARK  12 active torsions:
REMARK  status: ('A' for Active; 'I' for Inactive)
REMARK    1  A    between atoms: C_2  and  C_3 
REMARK    2  A    between atoms: C_3  and  S_4 
REMARK    3  A    between atoms: S_4  and  N_7 
REMARK    4  A    between atoms: N_10  and  C_13 
REMARK    5  A    between atoms: C_13  and  C_14 
REMARK    6  A    between atoms: C_17  and  N_20 
REMARK       I    between atoms: N_20  and  C_21 
REMARK    7  A    between atoms: C_21  and  C_23 
REMARK    8  A    between atoms: C_26  and  C_29 
REMARK    9  A    between atoms: C_31  and  N_40 
REMARK   10  A    between atoms: C_34  and  O_35 
REMARK   11  A    between atoms: O_35  and  C_36 
REMARK       I    between atoms: N_40  and  C_41 
REMARK   12  A    between atoms: C_41  and  C_43 
ROOT
HETATM    1  C   UNK N   1      29.224  16.241   5.534  0.00  0.00     0.032 A 
HETATM    2  C   UNK N   1      28.620  15.846   4.351  0.00  0.00     0.018 A 
HETATM    3  C   UNK N   1      27.296  16.158   4.155  0.00  0.00     0.013 A 
HETATM    4  C   UNK N   1      26.608  16.967   5.077  0.00  0.00    -0.023 A 
HETATM    5  C   UNK N   1      27.234  17.396   6.244  0.00  0.00     0.013 A 
HETATM    6  C   UNK N   1      28.542  17.013   6.478  0.00  0.00     0.018 A 
ENDROOT
BRANCH   1   7
HETATM    7  C   UNK N   1      30.619  16.080   5.709  0.00  0.00     0.256 C 
HETATM    8  N   UNK N   1      31.427  17.153   5.523  0.00  0.00    -0.323 N 
HETATM    9  H   UNK N   1      31.205  17.858   4.874  0.00  0.00     0.169 HD
HETATM   10  O   UNK N   1      31.027  15.084   6.317  0.00  0.00    -0.267 OA
BRANCH   8  11
HETATM   11  C   UNK N   1      32.588  17.207   6.299  0.00  0.00     0.035 A 
HETATM   12  C   UNK N   1      33.752  16.618   5.822  0.00  0.00     0.030 A 
HETATM   13  C   UNK N   1      34.719  16.197   6.730  0.00  0.00     0.011 A 
HETATM   14  C   UNK N   1      34.505  16.348   8.105  0.00  0.00    -0.041 A 
HETATM   15  C   UNK N   1      33.368  17.005   8.571  0.00  0.00     0.011 A 
HETATM   16  C   UNK N   1      32.422  17.444   7.673  0.00  0.00     0.030 A 
BRANCH  14  17
HETATM   17  C   UNK N   1      35.377  15.596   9.053  0.00  0.00     0.155 C 
BRANCH  17  18
HETATM   18  N   UNK N   1      34.731  15.218  10.300  0.00  0.00    -0.406 N 
HETATM   19  C   UNK N   1      34.275  13.817  10.312  0.00  0.00     0.132 C 
HETATM   20  C   UNK N   1      34.950  12.974  11.387  0.00  0.00     0.126 C 
HETATM   21  N   UNK N   1      34.940  13.736  12.618  0.00  0.00    -0.208 NA
HETATM   22  C   UNK N   1      35.928  14.787  12.453  0.00  0.00     0.126 C 
HETATM   23  C   UNK N   1      35.343  15.823  11.502  0.00  0.00     0.132 C 
BRANCH  21  24
HETATM   24  S   UNK N   1      35.322  12.699  13.996  0.00  0.00     0.211 S 
HETATM   25  O   UNK N   1      36.539  11.804  13.709  0.00  0.00    -0.211 OA
HETATM   26  O   UNK N   1      36.291  13.795  14.459  0.00  0.00    -0.211 OA
BRANCH  24  27
HETATM   27  C   UNK N   1      34.635  12.898  15.670  0.00  0.00     0.157 C 
BRANCH  27  28
HETATM   28  C   UNK N   1      35.719  13.241  16.676  0.00  0.00     0.012 C 
HETATM   29  C   UNK N   1      35.115  13.648  18.008  0.00  0.00     0.006 C 
ENDBRANCH  27  28
ENDBRANCH  24  27
ENDBRANCH  21  24
ENDBRANCH  17  18
ENDBRANCH  14  17
ENDBRANCH   8  11
ENDBRANCH   1   7
BRANCH   4  30
HETATM   30  C   UNK N   1      25.184  17.154   4.902  0.00  0.00     0.010 A 
HETATM   31  C   UNK N   1      24.419  16.366   5.710  0.00  0.00     0.044 A 
HETATM   32  C   UNK N   1      23.062  16.458   5.797  0.00  0.00     0.035 A 
HETATM   33  C   UNK N   1      22.402  17.373   4.955  0.00  0.00     0.032 A 
HETATM   34  C   UNK N   1      23.166  18.194   4.081  0.00  0.00     0.040 A 
HETATM   35  C   UNK N   1      24.581  18.102   4.066  0.00  0.00     0.089 A 
BRANCH  32  36
HETATM   36  N   UNK N   1      22.396  15.623   6.746  0.00  0.00    -0.327 N 
HETATM   37  C   UNK N   1      21.886  14.390   6.402  0.00  0.00     0.226 C 
HETATM   38  O   UNK N   1      22.143  13.885   5.312  0.00  0.00    -0.273 OA
HETATM   39  H   UNK N   1      22.299  15.938   7.674  0.00  0.00     0.169 HD
BRANCH  37  40
HETATM   40  C   UNK N   1      20.986  13.651   7.351  0.00  0.00     0.078 A 
HETATM   41  C   UNK N   1      21.785  12.972   8.464  0.00  0.00     0.015 A 
HETATM   42  C   UNK N   1      21.067  14.275   8.731  0.00  0.00     0.015 A 
ENDBRANCH  37  40
ENDBRANCH  32  36
BRANCH  35  43
HETATM   43  O   UNK N   1      25.377  18.838   3.237  0.00  0.00    -0.254 OA
BRANCH  43  44
HETATM   44  C   UNK N   1      26.068  20.010   3.487  0.00  0.00     0.530 C 
HETATM   45  F   UNK N   1      27.416  19.714   3.578  0.00  0.00    -0.144 F 
HETATM   46  F   UNK N   1      25.670  20.622   4.660  0.00  0.00    -0.144 F 
HETATM   47  F   UNK N   1      25.884  20.879   2.427  0.00  0.00    -0.144 F 
ENDBRANCH  43  44
ENDBRANCH  35  43
ENDBRANCH   4  30
TORSDOF 12
ENDMDL
MODEL 5
REMARK VINA RESULT:      -8.4      6.714     15.731
REMARK  12 active torsions:
REMARK  status: ('A' for Active; 'I' for Inactive)
REMARK    1  A    between atoms: C_2  and  C_3 
REMARK    2  A    between atoms: C_3  and  S_4 
REMARK    3  A    between atoms: S_4  and  N_7 
REMARK    4  A    between atoms: N_10  and  C_13 
REMARK    5  A    between atoms: C_13  and  C_14 
REMARK    6  A    between atoms: C_17  and  N_20 
REMARK       I    between atoms: N_20  and  C_21 
REMARK    7  A    between atoms: C_21  and  C_23 
REMARK    8  A    between atoms: C_26  and  C_29 
REMARK    9  A    between atoms: C_31  and  N_40 
REMARK   10  A    between atoms: C_34  and  O_35 
REMARK   11  A    between atoms: O_35  and  C_36 
REMARK       I    between atoms: N_40  and  C_41 
REMARK   12  A    between atoms: C_41  and  C_43 
ROOT
HETATM    1  C   UNK N   1      28.820  15.766   6.019  0.00  0.00     0.032 A 
HETATM    2  C   UNK N   1      28.110  16.584   6.884  0.00  0.00     0.018 A 
HETATM    3  C   UNK N   1      26.758  16.378   7.022  0.00  0.00     0.013 A 
HETATM    4  C   UNK N   1      26.136  15.283   6.395  0.00  0.00    -0.023 A 
HETATM    5  C   UNK N   1      26.864  14.440   5.559  0.00  0.00     0.013 A 
HETATM    6  C   UNK N   1      28.207  14.697   5.360  0.00  0.00     0.018 A 
ENDROOT
BRANCH   1   7
HETATM    7  C   UNK N   1      30.232  15.841   5.968  0.00  0.00     0.256 C 
HETATM    8  N   UNK N   1      30.815  17.053   5.805  0.00  0.00    -0.323 N 
HETATM    9  H   UNK N   1      30.379  17.770   5.291  0.00  0.00     0.169 HD
HETATM   10  O   UNK N   1      30.889  14.877   6.377  0.00  0.00    -0.267 OA
BRANCH   8  11
HETATM   11  C   UNK N   1      32.065  17.235   6.405  0.00  0.00     0.035 A 
HETATM   12  C   UNK N   1      33.167  16.564   5.894  0.00  0.00     0.030 A 
HETATM   13  C   UNK N   1      34.249  16.303   6.732  0.00  0.00     0.011 A 
HETATM   14  C   UNK N   1      34.208  16.695   8.075  0.00  0.00    -0.041 A 
HETATM   15  C   UNK N   1      33.130  17.431   8.559  0.00  0.00     0.011 A 
HETATM   16  C   UNK N   1      32.071  17.712   7.726  0.00  0.00     0.030 A 
BRANCH  14  17
HETATM   17  C   UNK N   1      35.205  16.116   9.020  0.00  0.00     0.155 C 
BRANCH  17  18
HETATM   18  N   UNK N   1      34.636  15.584  10.249  0.00  0.00    -0.406 N 
HETATM   19  C   UNK N   1      34.196  14.184  10.121  0.00  0.00     0.132 C 
HETATM   20  C   UNK N   1      34.941  13.232  11.050  0.00  0.00     0.126 C 
HETATM   21  N   UNK N   1      34.994  13.844  12.360  0.00  0.00    -0.208 NA
HETATM   22  C   UNK N   1      35.961  14.925  12.265  0.00  0.00     0.126 C 
HETATM   23  C   UNK N   1      35.310  16.054  11.477  0.00  0.00     0.132 C 
BRANCH  21  24
HETATM   24  S   UNK N   1      35.466  12.660  13.584  0.00  0.00     0.211 S 
HETATM   25  O   UNK N   1      36.971  12.351  13.518  0.00  0.00    -0.211 OA
HETATM   26  O   UNK N   1      35.794  13.847  14.500  0.00  0.00    -0.211 OA
BRANCH  24  27
HETATM   27  C   UNK N   1      34.426  12.140  14.984  0.00  0.00     0.157 C 
BRANCH  27  28
HETATM   28  C   UNK N   1      33.874  10.741  14.774  0.00  0.00     0.012 C 
HETATM   29  C   UNK N   1      33.814  10.397  13.296  0.00  0.00     0.006 C 
ENDBRANCH  27  28
ENDBRANCH  24  27
ENDBRANCH  21  24
ENDBRANCH  17  18
ENDBRANCH  14  17
ENDBRANCH   8  11
ENDBRANCH   1   7
BRANCH   4  30
HETATM   30  C   UNK N   1      24.694  15.185   6.453  0.00  0.00     0.010 A 
HETATM   31  C   UNK N   1      24.044  16.125   5.708  0.00  0.00     0.044 A 
HETATM   32  C   UNK N   1      22.694  16.148   5.524  0.00  0.00     0.035 A 
HETATM   33  C   UNK N   1      21.914  15.188   6.194  0.00  0.00     0.032 A 
HETATM   34  C   UNK N   1      22.555  14.207   7.000  0.00  0.00     0.040 A 
HETATM   35  C   UNK N   1      23.968  14.188   7.117  0.00  0.00     0.089 A 
BRANCH  32  36
HETATM   36  N   UNK N   1      22.157  17.145   4.652  0.00  0.00    -0.327 N 
HETATM   37  C   UNK N   1      21.625  18.323   5.130  0.00  0.00     0.226 C 
HETATM   38  O   UNK N   1      21.757  18.639   6.309  0.00  0.00    -0.273 OA
HETATM   39  H   UNK N   1      22.168  16.986   3.680  0.00  0.00     0.169 HD
BRANCH  37  40
HETATM   40  C   UNK N   1      20.855  19.232   4.215  0.00  0.00     0.078 A 
HETATM   41  C   UNK N   1      21.761  19.853   3.152  0.00  0.00     0.015 A 
HETATM   42  C   UNK N   1      20.873  18.681   2.802  0.00  0.00     0.015 A 
ENDBRANCH  37  40
ENDBRANCH  32  36
BRANCH  35  43
HETATM   43  O   UNK N   1      24.650  13.295   7.891  0.00  0.00    -0.254 OA
BRANCH  43  44
HETATM   44  C   UNK N   1      24.697  13.175   9.269  0.00  0.00     0.530 C 
HETATM   45  F   UNK N   1      23.489  13.605   9.788  0.00  0.00    -0.144 F 
HETATM   46  F   UNK N   1      25.712  13.923   9.833  0.00  0.00    -0.144 F 
HETATM   47  F   UNK N   1      24.864  11.843   9.603  0.00  0.00    -0.144 F 
ENDBRANCH  43  44
ENDBRANCH  35  43
ENDBRANCH   4  30
TORSDOF 12
ENDMDL
MODEL 6
REMARK VINA RESULT:      -8.2      7.871     16.693
REMARK  12 active torsions:
REMARK  status: ('A' for Active; 'I' for Inactive)
REMARK    1  A    between atoms: C_2  and  C_3 
REMARK    2  A    between atoms: C_3  and  S_4 
REMARK    3  A    between atoms: S_4  and  N_7 
REMARK    4  A    between atoms: N_10  and  C_13 
REMARK    5  A    between atoms: C_13  and  C_14 
REMARK    6  A    between atoms: C_17  and  N_20 
REMARK       I    between atoms: N_20  and  C_21 
REMARK    7  A    between atoms: C_21  and  C_23 
REMARK    8  A    between atoms: C_26  and  C_29 
REMARK    9  A    between atoms: C_31  and  N_40 
REMARK   10  A    between atoms: C_34  and  O_35 
REMARK   11  A    between atoms: O_35  and  C_36 
REMARK       I    between atoms: N_40  and  C_41 
REMARK   12  A    between atoms: C_41  and  C_43 
ROOT
HETATM    1  C   UNK N   1      28.420  17.130   5.466  0.00  0.00     0.032 A 
HETATM    2  C   UNK N   1      27.507  18.115   5.124  0.00  0.00     0.018 A 
HETATM    3  C   UNK N   1      26.199  17.751   4.906  0.00  0.00     0.013 A 
HETATM    4  C   UNK N   1      25.776  16.432   5.147  0.00  0.00    -0.023 A 
HETATM    5  C   UNK N   1      26.691  15.455   5.531  0.00  0.00     0.013 A 
HETATM    6  C   UNK N   1      28.020  15.807   5.673  0.00  0.00     0.018 A 
ENDROOT
BRANCH   1   7
HETATM    7  C   UNK N   1      29.735  17.482   5.852  0.00  0.00     0.256 C 
HETATM    8  N   UNK N   1      30.192  17.067   7.058  0.00  0.00    -0.323 N 
HETATM    9  H   UNK N   1      29.589  16.955   7.828  0.00  0.00     0.169 HD
HETATM   10  O   UNK N   1      30.521  17.871   4.981  0.00  0.00    -0.267 OA
BRANCH   8  11
HETATM   11  C   UNK N   1      31.562  16.806   7.155  0.00  0.00     0.035 A 
HETATM   12  C   UNK N   1      32.033  15.531   6.873  0.00  0.00     0.030 A 
HETATM   13  C   UNK N   1      33.231  15.109   7.445  0.00  0.00     0.011 A 
HETATM   14  C   UNK N   1      33.933  15.957   8.309  0.00  0.00    -0.041 A 
HETATM   15  C   UNK N   1      33.491  17.260   8.528  0.00  0.00     0.011 A 
HETATM   16  C   UNK N   1      32.321  17.687   7.944  0.00  0.00     0.030 A 
BRANCH  14  17
HETATM   17  C   UNK N   1      35.009  15.378   9.164  0.00  0.00     0.155 C 
BRANCH  17  18
HETATM   18  N   UNK N   1      34.574  14.968  10.490  0.00  0.00    -0.406 N 
HETATM   19  C   UNK N   1      34.476  13.506  10.640  0.00  0.00     0.132 C 
HETATM   20  C   UNK N   1      35.419  12.945  11.698  0.00  0.00     0.126 C 
HETATM   21  N   UNK N   1      35.319  13.788  12.870  0.00  0.00    -0.208 NA
HETATM   22  C   UNK N   1      36.005  15.025  12.540  0.00  0.00     0.126 C 
HETATM   23  C   UNK N   1      35.111  15.804  11.584  0.00  0.00     0.132 C 
BRANCH  21  24
HETATM   24  S   UNK N   1      36.049  12.998  14.272  0.00  0.00     0.211 S 
HETATM   25  O   UNK N   1      36.851  13.993  15.126  0.00  0.00    -0.211 OA
HETATM   26  O   UNK N   1      34.795  13.398  15.059  0.00  0.00    -0.211 OA
BRANCH  24  27
HETATM   27  C   UNK N   1      35.627  11.328  14.861  0.00  0.00     0.157 C 
BRANCH  27  28
HETATM   28  C   UNK N   1      34.130  11.080  14.795  0.00  0.00     0.012 C 
HETATM   29  C   UNK N   1      33.751  10.392  13.496  0.00  0.00     0.006 C 
ENDBRANCH  27  28
ENDBRANCH  24  27
ENDBRANCH  21  24
ENDBRANCH  17  18
ENDBRANCH  14  17
ENDBRANCH   8  11
ENDBRANCH   1   7
BRANCH   4  30
HETATM   30  C   UNK N   1      24.428  16.062   4.773  0.00  0.00     0.010 A 
HETATM   31  C   UNK N   1      23.573  15.943   5.828  0.00  0.00     0.044 A 
HETATM   32  C   UNK N   1      22.234  15.718   5.700  0.00  0.00     0.035 A 
HETATM   33  C   UNK N   1      21.713  15.531   4.407  0.00  0.00     0.032 A 
HETATM   34  C   UNK N   1      22.579  15.622   3.283  0.00  0.00     0.040 A 
HETATM   35  C   UNK N   1      23.955  15.914   3.462  0.00  0.00     0.089 A 
BRANCH  32  36
HETATM   36  N   UNK N   1      21.445  15.696   6.891  0.00  0.00    -0.327 N 
HETATM   37  C   UNK N   1      20.961  16.850   7.467  0.00  0.00     0.226 C 
HETATM   38  O   UNK N   1      21.037  17.926   6.879  0.00  0.00    -0.273 OA
HETATM   39  H   UNK N   1      21.240  14.829   7.312  0.00  0.00     0.169 HD
BRANCH  37  40
HETATM   40  C   UNK N   1      20.348  16.813   8.838  0.00  0.00     0.078 A 
HETATM   41  C   UNK N   1      18.834  16.611   8.767  0.00  0.00     0.015 A 
HETATM   42  C   UNK N   1      19.741  15.447   9.095  0.00  0.00     0.015 A 
ENDBRANCH  37  40
ENDBRANCH  32  36
BRANCH  35  43
HETATM   43  O   UNK N   1      24.851  15.992   2.435  0.00  0.00    -0.254 OA
BRANCH  43  44
HETATM   44  C   UNK N   1      25.490  14.980   1.742  0.00  0.00     0.530 C 
HETATM   45  F   UNK N   1      25.472  13.836   2.519  0.00  0.00    -0.144 F 
HETATM   46  F   UNK N   1      26.802  15.289   1.439  0.00  0.00    -0.144 F 
HETATM   47  F   UNK N   1      24.795  14.723   0.574  0.00  0.00    -0.144 F 
ENDBRANCH  43  44
ENDBRANCH  35  43
ENDBRANCH   4  30
TORSDOF 12
ENDMDL
MODEL 7
REMARK VINA RESULT:      -8.1      6.844     16.235
REMARK  12 active torsions:
REMARK  status: ('A' for Active; 'I' for Inactive)
REMARK    1  A    between atoms: C_2  and  C_3 
REMARK    2  A    between atoms: C_3  and  S_4 
REMARK    3  A    between atoms: S_4  and  N_7 
REMARK    4  A    between atoms: N_10  and  C_13 
REMARK    5  A    between atoms: C_13  and  C_14 
REMARK    6  A    between atoms: C_17  and  N_20 
REMARK       I    between atoms: N_20  and  C_21 
REMARK    7  A    between atoms: C_21  and  C_23 
REMARK    8  A    between atoms: C_26  and  C_29 
REMARK    9  A    between atoms: C_31  and  N_40 
REMARK   10  A    between atoms: C_34  and  O_35 
REMARK   11  A    between atoms: O_35  and  C_36 
REMARK       I    between atoms: N_40  and  C_41 
REMARK   12  A    between atoms: C_41  and  C_43 
ROOT
HETATM    1  C   UNK N   1      31.106  17.212   6.750  0.00  0.00     0.032 A 
HETATM    2  C   UNK N   1      29.953  17.237   7.518  0.00  0.00     0.018 A 
HETATM    3  C   UNK N   1      28.746  17.413   6.885  0.00  0.00     0.013 A 
HETATM    4  C   UNK N   1      28.674  17.441   5.481  0.00  0.00    -0.023 A 
HETATM    5  C   UNK N   1      29.834  17.373   4.713  0.00  0.00     0.013 A 
HETATM    6  C   UNK N   1      31.054  17.277   5.355  0.00  0.00     0.018 A 
ENDROOT
BRANCH   1   7
HETATM    7  C   UNK N   1      32.348  16.877   7.341  0.00  0.00     0.256 C 
HETATM    8  N   UNK N   1      32.518  17.095   8.667  0.00  0.00    -0.323 N 
HETATM    9  H   UNK N   1      32.067  17.838   9.130  0.00  0.00     0.169 HD
HETATM   10  O   UNK N   1      33.109  16.123   6.725  0.00  0.00    -0.267 OA
BRANCH   8  11
HETATM   11  C   UNK N   1      33.364  16.214   9.346  0.00  0.00     0.035 A 
HETATM   12  C   UNK N   1      34.731  16.458   9.357  0.00  0.00     0.030 A 
HETATM   13  C   UNK N   1      35.608  15.391   9.539  0.00  0.00     0.011 A 
HETATM   14  C   UNK N   1      35.111  14.091   9.687  0.00  0.00    -0.041 A 
HETATM   15  C   UNK N   1      33.738  13.866   9.747  0.00  0.00     0.011 A 
HETATM   16  C   UNK N   1      32.870  14.923   9.592  0.00  0.00     0.030 A 
BRANCH  14  17
HETATM   17  C   UNK N   1      36.052  12.943   9.539  0.00  0.00     0.155 C 
BRANCH  17  18
HETATM   18  N   UNK N   1      36.507  12.368  10.795  0.00  0.00    -0.406 N 
HETATM   19  C   UNK N   1      37.086  13.367  11.711  0.00  0.00     0.132 C 
HETATM   20  C   UNK N   1      36.320  13.497  13.022  0.00  0.00     0.126 C 
HETATM   21  N   UNK N   1      36.045  12.162  13.508  0.00  0.00    -0.208 NA
HETATM   22  C   UNK N   1      35.004  11.623  12.650  0.00  0.00     0.126 C 
HETATM   23  C   UNK N   1      35.643  11.285  11.309  0.00  0.00     0.132 C 
BRANCH  21  24
HETATM   24  S   UNK N   1      35.532  12.206  15.198  0.00  0.00     0.211 S 
HETATM   25  O   UNK N   1      34.469  13.290  15.436  0.00  0.00    -0.211 OA
HETATM   26  O   UNK N   1      34.402  11.245  14.804  0.00  0.00    -0.211 OA
BRANCH  24  27
HETATM   27  C   UNK N   1      35.905  10.921  16.432  0.00  0.00     0.157 C 
BRANCH  27  28
HETATM   28  C   UNK N   1      34.822   9.857  16.468  0.00  0.00     0.012 C 
HETATM   29  C   UNK N   1      34.923   9.022  17.732  0.00  0.00     0.006 C 
ENDBRANCH  27  28
ENDBRANCH  24  27
ENDBRANCH  21  24
ENDBRANCH  17  18
ENDBRANCH  14  17
ENDBRANCH   8  11
ENDBRANCH   1   7
BRANCH   4  30
HETATM   30  C   UNK N   1      27.408  17.767   4.862  0.00  0.00     0.010 A 
HETATM   31  C   UNK N   1      26.722  16.682   4.400  0.00  0.00     0.044 A 
HETATM   32  C   UNK N   1      25.459  16.743   3.889  0.00  0.00     0.035 A 
HETATM   33  C   UNK N   1      24.851  18.005   3.768  0.00  0.00     0.032 A 
HETATM   34  C   UNK N   1      25.546  19.162   4.216  0.00  0.00     0.040 A 
HETATM   35  C   UNK N   1      26.836  19.044   4.793  0.00  0.00     0.089 A 
BRANCH  32  36
HETATM   36  N   UNK N   1      24.831  15.514   3.517  0.00  0.00    -0.327 N 
HETATM   37  C   UNK N   1      24.920  15.007   2.239  0.00  0.00     0.226 C 
HETATM   38  O   UNK N   1      25.693  15.499   1.420  0.00  0.00    -0.273 OA
HETATM   39  H   UNK N   1      24.320  15.015   4.194  0.00  0.00     0.169 HD
BRANCH  37  40
HETATM   40  C   UNK N   1      24.055  13.853   1.820  0.00  0.00     0.078 A 
HETATM   41  C   UNK N   1      22.743  14.334   1.202  0.00  0.00     0.015 A 
HETATM   42  C   UNK N   1      23.872  13.864   0.314  0.00  0.00     0.015 A 
ENDBRANCH  37  40
ENDBRANCH  32  36
BRANCH  35  43
HETATM   43  O   UNK N   1      27.573  20.110   5.221  0.00  0.00    -0.254 OA
BRANCH  43  44
HETATM   44  C   UNK N   1      27.336  20.983   6.267  0.00  0.00     0.530 C 
HETATM   45  F   UNK N   1      26.115  21.598   6.058  0.00  0.00    -0.144 F 
HETATM   46  F   UNK N   1      28.309  21.958   6.377  0.00  0.00    -0.144 F 
HETATM   47  F   UNK N   1      27.266  20.267   7.448  0.00  0.00    -0.144 F 
ENDBRANCH  43  44
ENDBRANCH  35  43
ENDBRANCH   4  30
TORSDOF 12
ENDMDL
MODEL 8
REMARK VINA RESULT:      -8.1      6.900     15.535
REMARK  12 active torsions:
REMARK  status: ('A' for Active; 'I' for Inactive)
REMARK    1  A    between atoms: C_2  and  C_3 
REMARK    2  A    between atoms: C_3  and  S_4 
REMARK    3  A    between atoms: S_4  and  N_7 
REMARK    4  A    between atoms: N_10  and  C_13 
REMARK    5  A    between atoms: C_13  and  C_14 
REMARK    6  A    between atoms: C_17  and  N_20 
REMARK       I    between atoms: N_20  and  C_21 
REMARK    7  A    between atoms: C_21  and  C_23 
REMARK    8  A    between atoms: C_26  and  C_29 
REMARK    9  A    between atoms: C_31  and  N_40 
REMARK   10  A    between atoms: C_34  and  O_35 
REMARK   11  A    between atoms: O_35  and  C_36 
REMARK       I    between atoms: N_40  and  C_41 
REMARK   12  A    between atoms: C_41  and  C_43 
ROOT
HETATM    1  C   UNK N   1      30.700  17.093   7.060  0.00  0.00     0.032 A 
HETATM    2  C   UNK N   1      29.690  17.711   7.782  0.00  0.00     0.018 A 
HETATM    3  C   UNK N   1      28.388  17.520   7.385  0.00  0.00     0.013 A 
HETATM    4  C   UNK N   1      28.082  16.619   6.349  0.00  0.00    -0.023 A 
HETATM    5  C   UNK N   1      29.099  15.968   5.656  0.00  0.00     0.013 A 
HETATM    6  C   UNK N   1      30.412  16.223   6.005  0.00  0.00     0.018 A 
ENDROOT
BRANCH   1   7
HETATM    7  C   UNK N   1      32.035  17.134   7.527  0.00  0.00     0.256 C 
HETATM    8  N   UNK N   1      32.290  16.763   8.805  0.00  0.00    -0.323 N 
HETATM    9  H   UNK N   1      31.633  16.905   9.524  0.00  0.00     0.169 HD
HETATM   10  O   UNK N   1      32.948  17.197   6.696  0.00  0.00    -0.267 OA
BRANCH   8  11
HETATM   11  C   UNK N   1      33.530  16.168   9.051  0.00  0.00     0.035 A 
HETATM   12  C   UNK N   1      33.642  14.785   9.006  0.00  0.00     0.030 A 
HETATM   13  C   UNK N   1      34.656  14.163   9.731  0.00  0.00     0.011 A 
HETATM   14  C   UNK N   1      35.533  14.927  10.509  0.00  0.00    -0.041 A 
HETATM   15  C   UNK N   1      35.459  16.318  10.490  0.00  0.00     0.011 A 
HETATM   16  C   UNK N   1      34.473  16.935   9.755  0.00  0.00     0.030 A 
BRANCH  14  17
HETATM   17  C   UNK N   1      36.376  14.236  11.526  0.00  0.00     0.155 C 
BRANCH  17  18
HETATM   18  N   UNK N   1      35.695  13.941  12.777  0.00  0.00    -0.406 N 
HETATM   19  C   UNK N   1      35.006  12.638  12.767  0.00  0.00     0.132 C 
HETATM   20  C   UNK N   1      35.545  11.664  13.808  0.00  0.00     0.126 C 
HETATM   21  N   UNK N   1      35.685  12.385  15.056  0.00  0.00    -0.208 NA
HETATM   22  C   UNK N   1      36.836  13.256  14.895  0.00  0.00     0.126 C 
HETATM   23  C   UNK N   1      36.421  14.401  13.981  0.00  0.00     0.132 C 
BRANCH  21  24
HETATM   24  S   UNK N   1      35.907  11.262  16.402  0.00  0.00     0.211 S 
HETATM   25  O   UNK N   1      35.257  11.793  17.691  0.00  0.00    -0.211 OA
HETATM   26  O   UNK N   1      34.552  10.652  16.022  0.00  0.00    -0.211 OA
BRANCH  24  27
HETATM   27  C   UNK N   1      36.486   9.545  16.241  0.00  0.00     0.157 C 
BRANCH  27  28
HETATM   28  C   UNK N   1      37.820   9.476  15.518  0.00  0.00     0.012 C 
HETATM   29  C   UNK N   1      38.441   8.097  15.654  0.00  0.00     0.006 C 
ENDBRANCH  27  28
ENDBRANCH  24  27
ENDBRANCH  21  24
ENDBRANCH  17  18
ENDBRANCH  14  17
ENDBRANCH   8  11
ENDBRANCH   1   7
BRANCH   4  30
HETATM   30  C   UNK N   1      26.718  16.555   5.873  0.00  0.00     0.010 A 
HETATM   31  C   UNK N   1      25.947  15.638   6.525  0.00  0.00     0.044 A 
HETATM   32  C   UNK N   1      24.607  15.490   6.321  0.00  0.00     0.035 A 
HETATM   33  C   UNK N   1      23.993  16.282   5.333  0.00  0.00     0.032 A 
HETATM   34  C   UNK N   1      24.771  17.231   4.615  0.00  0.00     0.040 A 
HETATM   35  C   UNK N   1      26.151  17.390   4.901  0.00  0.00     0.089 A 
BRANCH  32  36
HETATM   36  N   UNK N   1      23.909  14.543   7.133  0.00  0.00    -0.327 N 
HETATM   37  C   UNK N   1      23.638  13.265   6.694  0.00  0.00     0.226 C 
HETATM   38  O   UNK N   1      24.144  12.836   5.660  0.00  0.00    -0.273 OA
HETATM   39  H   UNK N   1      23.615  14.811   8.033  0.00  0.00     0.169 HD
BRANCH  37  40
HETATM   40  C   UNK N   1      22.700  12.382   7.466  0.00  0.00     0.078 A 
HETATM   41  C   UNK N   1      23.443  11.570   8.527  0.00  0.00     0.015 A 
HETATM   42  C   UNK N   1      22.670  12.808   8.921  0.00  0.00     0.015 A 
ENDBRANCH  37  40
ENDBRANCH  32  36
BRANCH  35  43
HETATM   43  O   UNK N   1      26.965  18.260   4.237  0.00  0.00    -0.254 OA
BRANCH  43  44
HETATM   44  C   UNK N   1      27.233  19.592   4.499  0.00  0.00     0.530 C 
HETATM   45  F   UNK N   1      28.597  19.741   4.670  0.00  0.00    -0.144 F 
HETATM   46  F   UNK N   1      26.592  20.051   5.633  0.00  0.00    -0.144 F 
HETATM   47  F   UNK N   1      26.845  20.354   3.410  0.00  0.00    -0.144 F 
ENDBRANCH  43  44
ENDBRANCH  35  43
ENDBRANCH   4  30
TORSDOF 12
ENDMDL
MODEL 9
REMARK VINA RESULT:      -8.0      5.233     13.873
REMARK  12 active torsions:
REMARK  status: ('A' for Active; 'I' for Inactive)
REMARK    1  A    between atoms: C_2  and  C_3 
REMARK    2  A    between atoms: C_3  and  S_4 
REMARK    3  A    between atoms: S_4  and  N_7 
REMARK    4  A    between atoms: N_10  and  C_13 
REMARK    5  A    between atoms: C_13  and  C_14 
REMARK    6  A    between atoms: C_17  and  N_20 
REMARK       I    between atoms: N_20  and  C_21 
REMARK    7  A    between atoms: C_21  and  C_23 
REMARK    8  A    between atoms: C_26  and  C_29 
REMARK    9  A    between atoms: C_31  and  N_40 
REMARK   10  A    between atoms: C_34  and  O_35 
REMARK   11  A    between atoms: O_35  and  C_36 
REMARK       I    between atoms: N_40  and  C_41 
REMARK   12  A    between atoms: C_41  and  C_43 
ROOT
HETATM    1  C   UNK N   1      35.800  13.716  13.557  0.00  0.00     0.032 A 
HETATM    2  C   UNK N   1      36.078  14.983  13.069  0.00  0.00     0.018 A 
HETATM    3  C   UNK N   1      35.706  15.286  11.781  0.00  0.00     0.013 A 
HETATM    4  C   UNK N   1      34.950  14.375  11.022  0.00  0.00    -0.023 A 
HETATM    5  C   UNK N   1      34.638  13.118  11.535  0.00  0.00     0.013 A 
HETATM    6  C   UNK N   1      35.082  12.786  12.801  0.00  0.00     0.018 A 
ENDROOT
BRANCH   1   7
HETATM    7  C   UNK N   1      36.022  13.414  14.922  0.00  0.00     0.256 C 
HETATM    8  N   UNK N   1      34.986  12.953  15.663  0.00  0.00    -0.323 N 
HETATM    9  H   UNK N   1      34.059  13.229  15.483  0.00  0.00     0.169 HD
HETATM   10  O   UNK N   1      37.186  13.278  15.314  0.00  0.00    -0.267 OA
BRANCH   8  11
HETATM   11  C   UNK N   1      35.299  12.065  16.697  0.00  0.00     0.035 A 
HETATM   12  C   UNK N   1      35.117  10.703  16.501  0.00  0.00     0.030 A 
HETATM   13  C   UNK N   1      34.909   9.882  17.607  0.00  0.00     0.011 A 
HETATM   14  C   UNK N   1      34.864  10.433  18.893  0.00  0.00    -0.041 A 
HETATM   15  C   UNK N   1      35.120  11.789  19.085  0.00  0.00     0.011 A 
HETATM   16  C   UNK N   1      35.351  12.597  17.996  0.00  0.00     0.030 A 
BRANCH  14  17
HETATM   17  C   UNK N   1      34.310   9.610  20.006  0.00  0.00     0.155 C 
BRANCH  17  18
HETATM   18  N   UNK N   1      34.387  10.235  21.317  0.00  0.00    -0.406 N 
HETATM   19  C   UNK N   1      33.097  10.783  21.772  0.00  0.00     0.132 C 
HETATM   20  C   UNK N   1      32.582  10.128  23.048  0.00  0.00     0.126 C 
HETATM   21  N   UNK N   1      33.687  10.043  23.979  0.00  0.00    -0.208 NA
HETATM   22  C   UNK N   1      34.558   8.993  23.481  0.00  0.00     0.126 C 
HETATM   23  C   UNK N   1      35.288   9.542  22.263  0.00  0.00     0.132 C 
BRANCH  21  24
HETATM   24  S   UNK N   1      33.104   9.682  25.607  0.00  0.00     0.211 S 
HETATM   25  O   UNK N   1      32.929  10.963  26.440  0.00  0.00    -0.211 OA
HETATM   26  O   UNK N   1      31.683   9.892  25.066  0.00  0.00    -0.211 OA
BRANCH  24  27
HETATM   27  C   UNK N   1      32.435   8.076  26.141  0.00  0.00     0.157 C 
BRANCH  27  28
HETATM   28  C   UNK N   1      31.292   7.628  25.247  0.00  0.00     0.012 C 
HETATM   29  C   UNK N   1      31.741   6.529  24.301  0.00  0.00     0.006 C 
ENDBRANCH  27  28
ENDBRANCH  24  27
ENDBRANCH  21  24
ENDBRANCH  17  18
ENDBRANCH  14  17
ENDBRANCH   8  11
ENDBRANCH   1   7
BRANCH   4  30
HETATM   30  C   UNK N   1      34.701  14.677   9.630  0.00  0.00     0.010 A 
HETATM   31  C   UNK N   1      33.432  15.106   9.375  0.00  0.00     0.044 A 
HETATM   32  C   UNK N   1      33.012  15.556   8.158  0.00  0.00     0.035 A 
HETATM   33  C   UNK N   1      33.920  15.513   7.084  0.00  0.00     0.032 A 
HETATM   34  C   UNK N   1      35.245  15.048   7.307  0.00  0.00     0.040 A 
HETATM   35  C   UNK N   1      35.654  14.643   8.603  0.00  0.00     0.089 A 
BRANCH  32  36
HETATM   36  N   UNK N   1      31.676  16.051   8.055  0.00  0.00    -0.327 N 
HETATM   37  C   UNK N   1      31.360  17.363   8.333  0.00  0.00     0.226 C 
HETATM   38  O   UNK N   1      32.243  18.199   8.505  0.00  0.00    -0.273 OA
HETATM   39  H   UNK N   1      30.959  15.436   7.776  0.00  0.00     0.169 HD
BRANCH  37  40
HETATM   40  C   UNK N   1      29.924  17.787   8.451  0.00  0.00     0.078 A 
HETATM   41  C   UNK N   1      29.317  17.342   9.782  0.00  0.00     0.015 A 
HETATM   42  C   UNK N   1      29.769  18.772   9.594  0.00  0.00     0.015 A 
ENDBRANCH  37  40
ENDBRANCH  32  36
BRANCH  35  43
HETATM   43  O   UNK N   1      36.899  14.162   8.887  0.00  0.00    -0.254 OA
BRANCH  43  44
HETATM   44  C   UNK N   1      37.339  12.854   8.982  0.00  0.00     0.530 C 
HETATM   45  F   UNK N   1      37.727  12.615  10.289  0.00  0.00    -0.144 F 
HETATM   46  F   UNK N   1      38.409  12.591   8.149  0.00  0.00    -0.144 F 
HETATM   47  F   UNK N   1      36.294  12.001   8.676  0.00  0.00    -0.144 F 
ENDBRANCH  43  44
ENDBRANCH  35  43
ENDBRANCH   4  30
TORSDOF 12
ENDMDL
