MODEL 1
REMARK VINA RESULT:      -8.1      0.000      0.000
REMARK  5 active torsions:
REMARK  status: ('A' for Active; 'I' for Inactive)
REMARK    1  A    between atoms: C_3  and  C_2 
REMARK    2  A    between atoms: C_26  and  C_27 
REMARK    3  A    between atoms: C_27  and  C_28 
REMARK    4  A    between atoms: C_28  and  N_29 
REMARK    5  A    between atoms: N_29  and  C_30 
ROOT
HETATM    1  C   UNK N   1      32.966  16.032   6.913  0.00  0.00     0.173 C 
HETATM    2  C   UNK N   1      33.936  15.739   8.025  0.00  0.00     0.002 A 
HETATM    3  C   UNK N   1      34.102  14.432   8.510  0.00  0.00     0.043 A 
HETATM    4  C   UNK N   1      34.833  14.251   9.673  0.00  0.00     0.065 A 
HETATM    5  N   UNK N   1      35.367  15.287  10.346  0.00  0.00    -0.307 N 
HETATM    6  C   UNK N   1      35.260  16.579   9.894  0.00  0.00     0.257 A 
HETATM    7  O   UNK N   1      35.757  17.496  10.525  0.00  0.00    -0.267 OA
HETATM    8  C   UNK N   1      34.526  16.826   8.717  0.00  0.00     0.044 A 
HETATM    9  C   UNK N   1      34.316  18.240   8.214  0.00  0.00     0.224 C 
HETATM   10  O   UNK N   1      33.969  18.299   6.868  0.00  0.00    -0.314 OA
HETATM   11  C   UNK N   1      33.473  17.244   6.169  0.00  0.00     0.298 C 
HETATM   12  O   UNK N   1      33.463  17.283   4.949  0.00  0.00    -0.261 OA
HETATM   13  C   UNK N   1      35.970  14.841  11.615  0.00  0.00     0.174 A 
HETATM   14  C   UNK N   1      35.636  13.363  11.585  0.00  0.00    -0.004 A 
HETATM   15  C   UNK N   1      35.015  13.047  10.407  0.00  0.00     0.068 A 
HETATM   16  N   UNK N   1      34.577  11.803  10.109  0.00  0.00    -0.353 N 
ATOM     17  HN  UNK N   1      34.119  11.616   9.217  1.00  0.00     0.166 HD
HETATM   18  C   UNK N   1      34.753  10.801  11.016  0.00  0.00     0.043 A 
HETATM   19  C   UNK N   1      34.285   9.518  10.727  0.00  0.00     0.030 A 
HETATM   20  C   UNK N   1      34.417   8.495  11.668  0.00  0.00     0.002 A 
HETATM   21  C   UNK N   1      35.015   8.751  12.905  0.00  0.00     0.001 A 
HETATM   22  C   UNK N   1      35.491  10.030  13.209  0.00  0.00     0.014 A 
HETATM   23  C   UNK N   1      35.372  11.068  12.274  0.00  0.00    -0.002 A 
HETATM   24  C   UNK N   1      35.824  12.379  12.566  0.00  0.00    -0.034 A 
HETATM   25  O   UNK N   1      31.762  16.385   7.530  0.00  0.00    -0.375 OA
HETATM   26  H   UNK N   1      30.920  16.555   7.980  0.00  0.00     0.211 HD
ENDROOT
BRANCH   1  27
HETATM   27  C   UNK N   1      32.720  14.805   6.013  0.00  0.00     0.049 C 
HETATM   28  C   UNK N   1      31.249  14.597   5.685  0.00  0.00     0.009 C 
ENDBRANCH   1  27
BRANCH  24  29
HETATM   29  C   UNK N   1      36.395  12.720  13.916  0.00  0.00     0.059 C 
BRANCH  29  30
HETATM   30  C   UNK N   1      35.379  13.308  14.874  0.00  0.00     0.118 C 
BRANCH  30  31
HETATM   31  N   UNK N   1      35.993  13.393  16.190  0.00  0.00    -0.417 N 
HETATM   32  H   UNK N   1      36.926  13.749  16.398  0.00  0.00     0.153 HD
BRANCH  31  33
HETATM   33  C   UNK N   1      35.035  12.881  17.156  0.00  0.00     0.068 C 
HETATM   34  C   UNK N   1      35.239  13.573  18.487  0.00  0.00     0.031 C 
HETATM   35  C   UNK N   1      35.244  11.391  17.332  0.00  0.00     0.031 C 
ENDBRANCH  31  33
ENDBRANCH  30  31
ENDBRANCH  29  30
ENDBRANCH  24  29
TORSDOF 5
ENDMDL
MODEL 2
REMARK VINA RESULT:      -7.8     16.246     20.729
REMARK  5 active torsions:
REMARK  status: ('A' for Active; 'I' for Inactive)
REMARK    1  A    between atoms: C_3  and  C_2 
REMARK    2  A    between atoms: C_26  and  C_27 
REMARK    3  A    between atoms: C_27  and  C_28 
REMARK    4  A    between atoms: C_28  and  N_29 
REMARK    5  A    between atoms: N_29  and  C_30 
ROOT
HETATM    1  C   UNK N   1      33.031  20.928  -5.495  0.00  0.00     0.173 C 
HETATM    2  C   UNK N   1      31.823  21.523  -4.822  0.00  0.00     0.002 A 
HETATM    3  C   UNK N   1      30.755  22.029  -5.579  0.00  0.00     0.043 A 
HETATM    4  C   UNK N   1      29.777  22.761  -4.924  0.00  0.00     0.065 A 
HETATM    5  N   UNK N   1      29.836  23.005  -3.602  0.00  0.00    -0.307 N 
HETATM    6  C   UNK N   1      30.842  22.503  -2.816  0.00  0.00     0.257 A 
HETATM    7  O   UNK N   1      30.867  22.740  -1.620  0.00  0.00    -0.267 OA
HETATM    8  C   UNK N   1      31.868  21.753  -3.425  0.00  0.00     0.044 A 
HETATM    9  C   UNK N   1      33.040  21.237  -2.615  0.00  0.00     0.224 C 
HETATM   10  O   UNK N   1      33.714  20.187  -3.230  0.00  0.00    -0.314 OA
HETATM   11  C   UNK N   1      33.622  19.904  -4.557  0.00  0.00     0.298 C 
HETATM   12  O   UNK N   1      34.002  18.819  -4.967  0.00  0.00    -0.261 OA
HETATM   13  C   UNK N   1      28.757  23.918  -3.183  0.00  0.00     0.174 A 
HETATM   14  C   UNK N   1      28.095  24.207  -4.515  0.00  0.00    -0.004 A 
HETATM   15  C   UNK N   1      28.689  23.470  -5.503  0.00  0.00     0.068 A 
HETATM   16  N   UNK N   1      28.324  23.541  -6.804  0.00  0.00    -0.353 N 
ATOM     17  HN  UNK N   1      28.797  22.972  -7.504  1.00  0.00     0.166 HD
HETATM   18  C   UNK N   1      27.317  24.384  -7.166  0.00  0.00     0.043 A 
HETATM   19  C   UNK N   1      26.947  24.480  -8.510  0.00  0.00     0.030 A 
HETATM   20  C   UNK N   1      25.949  25.375  -8.899  0.00  0.00     0.002 A 
HETATM   21  C   UNK N   1      25.318  26.182  -7.948  0.00  0.00     0.001 A 
HETATM   22  C   UNK N   1      25.675  26.096  -6.599  0.00  0.00     0.014 A 
HETATM   23  C   UNK N   1      26.671  25.199  -6.188  0.00  0.00    -0.002 A 
HETATM   24  C   UNK N   1      27.069  25.109  -4.831  0.00  0.00    -0.034 A 
HETATM   25  O   UNK N   1      33.955  21.970  -5.624  0.00  0.00    -0.375 OA
HETATM   26  H   UNK N   1      34.549  22.724  -5.768  0.00  0.00     0.211 HD
ENDROOT
BRANCH   1  27
HETATM   27  C   UNK N   1      32.708  20.377  -6.897  0.00  0.00     0.049 C 
HETATM   28  C   UNK N   1      33.673  20.870  -7.964  0.00  0.00     0.009 C 
ENDBRANCH   1  27
BRANCH  24  29
HETATM   29  C   UNK N   1      26.477  26.018  -3.788  0.00  0.00     0.059 C 
BRANCH  29  30
HETATM   30  C   UNK N   1      27.225  27.327  -3.630  0.00  0.00     0.118 C 
BRANCH  30  31
HETATM   31  N   UNK N   1      26.293  28.323  -3.124  0.00  0.00    -0.417 N 
HETATM   32  H   UNK N   1      25.769  28.268  -2.250  0.00  0.00     0.153 HD
BRANCH  31  33
HETATM   33  C   UNK N   1      26.246  29.410  -4.086  0.00  0.00     0.068 C 
HETATM   34  C   UNK N   1      27.259  29.160  -5.183  0.00  0.00     0.031 C 
HETATM   35  C   UNK N   1      26.576  30.716  -3.391  0.00  0.00     0.031 C 
ENDBRANCH  31  33
ENDBRANCH  30  31
ENDBRANCH  29  30
ENDBRANCH  24  29
TORSDOF 5
ENDMDL
MODEL 3
REMARK VINA RESULT:      -7.7      3.705      9.086
REMARK  5 active torsions:
REMARK  status: ('A' for Active; 'I' for Inactive)
REMARK    1  A    between atoms: C_3  and  C_2 
REMARK    2  A    between atoms: C_26  and  C_27 
REMARK    3  A    between atoms: C_27  and  C_28 
REMARK    4  A    between atoms: C_28  and  N_29 
REMARK    5  A    between atoms: N_29  and  C_30 
ROOT
HETATM    1  C   UNK N   1      35.943  13.206  10.266  0.00  0.00     0.173 C 
HETATM    2  C   UNK N   1      35.506  14.165   9.192  0.00  0.00     0.002 A 
HETATM    3  C   UNK N   1      34.318  14.900   9.324  0.00  0.00     0.043 A 
HETATM    4  C   UNK N   1      33.850  15.594   8.219  0.00  0.00     0.065 A 
HETATM    5  N   UNK N   1      34.491  15.565   7.036  0.00  0.00    -0.307 N 
HETATM    6  C   UNK N   1      35.673  14.888   6.868  0.00  0.00     0.257 A 
HETATM    7  O   UNK N   1      36.232  14.882   5.784  0.00  0.00    -0.267 OA
HETATM    8  C   UNK N   1      36.198  14.161   7.955  0.00  0.00     0.044 A 
HETATM    9  C   UNK N   1      37.461  13.338   7.803  0.00  0.00     0.224 C 
HETATM   10  O   UNK N   1      38.078  13.046   9.016  0.00  0.00    -0.314 OA
HETATM   11  C   UNK N   1      37.450  13.119  10.219  0.00  0.00     0.298 C 
HETATM   12  O   UNK N   1      38.114  13.132  11.243  0.00  0.00    -0.261 OA
HETATM   13  C   UNK N   1      33.717  16.265   5.995  0.00  0.00     0.174 A 
HETATM   14  C   UNK N   1      32.477  16.654   6.776  0.00  0.00    -0.004 A 
HETATM   15  C   UNK N   1      32.616  16.288   8.088  0.00  0.00     0.068 A 
HETATM   16  N   UNK N   1      31.655  16.486   9.019  0.00  0.00    -0.353 N 
ATOM     17  HN  UNK N   1      31.805  16.196   9.985  1.00  0.00     0.166 HD
HETATM   18  C   UNK N   1      30.484  17.076   8.651  0.00  0.00     0.043 A 
HETATM   19  C   UNK N   1      29.477  17.264   9.600  0.00  0.00     0.030 A 
HETATM   20  C   UNK N   1      28.255  17.824   9.224  0.00  0.00     0.002 A 
HETATM   21  C   UNK N   1      28.031  18.195   7.895  0.00  0.00     0.001 A 
HETATM   22  C   UNK N   1      29.029  18.015   6.933  0.00  0.00     0.014 A 
HETATM   23  C   UNK N   1      30.265  17.459   7.293  0.00  0.00    -0.002 A 
HETATM   24  C   UNK N   1      31.285  17.243   6.333  0.00  0.00    -0.034 A 
HETATM   25  O   UNK N   1      35.433  11.956   9.902  0.00  0.00    -0.375 OA
HETATM   26  H   UNK N   1      35.008  11.116   9.668  0.00  0.00     0.211 HD
ENDROOT
BRANCH   1  27
HETATM   27  C   UNK N   1      35.383  13.585  11.651  0.00  0.00     0.049 C 
HETATM   28  C   UNK N   1      34.981  12.374  12.479  0.00  0.00     0.009 C 
ENDBRANCH   1  27
BRANCH  24  29
HETATM   29  C   UNK N   1      31.056  17.548   4.877  0.00  0.00     0.059 C 
BRANCH  29  30
HETATM   30  C   UNK N   1      30.513  16.373   4.090  0.00  0.00     0.118 C 
BRANCH  30  31
HETATM   31  N   UNK N   1      29.656  16.891   3.035  0.00  0.00    -0.417 N 
HETATM   32  H   UNK N   1      29.938  17.526   2.288  0.00  0.00     0.153 HD
BRANCH  31  33
HETATM   33  C   UNK N   1      28.327  16.338   3.235  0.00  0.00     0.068 C 
HETATM   34  C   UNK N   1      27.399  17.423   3.738  0.00  0.00     0.031 C 
HETATM   35  C   UNK N   1      28.393  15.224   4.260  0.00  0.00     0.031 C 
ENDBRANCH  31  33
ENDBRANCH  30  31
ENDBRANCH  29  30
ENDBRANCH  24  29
TORSDOF 5
ENDMDL
MODEL 4
REMARK VINA RESULT:      -7.5     16.483     20.439
REMARK  5 active torsions:
REMARK  status: ('A' for Active; 'I' for Inactive)
REMARK    1  A    between atoms: C_3  and  C_2 
REMARK    2  A    between atoms: C_26  and  C_27 
REMARK    3  A    between atoms: C_27  and  C_28 
REMARK    4  A    between atoms: C_28  and  N_29 
REMARK    5  A    between atoms: N_29  and  C_30 
ROOT
HETATM    1  C   UNK N   1      33.846  19.804  -6.201  0.00  0.00     0.173 C 
HETATM    2  C   UNK N   1      32.669  20.406  -5.482  0.00  0.00     0.002 A 
HETATM    3  C   UNK N   1      31.484  20.709  -6.170  0.00  0.00     0.043 A 
HETATM    4  C   UNK N   1      30.520  21.461  -5.517  0.00  0.00     0.065 A 
HETATM    5  N   UNK N   1      30.699  21.912  -4.261  0.00  0.00    -0.307 N 
HETATM    6  C   UNK N   1      31.826  21.613  -3.537  0.00  0.00     0.257 A 
HETATM    7  O   UNK N   1      31.959  22.035  -2.401  0.00  0.00    -0.267 OA
HETATM    8  C   UNK N   1      32.844  20.854  -4.149  0.00  0.00     0.044 A 
HETATM    9  C   UNK N   1      34.138  20.558  -3.419  0.00  0.00     0.224 C 
HETATM   10  O   UNK N   1      34.834  19.476  -3.951  0.00  0.00    -0.314 OA
HETATM   11  C   UNK N   1      34.625  18.984  -5.201  0.00  0.00     0.298 C 
HETATM   12  O   UNK N   1      35.054  17.879  -5.491  0.00  0.00    -0.261 OA
HETATM   13  C   UNK N   1      29.594  22.797  -3.853  0.00  0.00     0.174 A 
HETATM   14  C   UNK N   1      28.768  22.827  -5.124  0.00  0.00    -0.004 A 
HETATM   15  C   UNK N   1      29.317  21.990  -6.058  0.00  0.00     0.068 A 
HETATM   16  N   UNK N   1      28.808  21.830  -7.301  0.00  0.00    -0.353 N 
ATOM     17  HN  UNK N   1      29.252  21.195  -7.963  1.00  0.00     0.166 HD
HETATM   18  C   UNK N   1      27.695  22.530  -7.659  0.00  0.00     0.043 A 
HETATM   19  C   UNK N   1      27.176  22.389  -8.947  0.00  0.00     0.030 A 
HETATM   20  C   UNK N   1      26.064  23.137  -9.341  0.00  0.00     0.002 A 
HETATM   21  C   UNK N   1      25.469  24.034  -8.449  0.00  0.00     0.001 A 
HETATM   22  C   UNK N   1      25.976  24.186  -7.154  0.00  0.00     0.014 A 
HETATM   23  C   UNK N   1      27.088  23.439  -6.740  0.00  0.00    -0.002 A 
HETATM   24  C   UNK N   1      27.637  23.590  -5.442  0.00  0.00    -0.034 A 
HETATM   25  O   UNK N   1      34.652  20.878  -6.592  0.00  0.00    -0.375 OA
HETATM   26  H   UNK N   1      35.157  21.641  -6.915  0.00  0.00     0.211 HD
ENDROOT
BRANCH   1  27
HETATM   27  C   UNK N   1      33.424  19.019  -7.458  0.00  0.00     0.049 C 
HETATM   28  C   UNK N   1      34.173  19.455  -8.708  0.00  0.00     0.009 C 
ENDBRANCH   1  27
BRANCH  24  29
HETATM   29  C   UNK N   1      27.082  24.606  -4.480  0.00  0.00     0.059 C 
BRANCH  29  30
HETATM   30  C   UNK N   1      27.853  25.910  -4.462  0.00  0.00     0.118 C 
BRANCH  30  31
HETATM   31  N   UNK N   1      27.091  26.898  -5.211  0.00  0.00    -0.417 N 
HETATM   32  H   UNK N   1      27.414  27.412  -6.031  0.00  0.00     0.153 HD
BRANCH  31  33
HETATM   33  C   UNK N   1      25.788  27.019  -4.580  0.00  0.00     0.068 C 
HETATM   34  C   UNK N   1      24.727  27.209  -5.643  0.00  0.00     0.031 C 
HETATM   35  C   UNK N   1      25.785  28.218  -3.653  0.00  0.00     0.031 C 
ENDBRANCH  31  33
ENDBRANCH  30  31
ENDBRANCH  29  30
ENDBRANCH  24  29
TORSDOF 5
ENDMDL
MODEL 5
REMARK VINA RESULT:      -7.4      3.581      9.092
REMARK  5 active torsions:
REMARK  status: ('A' for Active; 'I' for Inactive)
REMARK    1  A    between atoms: C_3  and  C_2 
REMARK    2  A    between atoms: C_26  and  C_27 
REMARK    3  A    between atoms: C_27  and  C_28 
REMARK    4  A    between atoms: C_28  and  N_29 
REMARK    5  A    between atoms: N_29  and  C_30 
ROOT
HETATM    1  C   UNK N   1      35.409  13.103  11.164  0.00  0.00     0.173 C 
HETATM    2  C   UNK N   1      34.794  13.466   9.839  0.00  0.00     0.002 A 
HETATM    3  C   UNK N   1      33.876  14.523   9.738  0.00  0.00     0.043 A 
HETATM    4  C   UNK N   1      33.176  14.672   8.551  0.00  0.00     0.065 A 
HETATM    5  N   UNK N   1      33.343  13.828   7.515  0.00  0.00    -0.307 N 
HETATM    6  C   UNK N   1      34.252  12.800   7.556  0.00  0.00     0.257 A 
HETATM    7  O   UNK N   1      34.382  12.054   6.601  0.00  0.00    -0.267 OA
HETATM    8  C   UNK N   1      34.992  12.597   8.737  0.00  0.00     0.044 A 
HETATM    9  C   UNK N   1      35.956  11.434   8.861  0.00  0.00     0.224 C 
HETATM   10  O   UNK N   1      36.901  11.607   9.868  0.00  0.00    -0.314 OA
HETATM   11  C   UNK N   1      36.761  12.491  10.891  0.00  0.00     0.298 C 
HETATM   12  O   UNK N   1      37.736  12.792  11.561  0.00  0.00    -0.261 OA
HETATM   13  C   UNK N   1      32.384  14.119   6.434  0.00  0.00     0.174 A 
HETATM   14  C   UNK N   1      31.588  15.249   7.055  0.00  0.00    -0.004 A 
HETATM   15  C   UNK N   1      32.116  15.578   8.275  0.00  0.00     0.068 A 
HETATM   16  N   UNK N   1      31.597  16.538   9.074  0.00  0.00    -0.353 N 
ATOM     17  HN  UNK N   1      32.025  16.747   9.975  1.00  0.00     0.166 HD
HETATM   18  C   UNK N   1      30.492  17.221   8.661  0.00  0.00     0.043 A 
HETATM   19  C   UNK N   1      29.936  18.198   9.489  0.00  0.00     0.030 A 
HETATM   20  C   UNK N   1      28.776  18.870   9.097  0.00  0.00     0.002 A 
HETATM   21  C   UNK N   1      28.165  18.566   7.878  0.00  0.00     0.001 A 
HETATM   22  C   UNK N   1      28.711  17.592   7.036  0.00  0.00     0.014 A 
HETATM   23  C   UNK N   1      29.878  16.910   7.411  0.00  0.00    -0.002 A 
HETATM   24  C   UNK N   1      30.439  15.901   6.588  0.00  0.00    -0.034 A 
HETATM   25  O   UNK N   1      34.594  12.107  11.711  0.00  0.00    -0.375 OA
HETATM   26  H   UNK N   1      33.974  11.471  12.102  0.00  0.00     0.211 HD
ENDROOT
BRANCH   1  27
HETATM   27  C   UNK N   1      35.449  14.298  12.136  0.00  0.00     0.049 C 
HETATM   28  C   UNK N   1      35.551  13.873  13.594  0.00  0.00     0.009 C 
ENDBRANCH   1  27
BRANCH  24  29
HETATM   29  C   UNK N   1      29.767  15.482   5.309  0.00  0.00     0.059 C 
BRANCH  29  30
HETATM   30  C   UNK N   1      30.215  16.277   4.099  0.00  0.00     0.118 C 
BRANCH  30  31
HETATM   31  N   UNK N   1      31.289  15.544   3.447  0.00  0.00    -0.417 N 
HETATM   32  H   UNK N   1      31.338  14.533   3.320  0.00  0.00     0.153 HD
BRANCH  31  33
HETATM   33  C   UNK N   1      32.279  16.513   3.009  0.00  0.00     0.068 C 
HETATM   34  C   UNK N   1      33.614  15.824   2.823  0.00  0.00     0.031 C 
HETATM   35  C   UNK N   1      32.421  17.600   4.055  0.00  0.00     0.031 C 
ENDBRANCH  31  33
ENDBRANCH  30  31
ENDBRANCH  29  30
ENDBRANCH  24  29
TORSDOF 5
ENDMDL
MODEL 6
REMARK VINA RESULT:      -7.4      2.853      5.757
REMARK  5 active torsions:
REMARK  status: ('A' for Active; 'I' for Inactive)
REMARK    1  A    between atoms: C_3  and  C_2 
REMARK    2  A    between atoms: C_26  and  C_27 
REMARK    3  A    between atoms: C_27  and  C_28 
REMARK    4  A    between atoms: C_28  and  N_29 
REMARK    5  A    between atoms: N_29  and  C_30 
ROOT
HETATM    1  C   UNK N   1      35.304  14.313  10.108  0.00  0.00     0.173 C 
HETATM    2  C   UNK N   1      35.083  13.088  10.953  0.00  0.00     0.002 A 
HETATM    3  C   UNK N   1      34.937  13.191  12.345  0.00  0.00     0.043 A 
HETATM    4  C   UNK N   1      34.960  12.025  13.095  0.00  0.00     0.065 A 
HETATM    5  N   UNK N   1      35.131  10.817  12.527  0.00  0.00    -0.307 N 
HETATM    6  C   UNK N   1      35.245  10.663  11.167  0.00  0.00     0.257 A 
HETATM    7  O   UNK N   1      35.397   9.555  10.682  0.00  0.00    -0.267 OA
HETATM    8  C   UNK N   1      35.232  11.813  10.352  0.00  0.00     0.044 A 
HETATM    9  C   UNK N   1      35.425  11.706   8.853  0.00  0.00     0.224 C 
HETATM   10  O   UNK N   1      34.967  12.820   8.158  0.00  0.00    -0.314 OA
HETATM   11  C   UNK N   1      34.746  14.032   8.734  0.00  0.00     0.298 C 
HETATM   12  O   UNK N   1      34.083  14.867   8.140  0.00  0.00    -0.261 OA
HETATM   13  C   UNK N   1      35.258   9.763  13.549  0.00  0.00     0.174 A 
HETATM   14  C   UNK N   1      35.189  10.588  14.819  0.00  0.00    -0.004 A 
HETATM   15  C   UNK N   1      34.962  11.902  14.511  0.00  0.00     0.068 A 
HETATM   16  N   UNK N   1      34.878  12.879  15.443  0.00  0.00    -0.353 N 
ATOM     17  HN  UNK N   1      34.708  13.845  15.164  1.00  0.00     0.166 HD
HETATM   18  C   UNK N   1      35.025  12.557  16.758  0.00  0.00     0.043 A 
HETATM   19  C   UNK N   1      34.961  13.562  17.726  0.00  0.00     0.030 A 
HETATM   20  C   UNK N   1      35.158  13.251  19.073  0.00  0.00     0.002 A 
HETATM   21  C   UNK N   1      35.423  11.934  19.459  0.00  0.00     0.001 A 
HETATM   22  C   UNK N   1      35.487  10.916  18.502  0.00  0.00     0.014 A 
HETATM   23  C   UNK N   1      35.287  11.208  17.146  0.00  0.00    -0.002 A 
HETATM   24  C   UNK N   1      35.371  10.200  16.153  0.00  0.00    -0.034 A 
HETATM   25  O   UNK N   1      36.690  14.454   9.983  0.00  0.00    -0.375 OA
HETATM   26  H   UNK N   1      37.653  14.572   9.972  0.00  0.00     0.211 HD
ENDROOT
BRANCH   1  27
HETATM   27  C   UNK N   1      34.735  15.586  10.764  0.00  0.00     0.049 C 
HETATM   28  C   UNK N   1      35.660  16.787  10.629  0.00  0.00     0.009 C 
ENDBRANCH   1  27
BRANCH  24  29
HETATM   29  C   UNK N   1      35.739   8.786  16.514  0.00  0.00     0.059 C 
BRANCH  29  30
HETATM   30  C   UNK N   1      37.232   8.526  16.502  0.00  0.00     0.118 C 
BRANCH  30  31
HETATM   31  N   UNK N   1      37.535   7.675  15.362  0.00  0.00    -0.417 N 
HETATM   32  H   UNK N   1      36.956   6.915  15.007  0.00  0.00     0.153 HD
BRANCH  31  33
HETATM   33  C   UNK N   1      38.812   8.106  14.819  0.00  0.00     0.068 C 
HETATM   34  C   UNK N   1      39.925   7.703  15.763  0.00  0.00     0.031 C 
HETATM   35  C   UNK N   1      38.813   9.613  14.663  0.00  0.00     0.031 C 
ENDBRANCH  31  33
ENDBRANCH  30  31
ENDBRANCH  29  30
ENDBRANCH  24  29
TORSDOF 5
ENDMDL
MODEL 7
REMARK VINA RESULT:      -7.3      7.938     11.309
REMARK  5 active torsions:
REMARK  status: ('A' for Active; 'I' for Inactive)
REMARK    1  A    between atoms: C_3  and  C_2 
REMARK    2  A    between atoms: C_26  and  C_27 
REMARK    3  A    between atoms: C_27  and  C_28 
REMARK    4  A    between atoms: C_28  and  N_29 
REMARK    5  A    between atoms: N_29  and  C_30 
ROOT
HETATM    1  C   UNK N   1      22.375  16.439   4.411  0.00  0.00     0.173 C 
HETATM    2  C   UNK N   1      23.783  15.909   4.427  0.00  0.00     0.002 A 
HETATM    3  C   UNK N   1      24.674  16.264   5.451  0.00  0.00     0.043 A 
HETATM    4  C   UNK N   1      26.012  15.933   5.300  0.00  0.00     0.065 A 
HETATM    5  N   UNK N   1      26.470  15.301   4.204  0.00  0.00    -0.307 N 
HETATM    6  C   UNK N   1      25.631  14.903   3.192  0.00  0.00     0.257 A 
HETATM    7  O   UNK N   1      26.076  14.331   2.212  0.00  0.00    -0.267 OA
HETATM    8  C   UNK N   1      24.260  15.215   3.287  0.00  0.00     0.044 A 
HETATM    9  C   UNK N   1      23.304  14.863   2.165  0.00  0.00     0.224 C 
HETATM   10  O   UNK N   1      21.972  14.832   2.567  0.00  0.00    -0.314 OA
HETATM   11  C   UNK N   1      21.510  15.427   3.699  0.00  0.00     0.298 C 
HETATM   12  O   UNK N   1      20.411  15.121   4.133  0.00  0.00    -0.261 OA
HETATM   13  C   UNK N   1      27.939  15.192   4.229  0.00  0.00     0.174 A 
HETATM   14  C   UNK N   1      28.258  15.931   5.513  0.00  0.00    -0.004 A 
HETATM   15  C   UNK N   1      27.098  16.305   6.138  0.00  0.00     0.068 A 
HETATM   16  N   UNK N   1      27.071  17.004   7.296  0.00  0.00    -0.353 N 
ATOM     17  HN  UNK N   1      26.182  17.259   7.724  1.00  0.00     0.166 HD
HETATM   18  C   UNK N   1      28.247  17.364   7.883  0.00  0.00     0.043 A 
HETATM   19  C   UNK N   1      28.229  18.104   9.066  0.00  0.00     0.030 A 
HETATM   20  C   UNK N   1      29.427  18.520   9.651  0.00  0.00     0.002 A 
HETATM   21  C   UNK N   1      30.650  18.200   9.053  0.00  0.00     0.001 A 
HETATM   22  C   UNK N   1      30.684  17.457   7.869  0.00  0.00     0.014 A 
HETATM   23  C   UNK N   1      29.492  17.027   7.270  0.00  0.00    -0.002 A 
HETATM   24  C   UNK N   1      29.497  16.293   6.057  0.00  0.00    -0.034 A 
HETATM   25  O   UNK N   1      22.406  17.598   3.629  0.00  0.00    -0.375 OA
HETATM   26  H   UNK N   1      22.466  18.437   3.145  0.00  0.00     0.211 HD
ENDROOT
BRANCH   1  27
HETATM   27  C   UNK N   1      21.873  16.807   5.821  0.00  0.00     0.049 C 
HETATM   28  C   UNK N   1      21.456  18.265   5.940  0.00  0.00     0.009 C 
ENDBRANCH   1  27
BRANCH  24  29
HETATM   29  C   UNK N   1      30.785  16.002   5.335  0.00  0.00     0.059 C 
BRANCH  29  30
HETATM   30  C   UNK N   1      31.210  17.103   4.385  0.00  0.00     0.118 C 
BRANCH  30  31
HETATM   31  N   UNK N   1      32.639  16.969   4.146  0.00  0.00    -0.417 N 
HETATM   32  H   UNK N   1      33.136  17.242   3.298  0.00  0.00     0.153 HD
BRANCH  31  33
HETATM   33  C   UNK N   1      33.230  16.378   5.334  0.00  0.00     0.068 C 
HETATM   34  C   UNK N   1      33.856  17.466   6.182  0.00  0.00     0.031 C 
HETATM   35  C   UNK N   1      34.301  15.387   4.927  0.00  0.00     0.031 C 
ENDBRANCH  31  33
ENDBRANCH  30  31
ENDBRANCH  29  30
ENDBRANCH  24  29
TORSDOF 5
ENDMDL
MODEL 8
REMARK VINA RESULT:      -7.3      6.350     11.438
REMARK  5 active torsions:
REMARK  status: ('A' for Active; 'I' for Inactive)
REMARK    1  A    between atoms: C_3  and  C_2 
REMARK    2  A    between atoms: C_26  and  C_27 
REMARK    3  A    between atoms: C_27  and  C_28 
REMARK    4  A    between atoms: C_28  and  N_29 
REMARK    5  A    between atoms: N_29  and  C_30 
ROOT
HETATM    1  C   UNK N   1      33.378  16.081   6.826  0.00  0.00     0.173 C 
HETATM    2  C   UNK N   1      32.235  15.642   5.952  0.00  0.00     0.002 A 
HETATM    3  C   UNK N   1      31.300  16.572   5.470  0.00  0.00     0.043 A 
HETATM    4  C   UNK N   1      30.152  16.091   4.861  0.00  0.00     0.065 A 
HETATM    5  N   UNK N   1      29.910  14.773   4.737  0.00  0.00    -0.307 N 
HETATM    6  C   UNK N   1      30.810  13.827   5.162  0.00  0.00     0.257 A 
HETATM    7  O   UNK N   1      30.563  12.640   5.034  0.00  0.00    -0.267 OA
HETATM    8  C   UNK N   1      31.995  14.254   5.793  0.00  0.00     0.044 A 
HETATM    9  C   UNK N   1      32.988  13.251   6.346  0.00  0.00     0.224 C 
HETATM   10  O   UNK N   1      34.260  13.782   6.534  0.00  0.00    -0.314 OA
HETATM   11  C   UNK N   1      34.518  15.115   6.612  0.00  0.00     0.298 C 
HETATM   12  O   UNK N   1      35.666  15.512   6.489  0.00  0.00    -0.261 OA
HETATM   13  C   UNK N   1      28.566  14.529   4.184  0.00  0.00     0.174 A 
HETATM   14  C   UNK N   1      28.046  15.948   4.065  0.00  0.00    -0.004 A 
HETATM   15  C   UNK N   1      29.024  16.836   4.422  0.00  0.00     0.068 A 
HETATM   16  N   UNK N   1      28.839  18.176   4.439  0.00  0.00    -0.353 N 
ATOM     17  HN  UNK N   1      29.599  18.799   4.713  1.00  0.00     0.166 HD
HETATM   18  C   UNK N   1      27.626  18.685   4.086  0.00  0.00     0.043 A 
HETATM   19  C   UNK N   1      27.419  20.065   4.120  0.00  0.00     0.030 A 
HETATM   20  C   UNK N   1      26.165  20.594   3.807  0.00  0.00     0.002 A 
HETATM   21  C   UNK N   1      25.110  19.745   3.460  0.00  0.00     0.001 A 
HETATM   22  C   UNK N   1      25.302  18.360   3.419  0.00  0.00     0.014 A 
HETATM   23  C   UNK N   1      26.555  17.811   3.725  0.00  0.00    -0.002 A 
HETATM   24  C   UNK N   1      26.770  16.410   3.714  0.00  0.00    -0.034 A 
HETATM   25  O   UNK N   1      32.937  15.933   8.145  0.00  0.00    -0.375 OA
HETATM   26  H   UNK N   1      32.584  15.891   9.048  0.00  0.00     0.211 HD
ENDROOT
BRANCH   1  27
HETATM   27  C   UNK N   1      33.759  17.556   6.595  0.00  0.00     0.049 C 
HETATM   28  C   UNK N   1      33.981  18.321   7.891  0.00  0.00     0.009 C 
ENDBRANCH   1  27
BRANCH  24  29
HETATM   29  C   UNK N   1      25.642  15.456   3.432  0.00  0.00     0.059 C 
BRANCH  29  30
HETATM   30  C   UNK N   1      24.824  15.103   4.657  0.00  0.00     0.118 C 
BRANCH  30  31
HETATM   31  N   UNK N   1      23.522  14.630   4.213  0.00  0.00    -0.417 N 
HETATM   32  H   UNK N   1      23.343  13.795   3.655  0.00  0.00     0.153 HD
BRANCH  31  33
HETATM   33  C   UNK N   1      22.522  15.560   4.710  0.00  0.00     0.068 C 
HETATM   34  C   UNK N   1      22.075  16.470   3.586  0.00  0.00     0.031 C 
HETATM   35  C   UNK N   1      23.120  16.398   5.822  0.00  0.00     0.031 C 
ENDBRANCH  31  33
ENDBRANCH  30  31
ENDBRANCH  29  30
ENDBRANCH  24  29
TORSDOF 5
ENDMDL
MODEL 9
REMARK VINA RESULT:      -7.1      7.477     10.121
REMARK  5 active torsions:
REMARK  status: ('A' for Active; 'I' for Inactive)
REMARK    1  A    between atoms: C_3  and  C_2 
REMARK    2  A    between atoms: C_26  and  C_27 
REMARK    3  A    between atoms: C_27  and  C_28 
REMARK    4  A    between atoms: C_28  and  N_29 
REMARK    5  A    between atoms: N_29  and  C_30 
ROOT
HETATM    1  C   UNK N   1      30.670  11.939   1.422  0.00  0.00     0.173 C 
HETATM    2  C   UNK N   1      30.028  13.030   2.237  0.00  0.00     0.002 A 
HETATM    3  C   UNK N   1      30.810  13.919   2.991  0.00  0.00     0.043 A 
HETATM    4  C   UNK N   1      30.168  14.755   3.891  0.00  0.00     0.065 A 
HETATM    5  N   UNK N   1      28.834  14.724   4.065  0.00  0.00    -0.307 N 
HETATM    6  C   UNK N   1      28.025  13.895   3.327  0.00  0.00     0.257 A 
HETATM    7  O   UNK N   1      26.819  13.891   3.506  0.00  0.00    -0.267 OA
HETATM    8  C   UNK N   1      28.620  13.019   2.397  0.00  0.00     0.044 A 
HETATM    9  C   UNK N   1      27.781  12.034   1.609  0.00  0.00     0.224 C 
HETATM   10  O   UNK N   1      28.415  11.564   0.463  0.00  0.00    -0.314 OA
HETATM   11  C   UNK N   1      29.757  11.636   0.259  0.00  0.00     0.298 C 
HETATM   12  O   UNK N   1      30.202  11.474  -0.866  0.00  0.00    -0.261 OA
HETATM   13  C   UNK N   1      28.422  15.606   5.171  0.00  0.00     0.174 A 
HETATM   14  C   UNK N   1      29.769  16.111   5.649  0.00  0.00    -0.004 A 
HETATM   15  C   UNK N   1      30.763  15.630   4.840  0.00  0.00     0.068 A 
HETATM   16  N   UNK N   1      32.074  15.895   5.038  0.00  0.00    -0.353 N 
ATOM     17  HN  UNK N   1      32.779  15.514   4.408  1.00  0.00     0.166 HD
HETATM   18  C   UNK N   1      32.443  16.676   6.092  0.00  0.00     0.043 A 
HETATM   19  C   UNK N   1      33.796  16.937   6.318  0.00  0.00     0.030 A 
HETATM   20  C   UNK N   1      34.189  17.697   7.422  0.00  0.00     0.002 A 
HETATM   21  C   UNK N   1      33.230  18.196   8.308  0.00  0.00     0.001 A 
HETATM   22  C   UNK N   1      31.871  17.946   8.094  0.00  0.00     0.014 A 
HETATM   23  C   UNK N   1      31.458  17.190   6.989  0.00  0.00    -0.002 A 
HETATM   24  C   UNK N   1      30.089  16.901   6.762  0.00  0.00    -0.034 A 
HETATM   25  O   UNK N   1      30.700  10.808   2.245  0.00  0.00    -0.375 OA
HETATM   26  H   UNK N   1      30.777  10.060   2.857  0.00  0.00     0.211 HD
ENDROOT
BRANCH   1  27
HETATM   27  C   UNK N   1      32.112  12.289   1.009  0.00  0.00     0.049 C 
HETATM   28  C   UNK N   1      33.127  11.248   1.456  0.00  0.00     0.009 C 
ENDBRANCH   1  27
BRANCH  24  29
HETATM   29  C   UNK N   1      29.031  17.345   7.736  0.00  0.00     0.059 C 
BRANCH  29  30
HETATM   30  C   UNK N   1      28.478  18.725   7.444  0.00  0.00     0.118 C 
BRANCH  30  31
HETATM   31  N   UNK N   1      27.191  18.567   6.783  0.00  0.00    -0.417 N 
HETATM   32  H   UNK N   1      26.500  17.842   6.976  0.00  0.00     0.153 HD
BRANCH  31  33
HETATM   33  C   UNK N   1      27.069  19.628   5.798  0.00  0.00     0.068 C 
HETATM   34  C   UNK N   1      28.007  19.355   4.641  0.00  0.00     0.031 C 
HETATM   35  C   UNK N   1      27.437  20.953   6.435  0.00  0.00     0.031 C 
ENDBRANCH  31  33
ENDBRANCH  30  31
ENDBRANCH  29  30
ENDBRANCH  24  29
TORSDOF 5
ENDMDL
