MODEL 1
REMARK VINA RESULT:      -6.8      0.000      0.000
REMARK  8 active torsions:
REMARK  status: ('A' for Active; 'I' for Inactive)
REMARK    1  A    between atoms: C_2  and  C_3 
REMARK    2  A    between atoms: C_3  and  C_4 
REMARK    3  A    between atoms: C_4  and  C_5 
REMARK    4  A    between atoms: C_5  and  S_6 
REMARK    5  A    between atoms: S_6  and  N_9 
REMARK       I    between atoms: N_9  and  C_10 
REMARK    6  A    between atoms: C_10  and  C_12 
REMARK    7  A    between atoms: N_18  and  C_23 
REMARK    8  A    between atoms: C_23  and  C_24 
ROOT
HETATM    1  C   UNK N   1      33.863  17.076   7.288  0.00  0.00     0.035 A 
HETATM    2  C   UNK N   1      34.703  16.453   6.323  0.00  0.00     0.019 A 
HETATM    3  C   UNK N   1      34.145  15.748   5.229  0.00  0.00     0.033 A 
HETATM    4  C   UNK N   1      32.754  15.687   5.143  0.00  0.00     0.060 A 
HETATM    5  C   UNK N   1      31.956  16.261   6.080  0.00  0.00     0.064 A 
HETATM    6  C   UNK N   1      32.465  16.978   7.149  0.00  0.00     0.049 A 
HETATM    7  N   UNK N   1      30.676  15.996   5.794  0.00  0.00    -0.331 N 
HETATM    8  C   UNK N   1      30.718  15.273   4.646  0.00  0.00     0.080 A 
HETATM    9  N   UNK N   1      31.994  15.064   4.218  0.00  0.00    -0.344 N 
ATOM     10  HN  UNK N   1      32.303  14.554   3.390  1.00  0.00     0.167 HD
HETATM   11  C   UNK N   1      29.521  14.713   3.958  0.00  0.00     0.089 C 
ENDROOT
BRANCH   1  12
HETATM   12  C   UNK N   1      34.388  17.950   8.369  0.00  0.00     0.265 C 
HETATM   13  N   UNK N   1      35.024  17.510   9.490  0.00  0.00    -0.250 N 
HETATM   14  H   UNK N   1      35.500  18.201  10.004  0.00  0.00     0.181 HD
HETATM   15  O   UNK N   1      34.209  19.153   8.258  0.00  0.00    -0.267 OA
BRANCH  13  16
HETATM   16  S   UNK N   1      35.113  15.877  10.150  0.00  0.00     0.233 S 
HETATM   17  O   UNK N   1      36.533  16.345  10.514  0.00  0.00    -0.206 OA
HETATM   18  O   UNK N   1      34.913  15.871  11.671  0.00  0.00    -0.206 OA
BRANCH  16  19
HETATM   19  C   UNK N   1      36.216  14.631   9.420  0.00  0.00     0.163 C 
BRANCH  19  20
HETATM   20  C   UNK N   1      35.446  13.573   8.663  0.00  0.00     0.017 C 
BRANCH  20  21
HETATM   21  C   UNK N   1      33.980  13.709   9.026  0.00  0.00     0.001 C 
BRANCH  21  22
HETATM   22  C   UNK N   1      33.109  13.255   7.874  0.00  0.00    -0.005 C 
HETATM   23  C   UNK N   1      33.942  12.437   6.909  0.00  0.00     0.005 C 
ENDBRANCH  21  22
ENDBRANCH  20  21
ENDBRANCH  19  20
ENDBRANCH  16  19
ENDBRANCH  13  16
ENDBRANCH   1  12
BRANCH   7  24
HETATM   24  C   UNK N   1      29.537  16.323   6.648  0.00  0.00     0.171 C 
BRANCH  24  25
HETATM   25  C   UNK N   1      28.964  17.692   6.459  0.00  0.00    -0.018 A 
HETATM   26  C   UNK N   1      28.776  18.201   5.169  0.00  0.00     0.012 A 
HETATM   27  C   UNK N   1      28.135  19.430   4.986  0.00  0.00     0.024 A 
HETATM   28  C   UNK N   1      27.674  20.152   6.091  0.00  0.00     0.035 A 
HETATM   29  C   UNK N   1      27.865  19.652   7.380  0.00  0.00     0.048 A 
HETATM   30 Cl   UNK N   1      26.830  21.669   5.862  0.00  0.00    -0.084 Cl
HETATM   31  C   UNK N   1      28.506  18.425   7.572  0.00  0.00     0.043 A 
HETATM   32 Cl   UNK N   1      28.689  17.817   9.210  0.00  0.00    -0.084 Cl
ENDBRANCH  24  25
ENDBRANCH   7  24
TORSDOF 8
ENDMDL
MODEL 2
REMARK VINA RESULT:      -6.6     12.839     15.557
REMARK  8 active torsions:
REMARK  status: ('A' for Active; 'I' for Inactive)
REMARK    1  A    between atoms: C_2  and  C_3 
REMARK    2  A    between atoms: C_3  and  C_4 
REMARK    3  A    between atoms: C_4  and  C_5 
REMARK    4  A    between atoms: C_5  and  S_6 
REMARK    5  A    between atoms: S_6  and  N_9 
REMARK       I    between atoms: N_9  and  C_10 
REMARK    6  A    between atoms: C_10  and  C_12 
REMARK    7  A    between atoms: N_18  and  C_23 
REMARK    8  A    between atoms: C_23  and  C_24 
ROOT
HETATM    1  C   UNK N   1      29.835  23.945  -3.450  0.00  0.00     0.035 A 
HETATM    2  C   UNK N   1      30.447  25.223  -3.574  0.00  0.00     0.019 A 
HETATM    3  C   UNK N   1      29.816  26.256  -4.310  0.00  0.00     0.033 A 
HETATM    4  C   UNK N   1      28.587  25.967  -4.905  0.00  0.00     0.060 A 
HETATM    5  C   UNK N   1      28.020  24.736  -4.806  0.00  0.00     0.064 A 
HETATM    6  C   UNK N   1      28.596  23.711  -4.076  0.00  0.00     0.049 A 
HETATM    7  N   UNK N   1      26.889  24.713  -5.520  0.00  0.00    -0.331 N 
HETATM    8  C   UNK N   1      26.771  25.965  -6.029  0.00  0.00     0.080 A 
HETATM    9  N   UNK N   1      27.810  26.766  -5.665  0.00  0.00    -0.344 N 
ATOM     10  HN  UNK N   1      27.966  27.745  -5.911  1.00  0.00     0.167 HD
HETATM   11  C   UNK N   1      25.672  26.409  -6.932  0.00  0.00     0.089 C 
ENDROOT
BRANCH   1  12
HETATM   12  C   UNK N   1      30.376  22.874  -2.572  0.00  0.00     0.265 C 
HETATM   13  N   UNK N   1      31.047  21.772  -3.007  0.00  0.00    -0.250 N 
HETATM   14  H   UNK N   1      31.528  21.269  -2.310  0.00  0.00     0.181 HD
HETATM   15  O   UNK N   1      30.177  22.977  -1.372  0.00  0.00    -0.267 OA
BRANCH  13  16
HETATM   16  S   UNK N   1      31.178  21.120  -4.640  0.00  0.00     0.233 S 
HETATM   17  O   UNK N   1      32.647  21.532  -4.445  0.00  0.00    -0.206 OA
HETATM   18  O   UNK N   1      31.757  19.700  -4.637  0.00  0.00    -0.206 OA
BRANCH  16  19
HETATM   19  C   UNK N   1      31.549  22.200  -6.053  0.00  0.00     0.163 C 
BRANCH  19  20
HETATM   20  C   UNK N   1      30.382  22.299  -7.009  0.00  0.00     0.017 C 
BRANCH  20  21
HETATM   21  C   UNK N   1      29.492  21.091  -6.789  0.00  0.00     0.001 C 
BRANCH  21  22
HETATM   22  C   UNK N   1      29.445  20.238  -8.037  0.00  0.00    -0.005 C 
HETATM   23  C   UNK N   1      29.282  18.784  -7.644  0.00  0.00     0.005 C 
ENDBRANCH  21  22
ENDBRANCH  20  21
ENDBRANCH  19  20
ENDBRANCH  16  19
ENDBRANCH  13  16
ENDBRANCH   1  12
BRANCH   7  24
HETATM   24  C   UNK N   1      26.077  23.524  -5.772  0.00  0.00     0.171 C 
BRANCH  24  25
HETATM   25  C   UNK N   1      26.177  22.959  -7.153  0.00  0.00    -0.018 A 
HETATM   26  C   UNK N   1      27.123  23.466  -8.051  0.00  0.00     0.012 A 
HETATM   27  C   UNK N   1      27.298  22.864  -9.301  0.00  0.00     0.024 A 
HETATM   28  C   UNK N   1      26.532  21.750  -9.655  0.00  0.00     0.035 A 
HETATM   29  C   UNK N   1      25.582  21.244  -8.766  0.00  0.00     0.048 A 
HETATM   30 Cl   UNK N   1      26.781  20.966 -11.201  0.00  0.00    -0.084 Cl
HETATM   31  C   UNK N   1      25.401  21.840  -7.516  0.00  0.00     0.043 A 
HETATM   32 Cl   UNK N   1      24.222  21.146  -6.413  0.00  0.00    -0.084 Cl
ENDBRANCH  24  25
ENDBRANCH   7  24
TORSDOF 8
ENDMDL
MODEL 3
REMARK VINA RESULT:      -6.6      7.276     10.740
REMARK  8 active torsions:
REMARK  status: ('A' for Active; 'I' for Inactive)
REMARK    1  A    between atoms: C_2  and  C_3 
REMARK    2  A    between atoms: C_3  and  C_4 
REMARK    3  A    between atoms: C_4  and  C_5 
REMARK    4  A    between atoms: C_5  and  S_6 
REMARK    5  A    between atoms: S_6  and  N_9 
REMARK       I    between atoms: N_9  and  C_10 
REMARK    6  A    between atoms: C_10  and  C_12 
REMARK    7  A    between atoms: N_18  and  C_23 
REMARK    8  A    between atoms: C_23  and  C_24 
ROOT
HETATM    1  C   UNK N   1      23.274  17.332   4.327  0.00  0.00     0.035 A 
HETATM    2  C   UNK N   1      22.870  16.129   3.683  0.00  0.00     0.019 A 
HETATM    3  C   UNK N   1      23.831  15.262   3.108  0.00  0.00     0.033 A 
HETATM    4  C   UNK N   1      25.172  15.636   3.195  0.00  0.00     0.060 A 
HETATM    5  C   UNK N   1      25.550  16.799   3.787  0.00  0.00     0.064 A 
HETATM    6  C   UNK N   1      24.642  17.659   4.380  0.00  0.00     0.049 A 
HETATM    7  N   UNK N   1      26.875  16.942   3.672  0.00  0.00    -0.331 N 
HETATM    8  C   UNK N   1      27.292  15.827   3.022  0.00  0.00     0.080 A 
HETATM    9  N   UNK N   1      26.258  14.997   2.712  0.00  0.00    -0.344 N 
ATOM     10  HN  UNK N   1      26.295  14.100   2.226  1.00  0.00     0.167 HD
HETATM   11  C   UNK N   1      28.704  15.556   2.631  0.00  0.00     0.089 C 
ENDROOT
BRANCH   1  12
HETATM   12  C   UNK N   1      22.328  18.203   5.073  0.00  0.00     0.265 C 
HETATM   13  N   UNK N   1      21.508  19.131   4.507  0.00  0.00    -0.250 N 
HETATM   14  H   UNK N   1      20.793  19.474   5.091  0.00  0.00     0.181 HD
HETATM   15  O   UNK N   1      22.308  18.099   6.289  0.00  0.00    -0.267 OA
BRANCH  13  16
HETATM   16  S   UNK N   1      21.545  19.803   2.878  0.00  0.00     0.233 S 
HETATM   17  O   UNK N   1      20.146  20.291   3.291  0.00  0.00    -0.206 OA
HETATM   18  O   UNK N   1      21.880  21.300   2.891  0.00  0.00    -0.206 OA
BRANCH  16  19
HETATM   19  C   UNK N   1      20.434  19.180   1.582  0.00  0.00     0.163 C 
BRANCH  19  20
HETATM   20  C   UNK N   1      19.989  17.761   1.856  0.00  0.00     0.017 C 
BRANCH  20  21
HETATM   21  C   UNK N   1      20.075  16.984   0.556  0.00  0.00     0.001 C 
BRANCH  21  22
HETATM   22  C   UNK N   1      20.441  15.542   0.830  0.00  0.00    -0.005 C 
HETATM   23  C   UNK N   1      19.774  15.090   2.113  0.00  0.00     0.005 C 
ENDBRANCH  21  22
ENDBRANCH  20  21
ENDBRANCH  19  20
ENDBRANCH  16  19
ENDBRANCH  13  16
ENDBRANCH   1  12
BRANCH   7  24
HETATM   24  C   UNK N   1      27.630  18.132   4.059  0.00  0.00     0.171 C 
BRANCH  24  25
HETATM   25  C   UNK N   1      28.037  18.195   5.497  0.00  0.00    -0.018 A 
HETATM   26  C   UNK N   1      28.937  17.256   6.013  0.00  0.00     0.012 A 
HETATM   27  C   UNK N   1      29.409  17.381   7.324  0.00  0.00     0.024 A 
HETATM   28  C   UNK N   1      28.986  18.448   8.121  0.00  0.00     0.035 A 
HETATM   29  C   UNK N   1      28.083  19.384   7.614  0.00  0.00     0.048 A 
HETATM   30 Cl   UNK N   1      29.610  18.633   9.747  0.00  0.00    -0.084 Cl
HETATM   31  C   UNK N   1      27.607  19.266   6.306  0.00  0.00     0.043 A 
HETATM   32 Cl   UNK N   1      26.501  20.489   5.698  0.00  0.00    -0.084 Cl
ENDBRANCH  24  25
ENDBRANCH   7  24
TORSDOF 8
ENDMDL
MODEL 4
REMARK VINA RESULT:      -6.6      6.612      9.336
REMARK  8 active torsions:
REMARK  status: ('A' for Active; 'I' for Inactive)
REMARK    1  A    between atoms: C_2  and  C_3 
REMARK    2  A    between atoms: C_3  and  C_4 
REMARK    3  A    between atoms: C_4  and  C_5 
REMARK    4  A    between atoms: C_5  and  S_6 
REMARK    5  A    between atoms: S_6  and  N_9 
REMARK       I    between atoms: N_9  and  C_10 
REMARK    6  A    between atoms: C_10  and  C_12 
REMARK    7  A    between atoms: N_18  and  C_23 
REMARK    8  A    between atoms: C_23  and  C_24 
ROOT
HETATM    1  C   UNK N   1      23.995  15.361   5.307  0.00  0.00     0.035 A 
HETATM    2  C   UNK N   1      23.505  15.037   4.011  0.00  0.00     0.019 A 
HETATM    3  C   UNK N   1      24.389  14.942   2.909  0.00  0.00     0.033 A 
HETATM    4  C   UNK N   1      25.743  15.181   3.146  0.00  0.00     0.060 A 
HETATM    5  C   UNK N   1      26.203  15.516   4.379  0.00  0.00     0.064 A 
HETATM    6  C   UNK N   1      25.372  15.595   5.484  0.00  0.00     0.049 A 
HETATM    7  N   UNK N   1      27.517  15.754   4.311  0.00  0.00    -0.331 N 
HETATM    8  C   UNK N   1      27.846  15.529   3.015  0.00  0.00     0.080 A 
HETATM    9  N   UNK N   1      26.766  15.172   2.266  0.00  0.00    -0.344 N 
ATOM     10  HN  UNK N   1      26.737  14.949   1.270  1.00  0.00     0.167 HD
HETATM   11  C   UNK N   1      29.213  15.707   2.447  0.00  0.00     0.089 C 
ENDROOT
BRANCH   1  12
HETATM   12  C   UNK N   1      23.140  15.330   6.523  0.00  0.00     0.265 C 
HETATM   13  N   UNK N   1      22.149  16.221   6.804  0.00  0.00    -0.250 N 
HETATM   14  H   UNK N   1      21.534  15.954   7.525  0.00  0.00     0.181 HD
HETATM   15  O   UNK N   1      23.365  14.457   7.347  0.00  0.00    -0.267 OA
BRANCH  13  16
HETATM   16  S   UNK N   1      21.812  17.783   6.059  0.00  0.00     0.233 S 
HETATM   17  O   UNK N   1      20.429  17.139   5.866  0.00  0.00    -0.206 OA
HETATM   18  O   UNK N   1      21.053  18.713   7.014  0.00  0.00    -0.206 OA
BRANCH  16  19
HETATM   19  C   UNK N   1      21.480  17.919   4.278  0.00  0.00     0.163 C 
BRANCH  19  20
HETATM   20  C   UNK N   1      22.433  18.877   3.599  0.00  0.00     0.017 C 
BRANCH  20  21
HETATM   21  C   UNK N   1      23.750  18.840   4.349  0.00  0.00     0.001 C 
BRANCH  21  22
HETATM   22  C   UNK N   1      24.908  18.986   3.386  0.00  0.00    -0.005 C 
HETATM   23  C   UNK N   1      24.922  20.395   2.830  0.00  0.00     0.005 C 
ENDBRANCH  21  22
ENDBRANCH  20  21
ENDBRANCH  19  20
ENDBRANCH  16  19
ENDBRANCH  13  16
ENDBRANCH   1  12
BRANCH   7  24
HETATM   24  C   UNK N   1      28.335  16.278   5.403  0.00  0.00     0.171 C 
BRANCH  24  25
HETATM   25  C   UNK N   1      28.197  17.745   5.662  0.00  0.00    -0.018 A 
HETATM   26  C   UNK N   1      28.247  18.653   4.598  0.00  0.00     0.012 A 
HETATM   27  C   UNK N   1      28.003  20.011   4.821  0.00  0.00     0.024 A 
HETATM   28  C   UNK N   1      27.702  20.466   6.108  0.00  0.00     0.035 A 
HETATM   29  C   UNK N   1      27.657  19.566   7.174  0.00  0.00     0.048 A 
HETATM   30 Cl   UNK N   1      27.350  22.160   6.383  0.00  0.00    -0.084 Cl
HETATM   31  C   UNK N   1      27.901  18.208   6.959  0.00  0.00     0.043 A 
HETATM   32 Cl   UNK N   1      27.796  17.106   8.324  0.00  0.00    -0.084 Cl
ENDBRANCH  24  25
ENDBRANCH   7  24
TORSDOF 8
ENDMDL
MODEL 5
REMARK VINA RESULT:      -6.6     13.632     16.778
REMARK  8 active torsions:
REMARK  status: ('A' for Active; 'I' for Inactive)
REMARK    1  A    between atoms: C_2  and  C_3 
REMARK    2  A    between atoms: C_3  and  C_4 
REMARK    3  A    between atoms: C_4  and  C_5 
REMARK    4  A    between atoms: C_5  and  S_6 
REMARK    5  A    between atoms: S_6  and  N_9 
REMARK       I    between atoms: N_9  and  C_10 
REMARK    6  A    between atoms: C_10  and  C_12 
REMARK    7  A    between atoms: N_18  and  C_23 
REMARK    8  A    between atoms: C_23  and  C_24 
ROOT
HETATM    1  C   UNK N   1      26.864  24.059  -4.714  0.00  0.00     0.035 A 
HETATM    2  C   UNK N   1      25.677  23.662  -5.390  0.00  0.00     0.019 A 
HETATM    3  C   UNK N   1      25.746  23.030  -6.656  0.00  0.00     0.033 A 
HETATM    4  C   UNK N   1      27.012  22.824  -7.206  0.00  0.00     0.060 A 
HETATM    5  C   UNK N   1      28.140  23.230  -6.568  0.00  0.00     0.064 A 
HETATM    6  C   UNK N   1      28.113  23.827  -5.320  0.00  0.00     0.049 A 
HETATM    7  N   UNK N   1      29.201  22.971  -7.341  0.00  0.00    -0.331 N 
HETATM    8  C   UNK N   1      28.691  22.376  -8.448  0.00  0.00     0.080 A 
HETATM    9  N   UNK N   1      27.334  22.270  -8.394  0.00  0.00    -0.344 N 
ATOM     10  HN  UNK N   1      26.706  21.867  -9.090  1.00  0.00     0.167 HD
HETATM   11  C   UNK N   1      29.499  21.938  -9.621  0.00  0.00     0.089 C 
ENDROOT
BRANCH   1  12
HETATM   12  C   UNK N   1      26.860  24.589  -3.325  0.00  0.00     0.265 C 
HETATM   13  N   UNK N   1      26.633  25.887  -2.984  0.00  0.00    -0.250 N 
HETATM   14  H   UNK N   1      26.450  26.047  -2.030  0.00  0.00     0.181 HD
HETATM   15  O   UNK N   1      27.111  23.805  -2.423  0.00  0.00    -0.267 OA
BRANCH  13  16
HETATM   16  S   UNK N   1      26.620  27.321  -4.010  0.00  0.00     0.233 S 
HETATM   17  O   UNK N   1      25.456  27.701  -3.079  0.00  0.00    -0.206 OA
HETATM   18  O   UNK N   1      27.319  28.507  -3.333  0.00  0.00    -0.206 OA
BRANCH  16  19
HETATM   19  C   UNK N   1      25.226  27.664  -5.124  0.00  0.00     0.163 C 
BRANCH  19  20
HETATM   20  C   UNK N   1      25.420  27.027  -6.481  0.00  0.00     0.017 C 
BRANCH  20  21
HETATM   21  C   UNK N   1      26.882  27.165  -6.859  0.00  0.00     0.001 C 
BRANCH  21  22
HETATM   22  C   UNK N   1      27.161  26.434  -8.155  0.00  0.00    -0.005 C 
HETATM   23  C   UNK N   1      25.848  26.052  -8.807  0.00  0.00     0.005 C 
ENDBRANCH  21  22
ENDBRANCH  20  21
ENDBRANCH  19  20
ENDBRANCH  16  19
ENDBRANCH  13  16
ENDBRANCH   1  12
BRANCH   7  24
HETATM   24  C   UNK N   1      30.572  23.394  -7.059  0.00  0.00     0.171 C 
BRANCH  24  25
HETATM   25  C   UNK N   1      31.356  22.478  -6.174  0.00  0.00    -0.018 A 
HETATM   26  C   UNK N   1      31.630  21.169  -6.586  0.00  0.00     0.012 A 
HETATM   27  C   UNK N   1      32.460  20.349  -5.815  0.00  0.00     0.024 A 
HETATM   28  C   UNK N   1      33.023  20.837  -4.632  0.00  0.00     0.035 A 
HETATM   29  C   UNK N   1      32.748  22.139  -4.212  0.00  0.00     0.048 A 
HETATM   30 Cl   UNK N   1      34.099  19.828  -3.688  0.00  0.00    -0.084 Cl
HETATM   31  C   UNK N   1      31.919  22.964  -4.977  0.00  0.00     0.043 A 
HETATM   32 Cl   UNK N   1      31.631  24.609  -4.430  0.00  0.00    -0.084 Cl
ENDBRANCH  24  25
ENDBRANCH   7  24
TORSDOF 8
ENDMDL
MODEL 6
REMARK VINA RESULT:      -6.5      3.137      4.207
REMARK  8 active torsions:
REMARK  status: ('A' for Active; 'I' for Inactive)
REMARK    1  A    between atoms: C_2  and  C_3 
REMARK    2  A    between atoms: C_3  and  C_4 
REMARK    3  A    between atoms: C_4  and  C_5 
REMARK    4  A    between atoms: C_5  and  S_6 
REMARK    5  A    between atoms: S_6  and  N_9 
REMARK       I    between atoms: N_9  and  C_10 
REMARK    6  A    between atoms: C_10  and  C_12 
REMARK    7  A    between atoms: N_18  and  C_23 
REMARK    8  A    between atoms: C_23  and  C_24 
ROOT
HETATM    1  C   UNK N   1      32.712  16.732   5.100  0.00  0.00     0.035 A 
HETATM    2  C   UNK N   1      33.742  17.375   5.841  0.00  0.00     0.019 A 
HETATM    3  C   UNK N   1      33.487  17.883   7.138  0.00  0.00     0.033 A 
HETATM    4  C   UNK N   1      32.196  17.733   7.648  0.00  0.00     0.060 A 
HETATM    5  C   UNK N   1      31.209  17.142   6.925  0.00  0.00     0.064 A 
HETATM    6  C   UNK N   1      31.428  16.612   5.665  0.00  0.00     0.049 A 
HETATM    7  N   UNK N   1      30.066  17.189   7.618  0.00  0.00    -0.331 N 
HETATM    8  C   UNK N   1      30.391  17.797   8.787  0.00  0.00     0.080 A 
HETATM    9  N   UNK N   1      31.706  18.147   8.835  0.00  0.00    -0.344 N 
ATOM     10  HN  UNK N   1      32.205  18.614   9.593  1.00  0.00     0.167 HD
HETATM   11  C   UNK N   1      29.421  18.109   9.874  0.00  0.00     0.089 C 
ENDROOT
BRANCH   1  12
HETATM   12  C   UNK N   1      32.959  16.051   3.802  0.00  0.00     0.265 C 
HETATM   13  N   UNK N   1      33.393  14.769   3.662  0.00  0.00    -0.250 N 
HETATM   14  H   UNK N   1      33.305  14.390   2.757  0.00  0.00     0.181 HD
HETATM   15  O   UNK N   1      32.788  16.703   2.783  0.00  0.00    -0.267 OA
BRANCH  13  16
HETATM   16  S   UNK N   1      34.090  13.691   4.871  0.00  0.00     0.233 S 
HETATM   17  O   UNK N   1      32.929  12.793   4.412  0.00  0.00    -0.206 OA
HETATM   18  O   UNK N   1      34.958  12.603   4.226  0.00  0.00    -0.206 OA
BRANCH  16  19
HETATM   19  C   UNK N   1      33.187  13.284   6.394  0.00  0.00     0.163 C 
BRANCH  19  20
HETATM   20  C   UNK N   1      33.716  14.051   7.585  0.00  0.00     0.017 C 
BRANCH  20  21
HETATM   21  C   UNK N   1      32.594  14.177   8.597  0.00  0.00     0.001 C 
BRANCH  21  22
HETATM   22  C   UNK N   1      33.069  14.939   9.815  0.00  0.00    -0.005 C 
HETATM   23  C   UNK N   1      34.537  15.276   9.654  0.00  0.00     0.005 C 
ENDBRANCH  21  22
ENDBRANCH  20  21
ENDBRANCH  19  20
ENDBRANCH  16  19
ENDBRANCH  13  16
ENDBRANCH   1  12
BRANCH   7  24
HETATM   24  C   UNK N   1      28.757  16.784   7.110  0.00  0.00     0.171 C 
BRANCH  24  25
HETATM   25  C   UNK N   1      28.116  17.739   6.154  0.00  0.00    -0.018 A 
HETATM   26  C   UNK N   1      27.957  19.084   6.506  0.00  0.00     0.012 A 
HETATM   27  C   UNK N   1      27.466  20.001   5.571  0.00  0.00     0.024 A 
HETATM   28  C   UNK N   1      27.136  19.578   4.281  0.00  0.00     0.035 A 
HETATM   29  C   UNK N   1      27.286  18.236   3.926  0.00  0.00     0.048 A 
HETATM   30 Cl   UNK N   1      26.564  20.733   3.095  0.00  0.00    -0.084 Cl
HETATM   31  C   UNK N   1      27.776  17.314   4.854  0.00  0.00     0.043 A 
HETATM   32 Cl   UNK N   1      27.984  15.643   4.352  0.00  0.00    -0.084 Cl
ENDBRANCH  24  25
ENDBRANCH   7  24
TORSDOF 8
ENDMDL
MODEL 7
REMARK VINA RESULT:      -6.5      2.730      4.309
REMARK  8 active torsions:
REMARK  status: ('A' for Active; 'I' for Inactive)
REMARK    1  A    between atoms: C_2  and  C_3 
REMARK    2  A    between atoms: C_3  and  C_4 
REMARK    3  A    between atoms: C_4  and  C_5 
REMARK    4  A    between atoms: C_5  and  S_6 
REMARK    5  A    between atoms: S_6  and  N_9 
REMARK       I    between atoms: N_9  and  C_10 
REMARK    6  A    between atoms: C_10  and  C_12 
REMARK    7  A    between atoms: N_18  and  C_23 
REMARK    8  A    between atoms: C_23  and  C_24 
ROOT
HETATM    1  C   UNK N   1      31.544  15.880   4.371  0.00  0.00     0.035 A 
HETATM    2  C   UNK N   1      31.305  14.572   4.878  0.00  0.00     0.019 A 
HETATM    3  C   UNK N   1      29.982  14.099   5.055  0.00  0.00     0.033 A 
HETATM    4  C   UNK N   1      28.938  14.962   4.721  0.00  0.00     0.060 A 
HETATM    5  C   UNK N   1      29.171  16.219   4.263  0.00  0.00     0.064 A 
HETATM    6  C   UNK N   1      30.450  16.707   4.054  0.00  0.00     0.049 A 
HETATM    7  N   UNK N   1      28.004  16.848   4.086  0.00  0.00    -0.331 N 
HETATM    8  C   UNK N   1      27.060  15.934   4.421  0.00  0.00     0.080 A 
HETATM    9  N   UNK N   1      27.608  14.753   4.820  0.00  0.00    -0.344 N 
ATOM     10  HN  UNK N   1      27.126  13.906   5.124  1.00  0.00     0.167 HD
HETATM   11  C   UNK N   1      25.593  16.195   4.417  0.00  0.00     0.089 C 
ENDROOT
BRANCH   1  12
HETATM   12  C   UNK N   1      32.903  16.374   4.027  0.00  0.00     0.265 C 
HETATM   13  N   UNK N   1      33.840  16.777   4.929  0.00  0.00    -0.250 N 
HETATM   14  H   UNK N   1      34.753  16.872   4.574  0.00  0.00     0.181 HD
HETATM   15  O   UNK N   1      33.190  16.453   2.842  0.00  0.00    -0.267 OA
BRANCH  13  16
HETATM   16  S   UNK N   1      33.648  17.154   6.640  0.00  0.00     0.233 S 
HETATM   17  O   UNK N   1      34.930  16.310   6.739  0.00  0.00    -0.206 OA
HETATM   18  O   UNK N   1      34.574  18.296   7.076  0.00  0.00    -0.206 OA
BRANCH  16  19
HETATM   19  C   UNK N   1      33.257  15.853   7.847  0.00  0.00     0.163 C 
BRANCH  19  20
HETATM   20  C   UNK N   1      32.043  16.201   8.678  0.00  0.00     0.017 C 
BRANCH  20  21
HETATM   21  C   UNK N   1      31.103  17.020   7.816  0.00  0.00     0.001 C 
BRANCH  21  22
HETATM   22  C   UNK N   1      29.834  17.339   8.577  0.00  0.00    -0.005 C 
HETATM   23  C   UNK N   1      30.040  18.606   9.382  0.00  0.00     0.005 C 
ENDBRANCH  21  22
ENDBRANCH  20  21
ENDBRANCH  19  20
ENDBRANCH  16  19
ENDBRANCH  13  16
ENDBRANCH   1  12
BRANCH   7  24
HETATM   24  C   UNK N   1      27.853  18.260   3.740  0.00  0.00     0.171 C 
BRANCH  24  25
HETATM   25  C   UNK N   1      27.303  19.131   4.824  0.00  0.00    -0.018 A 
HETATM   26  C   UNK N   1      27.889  19.123   6.095  0.00  0.00     0.012 A 
HETATM   27  C   UNK N   1      27.452  20.020   7.076  0.00  0.00     0.024 A 
HETATM   28  C   UNK N   1      26.432  20.931   6.787  0.00  0.00     0.035 A 
HETATM   29  C   UNK N   1      25.840  20.939   5.524  0.00  0.00     0.048 A 
HETATM   30 Cl   UNK N   1      25.915  22.085   7.999  0.00  0.00    -0.084 Cl
HETATM   31  C   UNK N   1      26.270  20.046   4.539  0.00  0.00     0.043 A 
HETATM   32 Cl   UNK N   1      25.522  20.118   2.951  0.00  0.00    -0.084 Cl
ENDBRANCH  24  25
ENDBRANCH   7  24
TORSDOF 8
ENDMDL
MODEL 8
REMARK VINA RESULT:      -6.5      9.126     11.847
REMARK  8 active torsions:
REMARK  status: ('A' for Active; 'I' for Inactive)
REMARK    1  A    between atoms: C_2  and  C_3 
REMARK    2  A    between atoms: C_3  and  C_4 
REMARK    3  A    between atoms: C_4  and  C_5 
REMARK    4  A    between atoms: C_5  and  S_6 
REMARK    5  A    between atoms: S_6  and  N_9 
REMARK       I    between atoms: N_9  and  C_10 
REMARK    6  A    between atoms: C_10  and  C_12 
REMARK    7  A    between atoms: N_18  and  C_23 
REMARK    8  A    between atoms: C_23  and  C_24 
ROOT
HETATM    1  C   UNK N   1      20.907  18.105   3.439  0.00  0.00     0.035 A 
HETATM    2  C   UNK N   1      20.639  19.351   2.805  0.00  0.00     0.019 A 
HETATM    3  C   UNK N   1      21.671  20.303   2.622  0.00  0.00     0.033 A 
HETATM    4  C   UNK N   1      22.944  19.973   3.089  0.00  0.00     0.060 A 
HETATM    5  C   UNK N   1      23.188  18.793   3.717  0.00  0.00     0.064 A 
HETATM    6  C   UNK N   1      22.211  17.829   3.892  0.00  0.00     0.049 A 
HETATM    7  N   UNK N   1      24.464  18.763   4.119  0.00  0.00    -0.331 N 
HETATM    8  C   UNK N   1      24.992  19.939   3.695  0.00  0.00     0.080 A 
HETATM    9  N   UNK N   1      24.073  20.712   3.052  0.00  0.00    -0.344 N 
ATOM     10  HN  UNK N   1      24.206  21.635   2.639  1.00  0.00     0.167 HD
HETATM   11  C   UNK N   1      26.394  20.375   3.948  0.00  0.00     0.089 C 
ENDROOT
BRANCH   1  12
HETATM   12  C   UNK N   1      19.902  17.013   3.525  0.00  0.00     0.265 C 
HETATM   13  N   UNK N   1      19.842  15.939   2.691  0.00  0.00    -0.250 N 
HETATM   14  H   UNK N   1      19.268  15.200   2.996  0.00  0.00     0.181 HD
HETATM   15  O   UNK N   1      19.046  17.103   4.392  0.00  0.00    -0.267 OA
BRANCH  13  16
HETATM   16  S   UNK N   1      20.646  15.685   1.142  0.00  0.00     0.233 S 
HETATM   17  O   UNK N   1      19.375  14.862   0.873  0.00  0.00    -0.206 OA
HETATM   18  O   UNK N   1      20.074  16.600   0.051  0.00  0.00    -0.206 OA
BRANCH  16  19
HETATM   19  C   UNK N   1      21.250  14.041   0.660  0.00  0.00     0.163 C 
BRANCH  19  20
HETATM   20  C   UNK N   1      22.747  13.919   0.832  0.00  0.00     0.017 C 
BRANCH  20  21
HETATM   21  C   UNK N   1      23.116  14.519   2.174  0.00  0.00     0.001 C 
BRANCH  21  22
HETATM   22  C   UNK N   1      22.980  13.483   3.269  0.00  0.00    -0.005 C 
HETATM   23  C   UNK N   1      22.389  14.134   4.503  0.00  0.00     0.005 C 
ENDBRANCH  21  22
ENDBRANCH  20  21
ENDBRANCH  19  20
ENDBRANCH  16  19
ENDBRANCH  13  16
ENDBRANCH   1  12
BRANCH   7  24
HETATM   24  C   UNK N   1      25.059  17.721   4.953  0.00  0.00     0.171 C 
BRANCH  24  25
HETATM   25  C   UNK N   1      25.600  16.539   4.215  0.00  0.00    -0.018 A 
HETATM   26  C   UNK N   1      25.972  16.660   2.871  0.00  0.00     0.012 A 
HETATM   27  C   UNK N   1      26.585  15.590   2.212  0.00  0.00     0.024 A 
HETATM   28  C   UNK N   1      26.834  14.396   2.896  0.00  0.00     0.035 A 
HETATM   29  C   UNK N   1      26.459  14.267   4.234  0.00  0.00     0.048 A 
HETATM   30 Cl   UNK N   1      27.642  13.070   2.086  0.00  0.00    -0.084 Cl
HETATM   31  C   UNK N   1      25.845  15.331   4.899  0.00  0.00     0.043 A 
HETATM   32 Cl   UNK N   1      25.426  15.136   6.594  0.00  0.00    -0.084 Cl
ENDBRANCH  24  25
ENDBRANCH   7  24
TORSDOF 8
ENDMDL
MODEL 9
REMARK VINA RESULT:      -6.3      3.948      7.677
REMARK  8 active torsions:
REMARK  status: ('A' for Active; 'I' for Inactive)
REMARK    1  A    between atoms: C_2  and  C_3 
REMARK    2  A    between atoms: C_3  and  C_4 
REMARK    3  A    between atoms: C_4  and  C_5 
REMARK    4  A    between atoms: C_5  and  S_6 
REMARK    5  A    between atoms: S_6  and  N_9 
REMARK       I    between atoms: N_9  and  C_10 
REMARK    6  A    between atoms: C_10  and  C_12 
REMARK    7  A    between atoms: N_18  and  C_23 
REMARK    8  A    between atoms: C_23  and  C_24 
ROOT
HETATM    1  C   UNK N   1      28.625  17.421   7.314  0.00  0.00     0.035 A 
HETATM    2  C   UNK N   1      27.782  16.584   6.530  0.00  0.00     0.019 A 
HETATM    3  C   UNK N   1      28.331  15.546   5.738  0.00  0.00     0.033 A 
HETATM    4  C   UNK N   1      29.717  15.386   5.755  0.00  0.00     0.060 A 
HETATM    5  C   UNK N   1      30.520  16.205   6.484  0.00  0.00     0.064 A 
HETATM    6  C   UNK N   1      30.017  17.213   7.288  0.00  0.00     0.049 A 
HETATM    7  N   UNK N   1      31.799  15.876   6.268  0.00  0.00    -0.331 N 
HETATM    8  C   UNK N   1      31.749  14.823   5.414  0.00  0.00     0.080 A 
HETATM    9  N   UNK N   1      30.471  14.495   5.077  0.00  0.00    -0.344 N 
ATOM     10  HN  UNK N   1      30.155  13.750   4.455  1.00  0.00     0.167 HD
HETATM   11  C   UNK N   1      32.945  14.134   4.854  0.00  0.00     0.089 C 
ENDROOT
BRANCH   1  12
HETATM   12  C   UNK N   1      28.096  18.425   8.273  0.00  0.00     0.265 C 
HETATM   13  N   UNK N   1      27.451  19.573   7.927  0.00  0.00    -0.250 N 
HETATM   14  H   UNK N   1      26.974  20.026   8.659  0.00  0.00     0.181 HD
HETATM   15  O   UNK N   1      28.281  18.219   9.463  0.00  0.00    -0.267 OA
BRANCH  13  16
HETATM   16  S   UNK N   1      27.350  20.362   6.353  0.00  0.00     0.233 S 
HETATM   17  O   UNK N   1      26.093  20.975   6.993  0.00  0.00    -0.206 OA
HETATM   18  O   UNK N   1      27.870  21.804   6.409  0.00  0.00    -0.206 OA
BRANCH  16  19
HETATM   19  C   UNK N   1      26.003  19.975   5.196  0.00  0.00     0.163 C 
BRANCH  19  20
HETATM   20  C   UNK N   1      26.462  19.059   4.084  0.00  0.00     0.017 C 
BRANCH  20  21
HETATM   21  C   UNK N   1      25.437  17.951   3.936  0.00  0.00     0.001 C 
BRANCH  21  22
HETATM   22  C   UNK N   1      25.987  16.839   3.069  0.00  0.00    -0.005 C 
HETATM   23  C   UNK N   1      25.274  15.545   3.404  0.00  0.00     0.005 C 
ENDBRANCH  21  22
ENDBRANCH  20  21
ENDBRANCH  19  20
ENDBRANCH  16  19
ENDBRANCH  13  16
ENDBRANCH   1  12
BRANCH   7  24
HETATM   24  C   UNK N   1      32.954  16.621   6.763  0.00  0.00     0.171 C 
BRANCH  24  25
HETATM   25  C   UNK N   1      33.454  16.207   8.111  0.00  0.00    -0.018 A 
HETATM   26  C   UNK N   1      33.164  14.930   8.606  0.00  0.00     0.012 A 
HETATM   27  C   UNK N   1      33.727  14.500   9.812  0.00  0.00     0.024 A 
HETATM   28  C   UNK N   1      34.585  15.342  10.524  0.00  0.00     0.035 A 
HETATM   29  C   UNK N   1      34.872  16.619  10.039  0.00  0.00     0.048 A 
HETATM   30 Cl   UNK N   1      35.326  14.788  12.011  0.00  0.00    -0.084 Cl
HETATM   31  C   UNK N   1      34.314  17.057   8.836  0.00  0.00     0.043 A 
HETATM   32 Cl   UNK N   1      34.735  18.657   8.245  0.00  0.00    -0.084 Cl
ENDBRANCH  24  25
ENDBRANCH   7  24
TORSDOF 8
ENDMDL
