REMARK  8 active torsions:
REMARK  status: ('A' for Active; 'I' for Inactive)
REMARK    1  A    between atoms: C_4  and  C_3 
REMARK    2  A    between atoms: C_5  and  C_3 
REMARK    3  A    between atoms: N_21  and  C_4 
REMARK    4  A    between atoms: N_28  and  C_5 
REMARK    5  A    between atoms: N_21  and  C_10 
REMARK    6  A    between atoms: S_31  and  C_14 
REMARK    7  A    between atoms: N_20  and  C_16 
REMARK    8  A    between atoms: S_31  and  C_18 
ROOT
HETATM    1  C   UNK N   1       0.913  -1.133   0.727  0.00  0.00     0.183 A 
HETATM    2  C   UNK N   1       2.031   0.972  -0.588  0.00  0.00     0.123 A 
HETATM    3  C   UNK N   1       2.556  -0.294  -0.785  0.00  0.00     0.131 A 
HETATM    4  C   UNK N   1       0.990   1.152   0.254  0.00  0.00     0.141 A 
HETATM    5  C   UNK N   1       1.555   3.048  -0.550  0.00  0.00     0.153 A 
HETATM    6  N   UNK N   1       1.981  -1.337  -0.116  0.00  0.00    -0.337 N 
ATOM      7  HN  UNK N   1       2.348  -2.280  -0.244  1.00  0.00     0.168 HD
HETATM    8  N   UNK N   1       0.410   0.127   0.922  0.00  0.00    -0.336 N 
ATOM      9  HN  UNK N   1      -0.377   0.287   1.552  1.00  0.00     0.168 HD
HETATM   10  N   UNK N   1       2.403   2.149  -1.121  0.00  0.00    -0.330 N 
ATOM     11  HN  UNK N   1       3.147   2.327  -1.795  1.00  0.00     0.168 HD
HETATM   12  N   UNK N   1       0.673   2.454   0.301  0.00  0.00    -0.311 N 
ENDROOT
BRANCH   5  13
HETATM   13  S   UNK N   1       1.561   4.803  -0.966  0.00  0.00    -0.052 SA
BRANCH  13  14
HETATM   14  C   UNK N   1       3.225   5.243  -0.420  0.00  0.00     0.027 A 
HETATM   15  C   UNK N   1       4.259   4.283  -0.433  0.00  0.00     0.060 A 
HETATM   16  C   UNK N   1       5.531   4.685  -0.048  0.00  0.00     0.106 A 
HETATM   17  C   UNK N   1       5.803   5.940   0.321  0.00  0.00     0.106 A 
HETATM   18  O   UNK N   1       6.644   3.957   0.017  0.00  0.00    -0.323 OA
HETATM   19  C   UNK N   1       4.830   6.933   0.350  0.00  0.00     0.059 A 
HETATM   20  O   UNK N   1       7.095   6.038   0.626  0.00  0.00    -0.323 OA
HETATM   21  C   UNK N   1       3.519   6.582  -0.026  0.00  0.00     0.026 A 
HETATM   22  I   UNK N   1       2.047   8.104  -0.014  0.00  0.00    -0.043 I 
HETATM   23  C   UNK N   1       7.687   4.783   0.447  0.00  0.00     0.352 A 
ENDBRANCH  13  14
ENDBRANCH   5  13
BRANCH  12  24
HETATM   24  C   UNK N   1      -0.380   3.065   1.111  0.00  0.00     0.134 C 
BRANCH  24  25
HETATM   25  C   UNK N   1      -1.239   4.017   0.293  0.00  0.00     0.039 C 
BRANCH  25  26
HETATM   26  C   UNK N   1      -2.710   3.756   0.518  0.00  0.00     0.115 C 
BRANCH  26  27
HETATM   27  N   UNK N   1      -3.177   2.796  -0.477  0.00  0.00    -0.418 N 
HETATM   28  H   UNK N   1      -2.720   1.908  -0.682  0.00  0.00     0.153 HD
BRANCH  27  29
HETATM   29  C   UNK N   1      -4.391   3.277  -1.143  0.00  0.00     0.068 C 
HETATM   30  C   UNK N   1      -5.571   3.340  -0.190  0.00  0.00     0.031 C 
HETATM   31  C   UNK N   1      -4.177   4.609  -1.850  0.00  0.00     0.031 C 
ENDBRANCH  27  29
ENDBRANCH  26  27
ENDBRANCH  25  26
ENDBRANCH  24  25
ENDBRANCH  12  24
BRANCH   3  32
HETATM   32  N   UNK N   1       3.658  -0.506  -1.639  0.00  0.00    -0.383 N 
HETATM   33  H   UNK N   1       3.914  -1.246  -2.236  0.00  0.00     0.157 HD
HETATM   34  H   UNK N   1       4.302   0.239  -1.639  0.00  0.00     0.157 HD
ENDBRANCH   3  32
TORSDOF 8
