REMARK  0 active torsions:
REMARK  status: ('A' for Active; 'I' for Inactive)
ROOT
HETATM    1  O   UNK N   1       1.524   0.100   0.000  0.00  0.00    -0.285 OA
ATOM      2  HO  UNK N   1       2.474   0.100   0.000  1.00  0.00     0.236 HD
HETATM    3 Cl   UNK N   1       0.000   0.099   0.000  0.00  0.00     0.098 Cl
HETATM    4  O   UNK N   1      -1.524   0.100   0.000  0.00  0.00    -0.285 OA
ATOM      5  HO  UNK N   1      -2.474   0.100   0.000  1.00  0.00     0.236 HD
ENDROOT
TORSDOF 0
