MODEL 1
REMARK VINA RESULT:     -10.5      0.000      0.000
REMARK  13 active torsions:
REMARK  status: ('A' for Active; 'I' for Inactive)
REMARK    1  A    between atoms: C_2  and  C_4 
REMARK    2  A    between atoms: C_4  and  C_5 
REMARK    3  A    between atoms: C_4  and  N_61 
REMARK       I    between atoms: C_5  and  N_7 
REMARK    4  A    between atoms: C_11  and  C_12 
REMARK    5  A    between atoms: C_16  and  C_22 
REMARK    6  A    between atoms: C_29  and  C_30 
REMARK    7  A    between atoms: C_33  and  C_36 
REMARK    8  A    between atoms: C_42  and  C_40 
REMARK       I    between atoms: N_46  and  C_47 
REMARK    9  A    between atoms: C_47  and  C_49 
REMARK   10  A    between atoms: C_49  and  C_50 
REMARK   11  A    between atoms: C_49  and  N_56 
REMARK       I    between atoms: N_56  and  C_57 
REMARK   12  A    between atoms: C_57  and  O_59 
REMARK       I    between atoms: N_61  and  C_62 
REMARK   13  A    between atoms: C_62  and  O_64 
ROOT
HETATM    1  C   UNK N   1      28.136  18.393   5.568  0.00  0.00    -0.022 A 
HETATM    2  C   UNK N   1      28.811  17.843   4.462  0.00  0.00     0.060 A 
HETATM    3  S   UNK N   1      30.197  17.135   5.104  0.00  0.00    -0.099 SA
HETATM    4  C   UNK N   1      30.021  17.578   6.693  0.00  0.00     0.034 A 
HETATM    5  C   UNK N   1      28.844  18.216   6.790  0.00  0.00     0.030 A 
HETATM    6  S   UNK N   1      28.690  18.740   8.359  0.00  0.00    -0.099 SA
HETATM    7  C   UNK N   1      30.111  18.134   8.990  0.00  0.00     0.064 A 
HETATM    8  C   UNK N   1      30.769  17.518   7.904  0.00  0.00    -0.001 A 
ENDROOT
BRANCH   8   9
HETATM    9  C   UNK N   1      32.033  16.813   8.011  0.00  0.00    -0.024 C 
HETATM   10  C   UNK N   1      33.182  17.466   8.479  0.00  0.00     0.013 C 
HETATM   11  C   UNK N   1      34.230  16.704   9.001  0.00  0.00     0.014 C 
HETATM   12  C   UNK N   1      34.106  15.308   9.033  0.00  0.00    -0.008 C 
HETATM   13  C   UNK N   1      33.029  14.681   8.416  0.00  0.00     0.014 C 
HETATM   14  C   UNK N   1      32.006  15.428   7.904  0.00  0.00     0.013 C 
BRANCH  12  15
HETATM   15  C   UNK N   1      34.689  14.576  10.140  0.00  0.00     0.059 A 
HETATM   16  C   UNK N   1      34.495  14.794  11.486  0.00  0.00     0.119 A 
HETATM   17  N   UNK N   1      34.812  13.652  12.131  0.00  0.00    -0.352 N 
HETATM   18  C   UNK N   1      35.142  12.772  11.159  0.00  0.00     0.105 A 
ATOM     19  HN  UNK N   1      34.806  13.488  13.137  1.00  0.00     0.166 HD
HETATM   20  N   UNK N   1      35.091  13.311   9.944  0.00  0.00    -0.342 N 
HETATM   21  H   UNK N   1      35.302  12.876   9.086  0.00  0.00     0.167 HD
BRANCH  18  22
HETATM   22  C   UNK N   1      35.360  11.314  11.398  0.00  0.00     0.155 C 
HETATM   23  C   UNK N   1      34.251  10.539  10.715  0.00  0.00     0.035 C 
HETATM   24  C   UNK N   1      33.688   9.570  11.748  0.00  0.00     0.022 C 
HETATM   25  C   UNK N   1      34.315   9.923  13.082  0.00  0.00     0.127 C 
HETATM   26  N   UNK N   1      35.322  10.906  12.792  0.00  0.00    -0.338 N 
HETATM   27  C   UNK N   1      36.226  11.305  13.753  0.00  0.00     0.248 C 
HETATM   28  O   UNK N   1      37.074  12.148  13.493  0.00  0.00    -0.271 OA
BRANCH  27  29
HETATM   29  C   UNK N   1      36.216  10.637  15.126  0.00  0.00     0.212 C 
BRANCH  29  30
HETATM   30  C   UNK N   1      35.778  11.474  16.323  0.00  0.00    -0.026 A 
HETATM   31  C   UNK N   1      35.561  12.861  16.196  0.00  0.00     0.010 A 
HETATM   32  C   UNK N   1      35.255  13.646  17.311  0.00  0.00     0.001 A 
HETATM   33  C   UNK N   1      35.173  13.058  18.571  0.00  0.00     0.000 A 
HETATM   34  C   UNK N   1      35.389  11.686  18.710  0.00  0.00     0.001 A 
HETATM   35  C   UNK N   1      35.692  10.894  17.594  0.00  0.00     0.010 A 
ENDBRANCH  29  30
BRANCH  29  36
HETATM   36  N   UNK N   1      37.534  10.077  15.348  0.00  0.00    -0.320 N 
HETATM   37  C   UNK N   1      37.815   8.765  15.182  0.00  0.00     0.361 C 
HETATM   38  O   UNK N   1      36.943   7.985  14.818  0.00  0.00    -0.239 OA
HETATM   39  H   UNK N   1      38.258  10.680  15.633  0.00  0.00     0.166 HD
BRANCH  37  40
HETATM   40  O   UNK N   1      39.075   8.329  15.421  0.00  0.00    -0.309 OA
HETATM   41  C   UNK N   1      40.186   8.992  14.957  0.00  0.00     0.215 C 
ENDBRANCH  37  40
ENDBRANCH  29  36
ENDBRANCH  27  29
ENDBRANCH  18  22
ENDBRANCH  12  15
ENDBRANCH   8   9
BRANCH   1  42
HETATM   42  C   UNK N   1      27.217  19.500   5.528  0.00  0.00     0.068 C 
HETATM   43  C   UNK N   1      25.968  18.952   5.865  0.00  0.00     0.018 C 
HETATM   44  C   UNK N   1      24.965  19.042   4.947  0.00  0.00     0.057 A 
HETATM   45  N   UNK N   1      23.813  18.374   4.960  0.00  0.00    -0.343 N 
HETATM   46  C   UNK N   1      25.081  19.765   3.808  0.00  0.00     0.060 A 
HETATM   47  C   UNK N   1      23.241  18.721   3.788  0.00  0.00     0.105 A 
HETATM   48  H   UNK N   1      23.462  17.772   5.657  0.00  0.00     0.167 HD
HETATM   49  N   UNK N   1      23.983  19.605   3.069  0.00  0.00    -0.342 N 
ATOM     50  HN  UNK N   1      23.754  20.041   2.175  1.00  0.00     0.167 HD
HETATM   51  C   UNK N   1      26.218  20.504   3.514  0.00  0.00     0.029 C 
HETATM   52  C   UNK N   1      27.320  20.324   4.369  0.00  0.00    -0.011 C 
BRANCH  47  53
HETATM   53  C   UNK N   1      21.809  18.530   3.522  0.00  0.00     0.155 C 
HETATM   54  C   UNK N   1      20.836  19.247   2.642  0.00  0.00     0.035 C 
HETATM   55  C   UNK N   1      19.521  18.514   2.999  0.00  0.00     0.022 C 
HETATM   56  C   UNK N   1      19.885  17.234   3.797  0.00  0.00     0.127 C 
HETATM   57  N   UNK N   1      21.313  17.223   3.768  0.00  0.00    -0.339 N 
HETATM   58  C   UNK N   1      22.110  16.091   3.736  0.00  0.00     0.243 C 
HETATM   59  O   UNK N   1      23.232  16.159   3.262  0.00  0.00    -0.271 OA
BRANCH  58  60
HETATM   60  C   UNK N   1      21.714  14.754   4.319  0.00  0.00     0.182 C 
BRANCH  60  61
HETATM   61  C   UNK N   1      22.892  13.760   4.131  0.00  0.00     0.009 C 
HETATM   62  C   UNK N   1      23.678  13.594   5.415  0.00  0.00     0.012 C 
HETATM   63  C   UNK N   1      22.471  12.365   3.678  0.00  0.00     0.012 C 
ENDBRANCH  60  61
BRANCH  60  64
HETATM   64  N   UNK N   1      21.459  14.882   5.728  0.00  0.00    -0.323 N 
HETATM   65  C   UNK N   1      20.292  14.506   6.295  0.00  0.00     0.360 C 
HETATM   66  O   UNK N   1      19.432  13.952   5.625  0.00  0.00    -0.239 OA
HETATM   67  H   UNK N   1      22.163  15.259   6.303  0.00  0.00     0.165 HD
BRANCH  65  68
HETATM   68  O   UNK N   1      20.068  14.737   7.609  0.00  0.00    -0.309 OA
HETATM   69  C   UNK N   1      20.726  15.732   8.298  0.00  0.00     0.215 C 
ENDBRANCH  65  68
ENDBRANCH  60  64
ENDBRANCH  58  60
ENDBRANCH  47  53
ENDBRANCH   1  42
TORSDOF 13
ENDMDL
MODEL 2
REMARK VINA RESULT:     -10.2      1.946      2.774
REMARK  13 active torsions:
REMARK  status: ('A' for Active; 'I' for Inactive)
REMARK    1  A    between atoms: C_2  and  C_4 
REMARK    2  A    between atoms: C_4  and  C_5 
REMARK    3  A    between atoms: C_4  and  N_61 
REMARK       I    between atoms: C_5  and  N_7 
REMARK    4  A    between atoms: C_11  and  C_12 
REMARK    5  A    between atoms: C_16  and  C_22 
REMARK    6  A    between atoms: C_29  and  C_30 
REMARK    7  A    between atoms: C_33  and  C_36 
REMARK    8  A    between atoms: C_42  and  C_40 
REMARK       I    between atoms: N_46  and  C_47 
REMARK    9  A    between atoms: C_47  and  C_49 
REMARK   10  A    between atoms: C_49  and  C_50 
REMARK   11  A    between atoms: C_49  and  N_56 
REMARK       I    between atoms: N_56  and  C_57 
REMARK   12  A    between atoms: C_57  and  O_59 
REMARK       I    between atoms: N_61  and  C_62 
REMARK   13  A    between atoms: C_62  and  O_64 
ROOT
HETATM    1  C   UNK N   1      27.838  16.383   5.780  0.00  0.00    -0.022 A 
HETATM    2  C   UNK N   1      27.831  17.302   6.846  0.00  0.00     0.060 A 
HETATM    3  S   UNK N   1      29.390  17.249   7.478  0.00  0.00    -0.099 SA
HETATM    4  C   UNK N   1      30.033  16.052   6.525  0.00  0.00     0.034 A 
HETATM    5  C   UNK N   1      29.086  15.715   5.636  0.00  0.00     0.030 A 
HETATM    6  S   UNK N   1      29.682  14.459   4.727  0.00  0.00    -0.099 SA
HETATM    7  C   UNK N   1      31.198  14.321   5.412  0.00  0.00     0.064 A 
HETATM    8  C   UNK N   1      31.231  15.287   6.441  0.00  0.00    -0.001 A 
ENDROOT
BRANCH   8   9
HETATM    9  C   UNK N   1      32.389  15.550   7.275  0.00  0.00    -0.024 C 
HETATM   10  C   UNK N   1      32.277  15.575   8.673  0.00  0.00     0.013 C 
HETATM   11  C   UNK N   1      33.420  15.370   9.448  0.00  0.00     0.014 C 
HETATM   12  C   UNK N   1      34.648  15.154   8.807  0.00  0.00    -0.008 C 
HETATM   13  C   UNK N   1      34.759  15.296   7.428  0.00  0.00     0.014 C 
HETATM   14  C   UNK N   1      33.639  15.498   6.671  0.00  0.00     0.013 C 
BRANCH  12  15
HETATM   15  C   UNK N   1      35.605  14.247   9.409  0.00  0.00     0.059 A 
HETATM   16  C   UNK N   1      36.750  14.573  10.102  0.00  0.00     0.119 A 
HETATM   17  N   UNK N   1      37.073  13.513  10.871  0.00  0.00    -0.352 N 
HETATM   18  C   UNK N   1      36.097  12.603  10.655  0.00  0.00     0.105 A 
ATOM     19  HN  UNK N   1      37.882  13.416  11.484  1.00  0.00     0.166 HD
HETATM   20  N   UNK N   1      35.202  13.017   9.761  0.00  0.00    -0.342 N 
HETATM   21  H   UNK N   1      34.415  12.527   9.429  0.00  0.00     0.167 HD
BRANCH  18  22
HETATM   22  C   UNK N   1      35.932  11.354  11.458  0.00  0.00     0.155 C 
HETATM   23  C   UNK N   1      34.824  10.524  10.840  0.00  0.00     0.035 C 
HETATM   24  C   UNK N   1      33.874  10.145  11.969  0.00  0.00     0.022 C 
HETATM   25  C   UNK N   1      34.303  10.924  13.196  0.00  0.00     0.127 C 
HETATM   26  N   UNK N   1      35.541  11.559  12.842  0.00  0.00    -0.338 N 
HETATM   27  C   UNK N   1      36.316  12.192  13.792  0.00  0.00     0.248 C 
HETATM   28  O   UNK N   1      37.365  12.733  13.473  0.00  0.00    -0.271 OA
BRANCH  27  29
HETATM   29  C   UNK N   1      35.898  12.149  15.259  0.00  0.00     0.212 C 
BRANCH  29  30
HETATM   30  C   UNK N   1      36.035  13.429  16.077  0.00  0.00    -0.026 A 
HETATM   31  C   UNK N   1      36.971  14.420  15.717  0.00  0.00     0.010 A 
HETATM   32  C   UNK N   1      37.168  15.547  16.519  0.00  0.00     0.001 A 
HETATM   33  C   UNK N   1      36.441  15.695  17.699  0.00  0.00     0.000 A 
HETATM   34  C   UNK N   1      35.515  14.717  18.067  0.00  0.00     0.001 A 
HETATM   35  C   UNK N   1      35.311  13.588  17.264  0.00  0.00     0.010 A 
ENDBRANCH  29  30
BRANCH  29  36
HETATM   36  N   UNK N   1      36.619  11.061  15.887  0.00  0.00    -0.320 N 
HETATM   37  C   UNK N   1      36.004  10.037  16.523  0.00  0.00     0.361 C 
HETATM   38  O   UNK N   1      34.781   9.990  16.582  0.00  0.00    -0.239 OA
HETATM   39  H   UNK N   1      37.603  11.066  15.848  0.00  0.00     0.166 HD
BRANCH  37  40
HETATM   40  O   UNK N   1      36.761   9.067  17.088  0.00  0.00    -0.309 OA
HETATM   41  C   UNK N   1      37.060   7.893  16.441  0.00  0.00     0.215 C 
ENDBRANCH  37  40
ENDBRANCH  29  36
ENDBRANCH  27  29
ENDBRANCH  18  22
ENDBRANCH  12  15
ENDBRANCH   8   9
BRANCH   1  42
HETATM   42  C   UNK N   1      26.688  15.688   5.260  0.00  0.00     0.068 C 
HETATM   43  C   UNK N   1      26.170  16.533   4.264  0.00  0.00     0.018 C 
HETATM   44  C   UNK N   1      24.898  16.996   4.422  0.00  0.00     0.057 A 
HETATM   45  N   UNK N   1      24.325  17.991   3.747  0.00  0.00    -0.343 N 
HETATM   46  C   UNK N   1      24.076  16.554   5.404  0.00  0.00     0.060 A 
HETATM   47  C   UNK N   1      23.131  18.131   4.359  0.00  0.00     0.105 A 
HETATM   48  H   UNK N   1      24.685  18.500   2.985  0.00  0.00     0.167 HD
HETATM   49  N   UNK N   1      22.932  17.237   5.364  0.00  0.00    -0.342 N 
ATOM     50  HN  UNK N   1      22.105  17.119   5.949  1.00  0.00     0.167 HD
HETATM   51  C   UNK N   1      24.458  15.563   6.298  0.00  0.00     0.029 C 
HETATM   52  C   UNK N   1      25.806  15.164   6.250  0.00  0.00    -0.011 C 
BRANCH  47  53
HETATM   53  C   UNK N   1      22.007  18.848   3.740  0.00  0.00     0.155 C 
HETATM   54  C   UNK N   1      21.899  20.178   3.066  0.00  0.00     0.035 C 
HETATM   55  C   UNK N   1      20.378  20.245   2.788  0.00  0.00     0.022 C 
HETATM   56  C   UNK N   1      19.784  18.830   3.020  0.00  0.00     0.127 C 
HETATM   57  N   UNK N   1      20.936  18.030   3.292  0.00  0.00    -0.339 N 
HETATM   58  C   UNK N   1      21.091  16.697   2.949  0.00  0.00     0.243 C 
HETATM   59  O   UNK N   1      22.213  16.242   2.800  0.00  0.00    -0.271 OA
BRANCH  58  60
HETATM   60  C   UNK N   1      19.951  15.715   2.808  0.00  0.00     0.182 C 
BRANCH  60  61
HETATM   61  C   UNK N   1      19.937  15.173   1.353  0.00  0.00     0.009 C 
HETATM   62  C   UNK N   1      18.969  14.018   1.208  0.00  0.00     0.012 C 
HETATM   63  C   UNK N   1      19.562  16.209   0.299  0.00  0.00     0.012 C 
ENDBRANCH  60  61
BRANCH  60  64
HETATM   64  N   UNK N   1      20.139  14.602   3.697  0.00  0.00    -0.323 N 
HETATM   65  C   UNK N   1      19.389  14.419   4.805  0.00  0.00     0.360 C 
HETATM   66  O   UNK N   1      18.449  15.164   5.043  0.00  0.00    -0.239 OA
HETATM   67  H   UNK N   1      20.844  13.947   3.490  0.00  0.00     0.165 HD
BRANCH  65  68
HETATM   68  O   UNK N   1      19.672  13.409   5.659  0.00  0.00    -0.309 OA
HETATM   69  C   UNK N   1      20.691  13.496   6.582  0.00  0.00     0.215 C 
ENDBRANCH  65  68
ENDBRANCH  60  64
ENDBRANCH  58  60
ENDBRANCH  47  53
ENDBRANCH   1  42
TORSDOF 13
ENDMDL
MODEL 3
REMARK VINA RESULT:     -10.0      4.032     14.230
REMARK  13 active torsions:
REMARK  status: ('A' for Active; 'I' for Inactive)
REMARK    1  A    between atoms: C_2  and  C_4 
REMARK    2  A    between atoms: C_4  and  C_5 
REMARK    3  A    between atoms: C_4  and  N_61 
REMARK       I    between atoms: C_5  and  N_7 
REMARK    4  A    between atoms: C_11  and  C_12 
REMARK    5  A    between atoms: C_16  and  C_22 
REMARK    6  A    between atoms: C_29  and  C_30 
REMARK    7  A    between atoms: C_33  and  C_36 
REMARK    8  A    between atoms: C_42  and  C_40 
REMARK       I    between atoms: N_46  and  C_47 
REMARK    9  A    between atoms: C_47  and  C_49 
REMARK   10  A    between atoms: C_49  and  C_50 
REMARK   11  A    between atoms: C_49  and  N_56 
REMARK       I    between atoms: N_56  and  C_57 
REMARK   12  A    between atoms: C_57  and  O_59 
REMARK       I    between atoms: N_61  and  C_62 
REMARK   13  A    between atoms: C_62  and  O_64 
ROOT
HETATM    1  C   UNK N   1      28.799  16.024   5.936  0.00  0.00    -0.022 A 
HETATM    2  C   UNK N   1      27.567  16.242   6.583  0.00  0.00     0.060 A 
HETATM    3  S   UNK N   1      26.414  15.552   5.570  0.00  0.00    -0.099 SA
HETATM    4  C   UNK N   1      27.395  15.081   4.317  0.00  0.00     0.034 A 
HETATM    5  C   UNK N   1      28.655  15.370   4.681  0.00  0.00     0.030 A 
HETATM    6  S   UNK N   1      29.643  14.982   3.404  0.00  0.00    -0.099 SA
HETATM    7  C   UNK N   1      28.499  14.388   2.343  0.00  0.00     0.064 A 
HETATM    8  C   UNK N   1      27.263  14.537   3.007  0.00  0.00    -0.001 A 
ENDROOT
BRANCH   8   9
HETATM    9  C   UNK N   1      25.989  14.102   2.464  0.00  0.00    -0.024 C 
HETATM   10  C   UNK N   1      25.247  13.092   3.096  0.00  0.00     0.013 C 
HETATM   11  C   UNK N   1      23.874  13.007   2.852  0.00  0.00     0.014 C 
HETATM   12  C   UNK N   1      23.280  13.928   1.977  0.00  0.00    -0.008 C 
HETATM   13  C   UNK N   1      24.063  14.812   1.244  0.00  0.00     0.014 C 
HETATM   14  C   UNK N   1      25.407  14.892   1.482  0.00  0.00     0.013 C 
BRANCH  12  15
HETATM   15  C   UNK N   1      21.931  14.384   2.249  0.00  0.00     0.059 A 
HETATM   16  C   UNK N   1      20.825  13.613   2.532  0.00  0.00     0.119 A 
HETATM   17  N   UNK N   1      19.934  14.402   3.167  0.00  0.00    -0.352 N 
HETATM   18  C   UNK N   1      20.542  15.603   3.289  0.00  0.00     0.105 A 
ATOM     19  HN  UNK N   1      19.000  14.147   3.488  1.00  0.00     0.166 HD
HETATM   20  N   UNK N   1      21.748  15.624   2.726  0.00  0.00    -0.342 N 
HETATM   21  H   UNK N   1      22.370  16.385   2.672  0.00  0.00     0.167 HD
BRANCH  18  22
HETATM   22  C   UNK N   1      20.007  16.726   4.116  0.00  0.00     0.155 C 
HETATM   23  C   UNK N   1      20.538  18.032   3.561  0.00  0.00     0.035 C 
HETATM   24  C   UNK N   1      21.116  18.809   4.737  0.00  0.00     0.022 C 
HETATM   25  C   UNK N   1      21.118  17.877   5.933  0.00  0.00     0.127 C 
HETATM   26  N   UNK N   1      20.403  16.704   5.514  0.00  0.00    -0.338 N 
HETATM   27  C   UNK N   1      20.043  15.728   6.418  0.00  0.00     0.248 C 
HETATM   28  O   UNK N   1      19.440  14.731   6.044  0.00  0.00    -0.271 OA
BRANCH  27  29
HETATM   29  C   UNK N   1      20.332  15.928   7.903  0.00  0.00     0.212 C 
BRANCH  29  30
HETATM   30  C   UNK N   1      20.971  14.774   8.667  0.00  0.00    -0.026 A 
HETATM   31  C   UNK N   1      22.193  14.214   8.242  0.00  0.00     0.010 A 
HETATM   32  C   UNK N   1      22.732  13.094   8.881  0.00  0.00     0.001 A 
HETATM   33  C   UNK N   1      22.052  12.511   9.948  0.00  0.00     0.000 A 
HETATM   34  C   UNK N   1      20.839  13.055  10.376  0.00  0.00     0.001 A 
HETATM   35  C   UNK N   1      20.297  14.180   9.741  0.00  0.00     0.010 A 
ENDBRANCH  29  30
BRANCH  29  36
HETATM   36  N   UNK N   1      19.095  16.338   8.536  0.00  0.00    -0.320 N 
HETATM   37  C   UNK N   1      18.937  17.538   9.140  0.00  0.00     0.361 C 
HETATM   38  O   UNK N   1      19.858  18.346   9.164  0.00  0.00    -0.239 OA
HETATM   39  H   UNK N   1      18.333  15.713   8.527  0.00  0.00     0.166 HD
BRANCH  37  40
HETATM   40  O   UNK N   1      17.746  17.832   9.714  0.00  0.00    -0.309 OA
HETATM   41  C   UNK N   1      17.634  18.682  10.788  0.00  0.00     0.215 C 
ENDBRANCH  37  40
ENDBRANCH  29  36
ENDBRANCH  27  29
ENDBRANCH  18  22
ENDBRANCH  12  15
ENDBRANCH   8   9
BRANCH   1  42
HETATM   42  C   UNK N   1      29.987  16.823   6.097  0.00  0.00     0.068 C 
HETATM   43  C   UNK N   1      31.055  15.927   5.926  0.00  0.00     0.018 C 
HETATM   44  C   UNK N   1      31.918  15.759   6.968  0.00  0.00     0.057 A 
HETATM   45  N   UNK N   1      32.819  14.789   7.105  0.00  0.00    -0.343 N 
HETATM   46  C   UNK N   1      31.875  16.528   8.082  0.00  0.00     0.060 A 
HETATM   47  C   UNK N   1      33.316  15.001   8.342  0.00  0.00     0.105 A 
HETATM   48  H   UNK N   1      33.066  14.087   6.460  0.00  0.00     0.167 HD
HETATM   49  N   UNK N   1      32.777  16.087   8.958  0.00  0.00    -0.342 N 
ATOM     50  HN  UNK N   1      33.009  16.472   9.875  1.00  0.00     0.167 HD
HETATM   51  C   UNK N   1      30.972  17.573   8.225  0.00  0.00     0.029 C 
HETATM   52  C   UNK N   1      29.982  17.684   7.233  0.00  0.00    -0.011 C 
BRANCH  47  53
HETATM   53  C   UNK N   1      34.586  14.418   8.793  0.00  0.00     0.155 C 
HETATM   54  C   UNK N   1      35.716  14.955   9.612  0.00  0.00     0.035 C 
HETATM   55  C   UNK N   1      36.712  13.773   9.551  0.00  0.00     0.022 C 
HETATM   56  C   UNK N   1      35.959  12.537   8.991  0.00  0.00     0.127 C 
HETATM   57  N   UNK N   1      34.613  13.000   8.868  0.00  0.00    -0.339 N 
HETATM   58  C   UNK N   1      33.476  12.228   9.039  0.00  0.00     0.243 C 
HETATM   59  O   UNK N   1      32.430  12.764   9.367  0.00  0.00    -0.271 OA
BRANCH  58  60
HETATM   60  C   UNK N   1      33.409  10.741   8.780  0.00  0.00     0.182 C 
BRANCH  60  61
HETATM   61  C   UNK N   1      32.693  10.058   9.976  0.00  0.00     0.009 C 
HETATM   62  C   UNK N   1      32.214   8.669   9.608  0.00  0.00     0.012 C 
HETATM   63  C   UNK N   1      33.552   9.920  11.229  0.00  0.00     0.012 C 
ENDBRANCH  60  61
BRANCH  60  64
HETATM   64  N   UNK N   1      32.644  10.477   7.593  0.00  0.00    -0.323 N 
HETATM   65  C   UNK N   1      33.215  10.296   6.382  0.00  0.00     0.360 C 
HETATM   66  O   UNK N   1      34.433  10.264   6.275  0.00  0.00    -0.239 OA
HETATM   67  H   UNK N   1      31.664  10.426   7.664  0.00  0.00     0.165 HD
BRANCH  65  68
HETATM   68  O   UNK N   1      32.445  10.147   5.281  0.00  0.00    -0.309 OA
HETATM   69  C   UNK N   1      31.667  11.172   4.789  0.00  0.00     0.215 C 
ENDBRANCH  65  68
ENDBRANCH  60  64
ENDBRANCH  58  60
ENDBRANCH  47  53
ENDBRANCH   1  42
TORSDOF 13
ENDMDL
MODEL 4
REMARK VINA RESULT:      -9.9      2.669     14.211
REMARK  13 active torsions:
REMARK  status: ('A' for Active; 'I' for Inactive)
REMARK    1  A    between atoms: C_2  and  C_4 
REMARK    2  A    between atoms: C_4  and  C_5 
REMARK    3  A    between atoms: C_4  and  N_61 
REMARK       I    between atoms: C_5  and  N_7 
REMARK    4  A    between atoms: C_11  and  C_12 
REMARK    5  A    between atoms: C_16  and  C_22 
REMARK    6  A    between atoms: C_29  and  C_30 
REMARK    7  A    between atoms: C_33  and  C_36 
REMARK    8  A    between atoms: C_42  and  C_40 
REMARK       I    between atoms: N_46  and  C_47 
REMARK    9  A    between atoms: C_47  and  C_49 
REMARK   10  A    between atoms: C_49  and  C_50 
REMARK   11  A    between atoms: C_49  and  N_56 
REMARK       I    between atoms: N_56  and  C_57 
REMARK   12  A    between atoms: C_57  and  O_59 
REMARK       I    between atoms: N_61  and  C_62 
REMARK   13  A    between atoms: C_62  and  O_64 
ROOT
HETATM    1  C   UNK N   1      32.072  16.772   6.865  0.00  0.00    -0.022 A 
HETATM    2  C   UNK N   1      31.010  16.997   7.761  0.00  0.00     0.060 A 
HETATM    3  S   UNK N   1      29.628  17.035   6.800  0.00  0.00    -0.099 SA
HETATM    4  C   UNK N   1      30.329  16.875   5.305  0.00  0.00     0.034 A 
HETATM    5  C   UNK N   1      31.645  16.705   5.509  0.00  0.00     0.030 A 
HETATM    6  S   UNK N   1      32.374  16.627   4.019  0.00  0.00    -0.099 SA
HETATM    7  C   UNK N   1      31.024  16.768   3.047  0.00  0.00     0.064 A 
HETATM    8  C   UNK N   1      29.940  16.926   3.936  0.00  0.00    -0.001 A 
ENDROOT
BRANCH   8   9
HETATM    9  C   UNK N   1      28.554  17.038   3.519  0.00  0.00    -0.024 C 
HETATM   10  C   UNK N   1      27.832  15.904   3.116  0.00  0.00     0.013 C 
HETATM   11  C   UNK N   1      26.436  15.938   3.163  0.00  0.00     0.014 C 
HETATM   12  C   UNK N   1      25.798  17.106   3.604  0.00  0.00    -0.008 C 
HETATM   13  C   UNK N   1      26.531  18.264   3.841  0.00  0.00     0.014 C 
HETATM   14  C   UNK N   1      27.896  18.230   3.792  0.00  0.00     0.013 C 
BRANCH  12  15
HETATM   15  C   UNK N   1      24.570  16.990   4.364  0.00  0.00     0.059 A 
HETATM   16  C   UNK N   1      23.869  18.000   4.986  0.00  0.00     0.119 A 
HETATM   17  N   UNK N   1      22.602  17.570   5.154  0.00  0.00    -0.352 N 
HETATM   18  C   UNK N   1      22.564  16.341   4.592  0.00  0.00     0.105 A 
ATOM     19  HN  UNK N   1      21.835  18.065   5.609  1.00  0.00     0.166 HD
HETATM   20  N   UNK N   1      23.747  15.959   4.119  0.00  0.00    -0.342 N 
HETATM   21  H   UNK N   1      23.972  15.105   3.684  0.00  0.00     0.167 HD
BRANCH  18  22
HETATM   22  C   UNK N   1      21.304  15.572   4.358  0.00  0.00     0.155 C 
HETATM   23  C   UNK N   1      20.147  16.547   4.280  0.00  0.00     0.035 C 
HETATM   24  C   UNK N   1      19.069  16.031   5.223  0.00  0.00     0.022 C 
HETATM   25  C   UNK N   1      19.672  14.883   6.008  0.00  0.00     0.127 C 
HETATM   26  N   UNK N   1      20.953  14.632   5.411  0.00  0.00    -0.338 N 
HETATM   27  C   UNK N   1      21.694  13.521   5.751  0.00  0.00     0.248 C 
HETATM   28  O   UNK N   1      22.787  13.325   5.237  0.00  0.00    -0.271 OA
BRANCH  27  29
HETATM   29  C   UNK N   1      21.113  12.491   6.716  0.00  0.00     0.212 C 
BRANCH  29  30
HETATM   30  C   UNK N   1      21.708  12.412   8.118  0.00  0.00    -0.026 A 
HETATM   31  C   UNK N   1      22.827  11.598   8.384  0.00  0.00     0.010 A 
HETATM   32  C   UNK N   1      23.314  11.447   9.685  0.00  0.00     0.001 A 
HETATM   33  C   UNK N   1      22.681  12.099  10.742  0.00  0.00     0.000 A 
HETATM   34  C   UNK N   1      21.569  12.905  10.491  0.00  0.00     0.001 A 
HETATM   35  C   UNK N   1      21.080  13.062   9.187  0.00  0.00     0.010 A 
ENDBRANCH  29  30
BRANCH  29  36
HETATM   36  N   UNK N   1      21.171  11.199   6.062  0.00  0.00    -0.320 N 
HETATM   37  C   UNK N   1      20.130  10.671   5.378  0.00  0.00     0.361 C 
HETATM   38  O   UNK N   1      19.077  11.289   5.277  0.00  0.00    -0.239 OA
HETATM   39  H   UNK N   1      22.007  10.682   6.119  0.00  0.00     0.166 HD
BRANCH  37  40
HETATM   40  O   UNK N   1      20.273   9.452   4.806  0.00  0.00    -0.309 OA
HETATM   41  C   UNK N   1      20.246   8.287   5.535  0.00  0.00     0.215 C 
ENDBRANCH  37  40
ENDBRANCH  29  36
ENDBRANCH  27  29
ENDBRANCH  18  22
ENDBRANCH  12  15
ENDBRANCH   8   9
BRANCH   1  42
HETATM   42  C   UNK N   1      33.445  17.152   7.074  0.00  0.00     0.068 C 
HETATM   43  C   UNK N   1      34.189  15.986   6.828  0.00  0.00     0.018 C 
HETATM   44  C   UNK N   1      34.943  15.485   7.847  0.00  0.00     0.057 A 
HETATM   45  N   UNK N   1      35.501  14.277   7.904  0.00  0.00    -0.343 N 
HETATM   46  C   UNK N   1      35.122  16.145   9.016  0.00  0.00     0.060 A 
HETATM   47  C   UNK N   1      36.020  14.235   9.148  0.00  0.00     0.105 A 
HETATM   48  H   UNK N   1      35.529  13.582   7.206  0.00  0.00     0.167 HD
HETATM   49  N   UNK N   1      35.832  15.385   9.849  0.00  0.00    -0.342 N 
ATOM     50  HN  UNK N   1      36.158  15.612  10.789  1.00  0.00     0.167 HD
HETATM   51  C   UNK N   1      34.582  17.404   9.244  0.00  0.00     0.029 C 
HETATM   52  C   UNK N   1      33.688  17.887   8.271  0.00  0.00    -0.011 C 
BRANCH  47  53
HETATM   53  C   UNK N   1      37.043  13.257   9.544  0.00  0.00     0.155 C 
HETATM   54  C   UNK N   1      38.534  13.326   9.628  0.00  0.00     0.035 C 
HETATM   55  C   UNK N   1      38.875  11.869  10.021  0.00  0.00     0.022 C 
HETATM   56  C   UNK N   1      37.559  11.167  10.450  0.00  0.00     0.127 C 
HETATM   57  N   UNK N   1      36.593  12.218  10.400  0.00  0.00    -0.339 N 
HETATM   58  C   UNK N   1      35.495  12.343  11.234  0.00  0.00     0.243 C 
HETATM   59  O   UNK N   1      35.013  13.447  11.430  0.00  0.00    -0.271 OA
BRANCH  58  60
HETATM   60  C   UNK N   1      34.783  11.181  11.887  0.00  0.00     0.182 C 
BRANCH  60  61
HETATM   61  C   UNK N   1      34.515  11.532  13.375  0.00  0.00     0.009 C 
HETATM   62  C   UNK N   1      33.661  10.474  14.041  0.00  0.00     0.012 C 
HETATM   63  C   UNK N   1      35.774  11.692  14.220  0.00  0.00     0.012 C 
ENDBRANCH  60  61
BRANCH  60  64
HETATM   64  N   UNK N   1      33.517  10.951  11.247  0.00  0.00    -0.323 N 
HETATM   65  C   UNK N   1      33.329   9.980  10.327  0.00  0.00     0.360 C 
HETATM   66  O   UNK N   1      34.230   9.194  10.070  0.00  0.00    -0.239 OA
HETATM   67  H   UNK N   1      32.755  11.525  11.489  0.00  0.00     0.165 HD
BRANCH  65  68
HETATM   68  O   UNK N   1      32.144   9.869   9.685  0.00  0.00    -0.309 OA
HETATM   69  C   UNK N   1      31.621   8.647   9.324  0.00  0.00     0.215 C 
ENDBRANCH  65  68
ENDBRANCH  60  64
ENDBRANCH  58  60
ENDBRANCH  47  53
ENDBRANCH   1  42
TORSDOF 13
ENDMDL
MODEL 5
REMARK VINA RESULT:      -9.8      2.186      2.877
REMARK  13 active torsions:
REMARK  status: ('A' for Active; 'I' for Inactive)
REMARK    1  A    between atoms: C_2  and  C_4 
REMARK    2  A    between atoms: C_4  and  C_5 
REMARK    3  A    between atoms: C_4  and  N_61 
REMARK       I    between atoms: C_5  and  N_7 
REMARK    4  A    between atoms: C_11  and  C_12 
REMARK    5  A    between atoms: C_16  and  C_22 
REMARK    6  A    between atoms: C_29  and  C_30 
REMARK    7  A    between atoms: C_33  and  C_36 
REMARK    8  A    between atoms: C_42  and  C_40 
REMARK       I    between atoms: N_46  and  C_47 
REMARK    9  A    between atoms: C_47  and  C_49 
REMARK   10  A    between atoms: C_49  and  C_50 
REMARK   11  A    between atoms: C_49  and  N_56 
REMARK       I    between atoms: N_56  and  C_57 
REMARK   12  A    between atoms: C_57  and  O_59 
REMARK       I    between atoms: N_61  and  C_62 
REMARK   13  A    between atoms: C_62  and  O_64 
ROOT
HETATM    1  C   UNK N   1      29.461  16.705   4.780  0.00  0.00    -0.022 A 
HETATM    2  C   UNK N   1      29.154  16.060   5.993  0.00  0.00     0.060 A 
HETATM    3  S   UNK N   1      30.597  16.050   6.860  0.00  0.00    -0.099 SA
HETATM    4  C   UNK N   1      31.601  16.736   5.731  0.00  0.00     0.034 A 
HETATM    5  C   UNK N   1      30.833  17.068   4.681  0.00  0.00     0.030 A 
HETATM    6  S   UNK N   1      31.836  17.680   3.507  0.00  0.00    -0.099 SA
HETATM    7  C   UNK N   1      33.294  17.582   4.313  0.00  0.00     0.064 A 
HETATM    8  C   UNK N   1      32.990  16.998   5.562  0.00  0.00    -0.001 A 
ENDROOT
BRANCH   8   9
HETATM    9  C   UNK N   1      33.965  16.768   6.612  0.00  0.00    -0.024 C 
HETATM   10  C   UNK N   1      33.963  17.548   7.778  0.00  0.00     0.013 C 
HETATM   11  C   UNK N   1      34.568  17.045   8.932  0.00  0.00     0.014 C 
HETATM   12  C   UNK N   1      35.168  15.778   8.888  0.00  0.00    -0.008 C 
HETATM   13  C   UNK N   1      35.297  15.099   7.681  0.00  0.00     0.014 C 
HETATM   14  C   UNK N   1      34.706  15.595   6.553  0.00  0.00     0.013 C 
BRANCH  12  15
HETATM   15  C   UNK N   1      35.109  14.932  10.064  0.00  0.00     0.059 A 
HETATM   16  C   UNK N   1      34.180  14.972  11.080  0.00  0.00     0.119 A 
HETATM   17  N   UNK N   1      34.198  13.769  11.692  0.00  0.00    -0.352 N 
HETATM   18  C   UNK N   1      35.096  13.031  11.003  0.00  0.00     0.105 A 
ATOM     19  HN  UNK N   1      33.650  13.478  12.502  1.00  0.00     0.166 HD
HETATM   20  N   UNK N   1      35.675  13.717  10.020  0.00  0.00    -0.342 N 
HETATM   21  H   UNK N   1      36.368  13.401   9.396  0.00  0.00     0.167 HD
BRANCH  18  22
HETATM   22  C   UNK N   1      35.289  11.562  11.197  0.00  0.00     0.155 C 
HETATM   23  C   UNK N   1      34.144  10.830  10.527  0.00  0.00     0.035 C 
HETATM   24  C   UNK N   1      33.590   9.846  11.550  0.00  0.00     0.022 C 
HETATM   25  C   UNK N   1      34.262  10.150  12.874  0.00  0.00     0.127 C 
HETATM   26  N   UNK N   1      35.282  11.118  12.581  0.00  0.00    -0.338 N 
HETATM   27  C   UNK N   1      36.221  11.473  13.525  0.00  0.00     0.248 C 
HETATM   28  O   UNK N   1      37.079  12.304  13.262  0.00  0.00    -0.271 OA
BRANCH  27  29
HETATM   29  C   UNK N   1      36.236  10.769  14.880  0.00  0.00     0.212 C 
BRANCH  29  30
HETATM   30  C   UNK N   1      35.783  11.563  16.100  0.00  0.00    -0.026 A 
HETATM   31  C   UNK N   1      35.578  12.955  16.023  0.00  0.00     0.010 A 
HETATM   32  C   UNK N   1      35.259  13.700  17.162  0.00  0.00     0.001 A 
HETATM   33  C   UNK N   1      35.152  13.065  18.397  0.00  0.00     0.000 A 
HETATM   34  C   UNK N   1      35.357  11.687  18.487  0.00  0.00     0.001 A 
HETATM   35  C   UNK N   1      35.673  10.936  17.347  0.00  0.00     0.010 A 
ENDBRANCH  29  30
BRANCH  29  36
HETATM   36  N   UNK N   1      37.568  10.237  15.080  0.00  0.00    -0.320 N 
HETATM   37  C   UNK N   1      37.939   9.002  14.672  0.00  0.00     0.361 C 
HETATM   38  O   UNK N   1      37.140   8.274  14.094  0.00  0.00    -0.239 OA
HETATM   39  H   UNK N   1      38.235  10.801  15.535  0.00  0.00     0.166 HD
BRANCH  37  40
HETATM   40  O   UNK N   1      39.205   8.585  14.911  0.00  0.00    -0.309 OA
HETATM   41  C   UNK N   1      39.512   7.691  15.909  0.00  0.00     0.215 C 
ENDBRANCH  37  40
ENDBRANCH  29  36
ENDBRANCH  27  29
ENDBRANCH  18  22
ENDBRANCH  12  15
ENDBRANCH   8   9
BRANCH   1  42
HETATM   42  C   UNK N   1      28.766  16.526   3.532  0.00  0.00     0.068 C 
HETATM   43  C   UNK N   1      27.461  16.989   3.770  0.00  0.00     0.018 C 
HETATM   44  C   UNK N   1      26.435  16.105   3.622  0.00  0.00     0.057 A 
HETATM   45  N   UNK N   1      25.182  16.264   4.042  0.00  0.00    -0.343 N 
HETATM   46  C   UNK N   1      26.609  14.863   3.109  0.00  0.00     0.060 A 
HETATM   47  C   UNK N   1      24.609  15.074   3.764  0.00  0.00     0.105 A 
HETATM   48  H   UNK N   1      24.770  17.058   4.455  0.00  0.00     0.167 HD
HETATM   49  N   UNK N   1      25.455  14.199   3.157  0.00  0.00    -0.342 N 
ATOM     50  HN  UNK N   1      25.253  13.257   2.820  1.00  0.00     0.167 HD
HETATM   51  C   UNK N   1      27.844  14.417   2.658  0.00  0.00     0.029 C 
HETATM   52  C   UNK N   1      28.945  15.250   2.923  0.00  0.00    -0.011 C 
BRANCH  47  53
HETATM   53  C   UNK N   1      23.152  14.893   3.708  0.00  0.00     0.155 C 
HETATM   54  C   UNK N   1      22.186  14.781   2.573  0.00  0.00     0.035 C 
HETATM   55  C   UNK N   1      20.842  14.715   3.335  0.00  0.00     0.022 C 
HETATM   56  C   UNK N   1      21.151  14.463   4.834  0.00  0.00     0.127 C 
HETATM   57  N   UNK N   1      22.569  14.290   4.854  0.00  0.00    -0.339 N 
HETATM   58  C   UNK N   1      23.268  13.459   5.713  0.00  0.00     0.243 C 
HETATM   59  O   UNK N   1      24.360  13.030   5.378  0.00  0.00    -0.271 OA
BRANCH  58  60
HETATM   60  C   UNK N   1      22.804  13.084   7.102  0.00  0.00     0.182 C 
BRANCH  60  61
HETATM   61  C   UNK N   1      23.972  12.384   7.846  0.00  0.00     0.009 C 
HETATM   62  C   UNK N   1      24.425  13.196   9.041  0.00  0.00     0.012 C 
HETATM   63  C   UNK N   1      23.646  10.982   8.352  0.00  0.00     0.012 C 
ENDBRANCH  60  61
BRANCH  60  64
HETATM   64  N   UNK N   1      22.447  14.263   7.842  0.00  0.00    -0.323 N 
HETATM   65  C   UNK N   1      21.225  14.437   8.391  0.00  0.00     0.360 C 
HETATM   66  O   UNK N   1      20.397  13.539   8.348  0.00  0.00    -0.239 OA
HETATM   67  H   UNK N   1      23.119  14.973   7.953  0.00  0.00     0.165 HD
BRANCH  65  68
HETATM   68  O   UNK N   1      20.910  15.606   8.994  0.00  0.00    -0.309 OA
HETATM   69  C   UNK N   1      20.389  16.672   8.294  0.00  0.00     0.215 C 
ENDBRANCH  65  68
ENDBRANCH  60  64
ENDBRANCH  58  60
ENDBRANCH  47  53
ENDBRANCH   1  42
TORSDOF 13
ENDMDL
MODEL 6
REMARK VINA RESULT:      -9.6      1.609      2.230
REMARK  13 active torsions:
REMARK  status: ('A' for Active; 'I' for Inactive)
REMARK    1  A    between atoms: C_2  and  C_4 
REMARK    2  A    between atoms: C_4  and  C_5 
REMARK    3  A    between atoms: C_4  and  N_61 
REMARK       I    between atoms: C_5  and  N_7 
REMARK    4  A    between atoms: C_11  and  C_12 
REMARK    5  A    between atoms: C_16  and  C_22 
REMARK    6  A    between atoms: C_29  and  C_30 
REMARK    7  A    between atoms: C_33  and  C_36 
REMARK    8  A    between atoms: C_42  and  C_40 
REMARK       I    between atoms: N_46  and  C_47 
REMARK    9  A    between atoms: C_47  and  C_49 
REMARK   10  A    between atoms: C_49  and  C_50 
REMARK   11  A    between atoms: C_49  and  N_56 
REMARK       I    between atoms: N_56  and  C_57 
REMARK   12  A    between atoms: C_57  and  O_59 
REMARK       I    between atoms: N_61  and  C_62 
REMARK   13  A    between atoms: C_62  and  O_64 
ROOT
HETATM    1  C   UNK N   1      28.458  18.089   5.623  0.00  0.00    -0.022 A 
HETATM    2  C   UNK N   1      28.954  17.422   4.486  0.00  0.00     0.060 A 
HETATM    3  S   UNK N   1      30.280  16.544   5.038  0.00  0.00    -0.099 SA
HETATM    4  C   UNK N   1      30.304  17.047   6.619  0.00  0.00     0.034 A 
HETATM    5  C   UNK N   1      29.238  17.846   6.788  0.00  0.00     0.030 A 
HETATM    6  S   UNK N   1      29.293  18.425   8.343  0.00  0.00    -0.099 SA
HETATM    7  C   UNK N   1      30.667  17.643   8.879  0.00  0.00     0.064 A 
HETATM    8  C   UNK N   1      31.138  16.914   7.766  0.00  0.00    -0.001 A 
ENDROOT
BRANCH   8   9
HETATM    9  C   UNK N   1      32.298  16.042   7.795  0.00  0.00    -0.024 C 
HETATM   10  C   UNK N   1      33.580  16.544   7.528  0.00  0.00     0.013 C 
HETATM   11  C   UNK N   1      34.694  15.841   7.994  0.00  0.00     0.014 C 
HETATM   12  C   UNK N   1      34.497  14.650   8.708  0.00  0.00    -0.008 C 
HETATM   13  C   UNK N   1      33.226  14.094   8.817  0.00  0.00     0.014 C 
HETATM   14  C   UNK N   1      32.139  14.782   8.358  0.00  0.00     0.013 C 
BRANCH  12  15
HETATM   15  C   UNK N   1      35.405  14.321   9.789  0.00  0.00     0.059 A 
HETATM   16  C   UNK N   1      36.598  14.935  10.099  0.00  0.00     0.119 A 
HETATM   17  N   UNK N   1      36.870  14.660  11.392  0.00  0.00    -0.352 N 
HETATM   18  C   UNK N   1      35.819  13.933  11.832  0.00  0.00     0.105 A 
ATOM     19  HN  UNK N   1      37.694  14.940  11.924  1.00  0.00     0.166 HD
HETATM   20  N   UNK N   1      34.924  13.699  10.876  0.00  0.00    -0.342 N 
HETATM   21  H   UNK N   1      34.089  13.182  10.950  0.00  0.00     0.167 HD
BRANCH  18  22
HETATM   22  C   UNK N   1      35.592  13.584  13.267  0.00  0.00     0.155 C 
HETATM   23  C   UNK N   1      36.336  14.582  14.132  0.00  0.00     0.035 C 
HETATM   24  C   UNK N   1      37.150  13.775  15.136  0.00  0.00     0.022 C 
HETATM   25  C   UNK N   1      37.052  12.320  14.726  0.00  0.00     0.127 C 
HETATM   26  N   UNK N   1      36.082  12.276  13.668  0.00  0.00    -0.338 N 
HETATM   27  C   UNK N   1      35.600  11.076  13.191  0.00  0.00     0.248 C 
HETATM   28  O   UNK N   1      34.778  11.056  12.285  0.00  0.00    -0.271 OA
BRANCH  27  29
HETATM   29  C   UNK N   1      36.037   9.770  13.849  0.00  0.00     0.212 C 
BRANCH  29  30
HETATM   30  C   UNK N   1      35.865   9.639  15.358  0.00  0.00    -0.026 A 
HETATM   31  C   UNK N   1      34.661  10.020  15.984  0.00  0.00     0.010 A 
HETATM   32  C   UNK N   1      34.536   9.994  17.376  0.00  0.00     0.001 A 
HETATM   33  C   UNK N   1      35.615   9.597  18.162  0.00  0.00     0.000 A 
HETATM   34  C   UNK N   1      36.814   9.221  17.553  0.00  0.00     0.001 A 
HETATM   35  C   UNK N   1      36.943   9.242  16.158  0.00  0.00     0.010 A 
ENDBRANCH  29  30
BRANCH  29  36
HETATM   36  N   UNK N   1      37.414   9.529  13.467  0.00  0.00    -0.320 N 
HETATM   37  C   UNK N   1      37.765   8.711  12.449  0.00  0.00     0.361 C 
HETATM   38  O   UNK N   1      36.906   8.138  11.790  0.00  0.00    -0.239 OA
HETATM   39  H   UNK N   1      38.127   9.982  13.973  0.00  0.00     0.166 HD
BRANCH  37  40
HETATM   40  O   UNK N   1      39.079   8.539  12.170  0.00  0.00    -0.309 OA
HETATM   41  C   UNK N   1      39.920   7.822  12.987  0.00  0.00     0.215 C 
ENDBRANCH  37  40
ENDBRANCH  29  36
ENDBRANCH  27  29
ENDBRANCH  18  22
ENDBRANCH  12  15
ENDBRANCH   8   9
BRANCH   1  42
HETATM   42  C   UNK N   1      27.700  19.313   5.617  0.00  0.00     0.068 C 
HETATM   43  C   UNK N   1      26.383  18.929   5.922  0.00  0.00     0.018 C 
HETATM   44  C   UNK N   1      25.415  19.188   4.999  0.00  0.00     0.057 A 
HETATM   45  N   UNK N   1      24.182  18.685   4.977  0.00  0.00    -0.343 N 
HETATM   46  C   UNK N   1      25.644  19.930   3.890  0.00  0.00     0.060 A 
HETATM   47  C   UNK N   1      23.679  19.149   3.815  0.00  0.00     0.105 A 
HETATM   48  H   UNK N   1      23.743  18.112   5.648  0.00  0.00     0.167 HD
HETATM   49  N   UNK N   1      24.544  19.949   3.136  0.00  0.00    -0.342 N 
ATOM     50  HN  UNK N   1      24.389  20.445   2.258  1.00  0.00     0.167 HD
HETATM   51  C   UNK N   1      26.875  20.517   3.633  0.00  0.00     0.029 C 
HETATM   52  C   UNK N   1      27.930  20.156   4.491  0.00  0.00    -0.011 C 
BRANCH  47  53
HETATM   53  C   UNK N   1      22.238  19.166   3.530  0.00  0.00     0.155 C 
HETATM   54  C   UNK N   1      21.393  19.998   2.619  0.00  0.00     0.035 C 
HETATM   55  C   UNK N   1      19.979  19.477   2.970  0.00  0.00     0.022 C 
HETATM   56  C   UNK N   1      20.139  18.176   3.801  0.00  0.00     0.127 C 
HETATM   57  N   UNK N   1      21.550  17.953   3.795  0.00  0.00    -0.339 N 
HETATM   58  C   UNK N   1      22.170  16.715   3.801  0.00  0.00     0.243 C 
HETATM   59  O   UNK N   1      23.296  16.605   3.344  0.00  0.00    -0.271 OA
BRANCH  58  60
HETATM   60  C   UNK N   1      21.574  15.465   4.406  0.00  0.00     0.182 C 
BRANCH  60  61
HETATM   61  C   UNK N   1      21.123  14.521   3.259  0.00  0.00     0.009 C 
HETATM   62  C   UNK N   1      21.868  13.204   3.310  0.00  0.00     0.012 C 
HETATM   63  C   UNK N   1      19.633  14.196   3.261  0.00  0.00     0.012 C 
ENDBRANCH  60  61
BRANCH  60  64
HETATM   64  N   UNK N   1      22.559  14.774   5.192  0.00  0.00    -0.323 N 
HETATM   65  C   UNK N   1      22.672  14.937   6.528  0.00  0.00     0.360 C 
HETATM   66  O   UNK N   1      21.864  15.627   7.135  0.00  0.00    -0.239 OA
HETATM   67  H   UNK N   1      23.176  14.157   4.738  0.00  0.00     0.165 HD
BRANCH  65  68
HETATM   68  O   UNK N   1      23.678  14.337   7.205  0.00  0.00    -0.309 OA
HETATM   69  C   UNK N   1      23.973  13.002   7.042  0.00  0.00     0.215 C 
ENDBRANCH  65  68
ENDBRANCH  60  64
ENDBRANCH  58  60
ENDBRANCH  47  53
ENDBRANCH   1  42
TORSDOF 13
ENDMDL
MODEL 7
REMARK VINA RESULT:      -9.5      1.874      3.128
REMARK  13 active torsions:
REMARK  status: ('A' for Active; 'I' for Inactive)
REMARK    1  A    between atoms: C_2  and  C_4 
REMARK    2  A    between atoms: C_4  and  C_5 
REMARK    3  A    between atoms: C_4  and  N_61 
REMARK       I    between atoms: C_5  and  N_7 
REMARK    4  A    between atoms: C_11  and  C_12 
REMARK    5  A    between atoms: C_16  and  C_22 
REMARK    6  A    between atoms: C_29  and  C_30 
REMARK    7  A    between atoms: C_33  and  C_36 
REMARK    8  A    between atoms: C_42  and  C_40 
REMARK       I    between atoms: N_46  and  C_47 
REMARK    9  A    between atoms: C_47  and  C_49 
REMARK   10  A    between atoms: C_49  and  C_50 
REMARK   11  A    between atoms: C_49  and  N_56 
REMARK       I    between atoms: N_56  and  C_57 
REMARK   12  A    between atoms: C_57  and  O_59 
REMARK       I    between atoms: N_61  and  C_62 
REMARK   13  A    between atoms: C_62  and  O_64 
ROOT
HETATM    1  C   UNK N   1      28.625  18.119   5.697  0.00  0.00    -0.022 A 
HETATM    2  C   UNK N   1      29.214  17.502   4.578  0.00  0.00     0.060 A 
HETATM    3  S   UNK N   1      30.544  16.669   5.187  0.00  0.00    -0.099 SA
HETATM    4  C   UNK N   1      30.455  17.135   6.778  0.00  0.00     0.034 A 
HETATM    5  C   UNK N   1      29.347  17.883   6.901  0.00  0.00     0.030 A 
HETATM    6  S   UNK N   1      29.287  18.428   8.469  0.00  0.00    -0.099 SA
HETATM    7  C   UNK N   1      30.661  17.693   9.067  0.00  0.00     0.064 A 
HETATM    8  C   UNK N   1      31.227  17.011   7.968  0.00  0.00    -0.001 A 
ENDROOT
BRANCH   8   9
HETATM    9  C   UNK N   1      32.421  16.189   8.046  0.00  0.00    -0.024 C 
HETATM   10  C   UNK N   1      33.616  16.706   8.568  0.00  0.00     0.013 C 
HETATM   11  C   UNK N   1      34.582  15.822   9.054  0.00  0.00     0.014 C 
HETATM   12  C   UNK N   1      34.332  14.443   8.998  0.00  0.00    -0.008 C 
HETATM   13  C   UNK N   1      33.214  13.955   8.330  0.00  0.00     0.014 C 
HETATM   14  C   UNK N   1      32.272  14.822   7.853  0.00  0.00     0.013 C 
BRANCH  12  15
HETATM   15  C   UNK N   1      34.828  13.596  10.064  0.00  0.00     0.059 A 
HETATM   16  C   UNK N   1      36.019  12.905  10.103  0.00  0.00     0.119 A 
HETATM   17  N   UNK N   1      36.298  12.652  11.398  0.00  0.00    -0.352 N 
HETATM   18  C   UNK N   1      35.300  13.233  12.100  0.00  0.00     0.105 A 
ATOM     19  HN  UNK N   1      37.094  12.133  11.770  1.00  0.00     0.166 HD
HETATM   20  N   UNK N   1      34.386  13.799  11.315  0.00  0.00    -0.342 N 
HETATM   21  H   UNK N   1      33.564  14.265  11.591  0.00  0.00     0.167 HD
BRANCH  18  22
HETATM   22  C   UNK N   1      35.307  13.386  13.586  0.00  0.00     0.155 C 
HETATM   23  C   UNK N   1      36.251  14.514  13.952  0.00  0.00     0.035 C 
HETATM   24  C   UNK N   1      37.178  13.980  15.036  0.00  0.00     0.022 C 
HETATM   25  C   UNK N   1      36.922  12.490  15.151  0.00  0.00     0.127 C 
HETATM   26  N   UNK N   1      35.780  12.225  14.322  0.00  0.00    -0.338 N 
HETATM   27  C   UNK N   1      35.150  10.999  14.346  0.00  0.00     0.248 C 
HETATM   28  O   UNK N   1      34.182  10.787  13.628  0.00  0.00    -0.271 OA
BRANCH  27  29
HETATM   29  C   UNK N   1      35.616   9.928  15.328  0.00  0.00     0.212 C 
BRANCH  29  30
HETATM   30  C   UNK N   1      35.673   8.486  14.837  0.00  0.00    -0.026 A 
HETATM   31  C   UNK N   1      35.699   7.412  15.749  0.00  0.00     0.010 A 
HETATM   32  C   UNK N   1      35.850   6.095  15.305  0.00  0.00     0.001 A 
HETATM   33  C   UNK N   1      35.988   5.834  13.944  0.00  0.00     0.000 A 
HETATM   34  C   UNK N   1      35.967   6.891  13.031  0.00  0.00     0.001 A 
HETATM   35  C   UNK N   1      35.812   8.212  13.471  0.00  0.00     0.010 A 
ENDBRANCH  29  30
BRANCH  29  36
HETATM   36  N   UNK N   1      34.789  10.033  16.513  0.00  0.00    -0.320 N 
HETATM   37  C   UNK N   1      35.291  10.279  17.745  0.00  0.00     0.361 C 
HETATM   38  O   UNK N   1      36.496  10.436  17.903  0.00  0.00    -0.239 OA
HETATM   39  H   UNK N   1      33.816   9.920  16.417  0.00  0.00     0.166 HD
BRANCH  37  40
HETATM   40  O   UNK N   1      34.442  10.352  18.797  0.00  0.00    -0.309 OA
HETATM   41  C   UNK N   1      34.555   9.532  19.894  0.00  0.00     0.215 C 
ENDBRANCH  37  40
ENDBRANCH  29  36
ENDBRANCH  27  29
ENDBRANCH  18  22
ENDBRANCH  12  15
ENDBRANCH   8   9
BRANCH   1  42
HETATM   42  C   UNK N   1      27.815  19.309   5.673  0.00  0.00     0.068 C 
HETATM   43  C   UNK N   1      26.524  18.881   6.026  0.00  0.00     0.018 C 
HETATM   44  C   UNK N   1      25.522  19.069   5.121  0.00  0.00     0.057 A 
HETATM   45  N   UNK N   1      24.313  18.513   5.148  0.00  0.00    -0.343 N 
HETATM   46  C   UNK N   1      25.691  19.783   3.983  0.00  0.00     0.060 A 
HETATM   47  C   UNK N   1      23.760  18.918   3.986  0.00  0.00     0.105 A 
HETATM   48  H   UNK N   1      23.915  17.945   5.848  0.00  0.00     0.167 HD
HETATM   49  N   UNK N   1      24.573  19.731   3.259  0.00  0.00    -0.342 N 
ATOM     50  HN  UNK N   1      24.374  20.190   2.370  1.00  0.00     0.167 HD
HETATM   51  C   UNK N   1      26.889  20.412   3.675  0.00  0.00     0.029 C 
HETATM   52  C   UNK N   1      27.980  20.124   4.515  0.00  0.00    -0.011 C 
BRANCH  47  53
HETATM   53  C   UNK N   1      22.313  18.865   3.739  0.00  0.00     0.155 C 
HETATM   54  C   UNK N   1      21.364  19.800   3.060  0.00  0.00     0.035 C 
HETATM   55  C   UNK N   1      20.016  19.083   3.308  0.00  0.00     0.022 C 
HETATM   56  C   UNK N   1      20.320  17.648   3.813  0.00  0.00     0.127 C 
HETATM   57  N   UNK N   1      21.744  17.564   3.731  0.00  0.00    -0.339 N 
HETATM   58  C   UNK N   1      22.469  16.421   3.440  0.00  0.00     0.243 C 
HETATM   59  O   UNK N   1      23.581  16.524   2.949  0.00  0.00    -0.271 OA
BRANCH  58  60
HETATM   60  C   UNK N   1      22.007  15.016   3.752  0.00  0.00     0.182 C 
BRANCH  60  61
HETATM   61  C   UNK N   1      21.851  14.234   2.420  0.00  0.00     0.009 C 
HETATM   62  C   UNK N   1      21.545  12.773   2.675  0.00  0.00     0.012 C 
HETATM   63  C   UNK N   1      20.758  14.769   1.501  0.00  0.00     0.012 C 
ENDBRANCH  60  61
BRANCH  60  64
HETATM   64  N   UNK N   1      22.986  14.338   4.555  0.00  0.00    -0.323 N 
HETATM   65  C   UNK N   1      22.876  14.222   5.897  0.00  0.00     0.360 C 
HETATM   66  O   UNK N   1      21.873  14.624   6.469  0.00  0.00    -0.239 OA
HETATM   67  H   UNK N   1      23.770  13.942   4.110  0.00  0.00     0.165 HD
BRANCH  65  68
HETATM   68  O   UNK N   1      23.874  13.658   6.616  0.00  0.00    -0.309 OA
HETATM   69  C   UNK N   1      23.850  13.621   7.993  0.00  0.00     0.215 C 
ENDBRANCH  65  68
ENDBRANCH  60  64
ENDBRANCH  58  60
ENDBRANCH  47  53
ENDBRANCH   1  42
TORSDOF 13
ENDMDL
MODEL 8
REMARK VINA RESULT:      -9.5      1.712      3.141
REMARK  13 active torsions:
REMARK  status: ('A' for Active; 'I' for Inactive)
REMARK    1  A    between atoms: C_2  and  C_4 
REMARK    2  A    between atoms: C_4  and  C_5 
REMARK    3  A    between atoms: C_4  and  N_61 
REMARK       I    between atoms: C_5  and  N_7 
REMARK    4  A    between atoms: C_11  and  C_12 
REMARK    5  A    between atoms: C_16  and  C_22 
REMARK    6  A    between atoms: C_29  and  C_30 
REMARK    7  A    between atoms: C_33  and  C_36 
REMARK    8  A    between atoms: C_42  and  C_40 
REMARK       I    between atoms: N_46  and  C_47 
REMARK    9  A    between atoms: C_47  and  C_49 
REMARK   10  A    between atoms: C_49  and  C_50 
REMARK   11  A    between atoms: C_49  and  N_56 
REMARK       I    between atoms: N_56  and  C_57 
REMARK   12  A    between atoms: C_57  and  O_59 
REMARK       I    between atoms: N_61  and  C_62 
REMARK   13  A    between atoms: C_62  and  O_64 
ROOT
HETATM    1  C   UNK N   1      28.232  18.158   5.514  0.00  0.00    -0.022 A 
HETATM    2  C   UNK N   1      28.728  17.482   4.384  0.00  0.00     0.060 A 
HETATM    3  S   UNK N   1      30.083  16.648   4.932  0.00  0.00    -0.099 SA
HETATM    4  C   UNK N   1      30.116  17.181   6.504  0.00  0.00     0.034 A 
HETATM    5  C   UNK N   1      29.034  17.956   6.673  0.00  0.00     0.030 A 
HETATM    6  S   UNK N   1      29.096  18.567   8.216  0.00  0.00    -0.099 SA
HETATM    7  C   UNK N   1      30.496  17.829   8.747  0.00  0.00     0.064 A 
HETATM    8  C   UNK N   1      30.970  17.091   7.641  0.00  0.00    -0.001 A 
ENDROOT
BRANCH   8   9
HETATM    9  C   UNK N   1      32.151  16.248   7.669  0.00  0.00    -0.024 C 
HETATM   10  C   UNK N   1      33.317  16.624   6.987  0.00  0.00     0.013 C 
HETATM   11  C   UNK N   1      34.540  16.075   7.381  0.00  0.00     0.014 C 
HETATM   12  C   UNK N   1      34.564  15.159   8.443  0.00  0.00    -0.008 C 
HETATM   13  C   UNK N   1      33.378  14.684   8.992  0.00  0.00     0.014 C 
HETATM   14  C   UNK N   1      32.183  15.220   8.602  0.00  0.00     0.013 C 
BRANCH  12  15
HETATM   15  C   UNK N   1      35.701  15.155   9.342  0.00  0.00     0.059 A 
HETATM   16  C   UNK N   1      35.817  15.804  10.551  0.00  0.00     0.119 A 
HETATM   17  N   UNK N   1      36.784  15.180  11.254  0.00  0.00    -0.352 N 
HETATM   18  C   UNK N   1      37.188  14.154  10.474  0.00  0.00     0.105 A 
ATOM     19  HN  UNK N   1      37.137  15.430  12.178  1.00  0.00     0.166 HD
HETATM   20  N   UNK N   1      36.558  14.125   9.302  0.00  0.00    -0.342 N 
HETATM   21  H   UNK N   1      36.692  13.485   8.565  0.00  0.00     0.167 HD
BRANCH  18  22
HETATM   22  C   UNK N   1      38.101  13.066  10.937  0.00  0.00     0.155 C 
HETATM   23  C   UNK N   1      39.020  12.685   9.794  0.00  0.00     0.035 C 
HETATM   24  C   UNK N   1      38.960  11.168   9.666  0.00  0.00     0.022 C 
HETATM   25  C   UNK N   1      37.854  10.684  10.582  0.00  0.00     0.127 C 
HETATM   26  N   UNK N   1      37.439  11.834  11.335  0.00  0.00    -0.338 N 
HETATM   27  C   UNK N   1      36.580  11.714  12.406  0.00  0.00     0.248 C 
HETATM   28  O   UNK N   1      36.231  12.705  13.034  0.00  0.00    -0.271 OA
BRANCH  27  29
HETATM   29  C   UNK N   1      36.124  10.329  12.859  0.00  0.00     0.212 C 
BRANCH  29  30
HETATM   30  C   UNK N   1      35.108   9.595  11.992  0.00  0.00    -0.026 A 
HETATM   31  C   UNK N   1      34.055  10.291  11.364  0.00  0.00     0.010 A 
HETATM   32  C   UNK N   1      33.067   9.608  10.650  0.00  0.00     0.001 A 
HETATM   33  C   UNK N   1      33.110   8.218  10.563  0.00  0.00     0.000 A 
HETATM   34  C   UNK N   1      34.146   7.518  11.183  0.00  0.00     0.001 A 
HETATM   35  C   UNK N   1      35.141   8.198  11.897  0.00  0.00     0.010 A 
ENDBRANCH  29  30
BRANCH  29  36
HETATM   36  N   UNK N   1      35.642  10.452  14.220  0.00  0.00    -0.320 N 
HETATM   37  C   UNK N   1      36.373  10.088  15.298  0.00  0.00     0.361 C 
HETATM   38  O   UNK N   1      37.505   9.638  15.156  0.00  0.00    -0.239 OA
HETATM   39  H   UNK N   1      34.740  10.818  14.367  0.00  0.00     0.166 HD
BRANCH  37  40
HETATM   40  O   UNK N   1      35.837  10.230  16.533  0.00  0.00    -0.309 OA
HETATM   41  C   UNK N   1      35.422   9.158  17.285  0.00  0.00     0.215 C 
ENDBRANCH  37  40
ENDBRANCH  29  36
ENDBRANCH  27  29
ENDBRANCH  18  22
ENDBRANCH  12  15
ENDBRANCH   8   9
BRANCH   1  42
HETATM   42  C   UNK N   1      27.443  19.362   5.497  0.00  0.00     0.068 C 
HETATM   43  C   UNK N   1      26.142  18.953   5.833  0.00  0.00     0.018 C 
HETATM   44  C   UNK N   1      25.151  19.169   4.922  0.00  0.00     0.057 A 
HETATM   45  N   UNK N   1      23.932  18.635   4.932  0.00  0.00    -0.343 N 
HETATM   46  C   UNK N   1      25.343  19.893   3.793  0.00  0.00     0.060 A 
HETATM   47  C   UNK N   1      23.398  19.062   3.770  0.00  0.00     0.105 A 
HETATM   48  H   UNK N   1      23.519  18.066   5.622  0.00  0.00     0.167 HD
HETATM   49  N   UNK N   1      24.231  19.868   3.059  0.00  0.00    -0.342 N 
ATOM     50  HN  UNK N   1      24.048  20.341   2.173  1.00  0.00     0.167 HD
HETATM   51  C   UNK N   1      26.555  20.504   3.504  0.00  0.00     0.029 C 
HETATM   52  C   UNK N   1      27.633  20.187   4.350  0.00  0.00    -0.011 C 
BRANCH  47  53
HETATM   53  C   UNK N   1      21.952  19.038   3.510  0.00  0.00     0.155 C 
HETATM   54  C   UNK N   1      21.025  20.001   2.840  0.00  0.00     0.035 C 
HETATM   55  C   UNK N   1      19.662  19.302   3.063  0.00  0.00     0.022 C 
HETATM   56  C   UNK N   1      19.939  17.853   3.545  0.00  0.00     0.127 C 
HETATM   57  N   UNK N   1      21.361  17.747   3.473  0.00  0.00    -0.339 N 
HETATM   58  C   UNK N   1      22.070  16.597   3.167  0.00  0.00     0.243 C 
HETATM   59  O   UNK N   1      23.188  16.691   2.687  0.00  0.00    -0.271 OA
BRANCH  58  60
HETATM   60  C   UNK N   1      21.582  15.195   3.449  0.00  0.00     0.182 C 
BRANCH  60  61
HETATM   61  C   UNK N   1      21.322  14.476   2.099  0.00  0.00     0.009 C 
HETATM   62  C   UNK N   1      20.522  15.351   1.157  0.00  0.00     0.012 C 
HETATM   63  C   UNK N   1      22.586  14.054   1.357  0.00  0.00     0.012 C 
ENDBRANCH  60  61
BRANCH  60  64
HETATM   64  N   UNK N   1      22.585  14.454   4.163  0.00  0.00    -0.323 N 
HETATM   65  C   UNK N   1      22.579  14.326   5.508  0.00  0.00     0.360 C 
HETATM   66  O   UNK N   1      21.649  14.774   6.165  0.00  0.00    -0.239 OA
HETATM   67  H   UNK N   1      23.306  14.022   3.652  0.00  0.00     0.165 HD
BRANCH  65  68
HETATM   68  O   UNK N   1      23.599  13.700   6.138  0.00  0.00    -0.309 OA
HETATM   69  C   UNK N   1      23.819  13.841   7.490  0.00  0.00     0.215 C 
ENDBRANCH  65  68
ENDBRANCH  60  64
ENDBRANCH  58  60
ENDBRANCH  47  53
ENDBRANCH   1  42
TORSDOF 13
ENDMDL
MODEL 9
REMARK VINA RESULT:      -9.4      2.771      4.569
REMARK  13 active torsions:
REMARK  status: ('A' for Active; 'I' for Inactive)
REMARK    1  A    between atoms: C_2  and  C_4 
REMARK    2  A    between atoms: C_4  and  C_5 
REMARK    3  A    between atoms: C_4  and  N_61 
REMARK       I    between atoms: C_5  and  N_7 
REMARK    4  A    between atoms: C_11  and  C_12 
REMARK    5  A    between atoms: C_16  and  C_22 
REMARK    6  A    between atoms: C_29  and  C_30 
REMARK    7  A    between atoms: C_33  and  C_36 
REMARK    8  A    between atoms: C_42  and  C_40 
REMARK       I    between atoms: N_46  and  C_47 
REMARK    9  A    between atoms: C_47  and  C_49 
REMARK   10  A    between atoms: C_49  and  C_50 
REMARK   11  A    between atoms: C_49  and  N_56 
REMARK       I    between atoms: N_56  and  C_57 
REMARK   12  A    between atoms: C_57  and  O_59 
REMARK       I    between atoms: N_61  and  C_62 
REMARK   13  A    between atoms: C_62  and  O_64 
ROOT
HETATM    1  C   UNK N   1      27.243  15.616   4.035  0.00  0.00    -0.022 A 
HETATM    2  C   UNK N   1      28.191  14.605   3.793  0.00  0.00     0.060 A 
HETATM    3  S   UNK N   1      29.524  15.021   4.733  0.00  0.00    -0.099 SA
HETATM    4  C   UNK N   1      28.985  16.465   5.350  0.00  0.00     0.034 A 
HETATM    5  C   UNK N   1      27.726  16.627   4.912  0.00  0.00     0.030 A 
HETATM    6  S   UNK N   1      27.200  18.107   5.451  0.00  0.00    -0.099 SA
HETATM    7  C   UNK N   1      28.553  18.585   6.304  0.00  0.00     0.064 A 
HETATM    8  C   UNK N   1      29.491  17.545   6.127  0.00  0.00    -0.001 A 
ENDROOT
BRANCH   8   9
HETATM    9  C   UNK N   1      30.806  17.521   6.741  0.00  0.00    -0.024 C 
HETATM   10  C   UNK N   1      30.945  17.485   8.136  0.00  0.00     0.013 C 
HETATM   11  C   UNK N   1      32.139  17.010   8.686  0.00  0.00     0.014 C 
HETATM   12  C   UNK N   1      33.165  16.591   7.827  0.00  0.00    -0.008 C 
HETATM   13  C   UNK N   1      33.060  16.790   6.454  0.00  0.00     0.014 C 
HETATM   14  C   UNK N   1      31.893  17.257   5.918  0.00  0.00     0.013 C 
BRANCH  12  15
HETATM   15  C   UNK N   1      34.002  15.477   8.224  0.00  0.00     0.059 A 
HETATM   16  C   UNK N   1      34.616  14.555   7.405  0.00  0.00     0.119 A 
HETATM   17  N   UNK N   1      35.638  14.015   8.100  0.00  0.00    -0.352 N 
HETATM   18  C   UNK N   1      35.639  14.654   9.291  0.00  0.00     0.105 A 
ATOM     19  HN  UNK N   1      36.275  13.279   7.793  1.00  0.00     0.166 HD
HETATM   20  N   UNK N   1      34.647  15.535   9.398  0.00  0.00    -0.342 N 
HETATM   21  H   UNK N   1      34.433  16.105  10.172  0.00  0.00     0.167 HD
BRANCH  18  22
HETATM   22  C   UNK N   1      36.731  14.526  10.303  0.00  0.00     0.155 C 
HETATM   23  C   UNK N   1      38.038  14.276   9.578  0.00  0.00     0.035 C 
HETATM   24  C   UNK N   1      38.688  13.069  10.242  0.00  0.00     0.022 C 
HETATM   25  C   UNK N   1      37.672  12.485  11.204  0.00  0.00     0.127 C 
HETATM   26  N   UNK N   1      36.581  13.418  11.233  0.00  0.00    -0.338 N 
HETATM   27  C   UNK N   1      35.566  13.300  12.158  0.00  0.00     0.248 C 
HETATM   28  O   UNK N   1      34.639  14.099  12.165  0.00  0.00    -0.271 OA
BRANCH  27  29
HETATM   29  C   UNK N   1      35.638  12.212  13.226  0.00  0.00     0.212 C 
BRANCH  29  30
HETATM   30  C   UNK N   1      35.227  10.798  12.832  0.00  0.00    -0.026 A 
HETATM   31  C   UNK N   1      36.005   9.686  13.213  0.00  0.00     0.010 A 
HETATM   32  C   UNK N   1      35.685   8.399  12.771  0.00  0.00     0.001 A 
HETATM   33  C   UNK N   1      34.590   8.207  11.932  0.00  0.00     0.000 A 
HETATM   34  C   UNK N   1      33.814   9.301  11.545  0.00  0.00     0.001 A 
HETATM   35  C   UNK N   1      34.128  10.592  11.989  0.00  0.00     0.010 A 
ENDBRANCH  29  30
BRANCH  29  36
HETATM   36  N   UNK N   1      34.870  12.669  14.366  0.00  0.00    -0.320 N 
HETATM   37  C   UNK N   1      35.336  12.623  15.636  0.00  0.00     0.361 C 
HETATM   38  O   UNK N   1      36.459  12.191  15.869  0.00  0.00    -0.239 OA
HETATM   39  H   UNK N   1      33.968  13.030  14.210  0.00  0.00     0.166 HD
BRANCH  37  40
HETATM   40  O   UNK N   1      34.544  13.065  16.641  0.00  0.00    -0.309 OA
HETATM   41  C   UNK N   1      35.045  13.441  17.864  0.00  0.00     0.215 C 
ENDBRANCH  37  40
ENDBRANCH  29  36
ENDBRANCH  27  29
ENDBRANCH  18  22
ENDBRANCH  12  15
ENDBRANCH   8   9
BRANCH   1  42
HETATM   42  C   UNK N   1      26.187  16.013   3.139  0.00  0.00     0.068 C 
HETATM   43  C   UNK N   1      25.003  15.863   3.879  0.00  0.00     0.018 C 
HETATM   44  C   UNK N   1      24.067  14.988   3.413  0.00  0.00     0.057 A 
HETATM   45  N   UNK N   1      23.019  14.515   4.083  0.00  0.00    -0.343 N 
HETATM   46  C   UNK N   1      24.167  14.388   2.203  0.00  0.00     0.060 A 
HETATM   47  C   UNK N   1      22.493  13.609   3.234  0.00  0.00     0.105 A 
HETATM   48  H   UNK N   1      22.702  14.766   4.982  0.00  0.00     0.167 HD
HETATM   49  N   UNK N   1      23.159  13.531   2.051  0.00  0.00    -0.342 N 
ATOM     50  HN  UNK N   1      22.939  12.952   1.239  1.00  0.00     0.167 HD
HETATM   51  C   UNK N   1      25.213  14.655   1.330  0.00  0.00     0.029 C 
HETATM   52  C   UNK N   1      26.263  15.444   1.834  0.00  0.00    -0.011 C 
BRANCH  47  53
HETATM   53  C   UNK N   1      21.123  13.097   3.375  0.00  0.00     0.155 C 
HETATM   54  C   UNK N   1      19.956  13.049   2.442  0.00  0.00     0.035 C 
HETATM   55  C   UNK N   1      18.864  12.459   3.366  0.00  0.00     0.022 C 
HETATM   56  C   UNK N   1      19.557  11.913   4.642  0.00  0.00     0.127 C 
HETATM   57  N   UNK N   1      20.946  12.095   4.365  0.00  0.00    -0.339 N 
HETATM   58  C   UNK N   1      21.970  11.268   4.799  0.00  0.00     0.243 C 
HETATM   59  O   UNK N   1      23.013  11.222   4.167  0.00  0.00    -0.271 OA
BRANCH  58  60
HETATM   60  C   UNK N   1      21.922  10.445   6.065  0.00  0.00     0.182 C 
BRANCH  60  61
HETATM   61  C   UNK N   1      22.510   9.039   5.770  0.00  0.00     0.009 C 
HETATM   62  C   UNK N   1      23.514   8.632   6.828  0.00  0.00     0.012 C 
HETATM   63  C   UNK N   1      21.470   7.927   5.684  0.00  0.00     0.012 C 
ENDBRANCH  60  61
BRANCH  60  64
HETATM   64  N   UNK N   1      22.724  11.059   7.087  0.00  0.00    -0.323 N 
HETATM   65  C   UNK N   1      22.244  12.007   7.921  0.00  0.00     0.360 C 
HETATM   66  O   UNK N   1      21.061  12.315   7.886  0.00  0.00    -0.239 OA
HETATM   67  H   UNK N   1      23.662  10.777   7.184  0.00  0.00     0.165 HD
BRANCH  65  68
HETATM   68  O   UNK N   1      23.067  12.621   8.801  0.00  0.00    -0.309 OA
HETATM   69  C   UNK N   1      24.256  12.056   9.205  0.00  0.00     0.215 C 
ENDBRANCH  65  68
ENDBRANCH  60  64
ENDBRANCH  58  60
ENDBRANCH  47  53
ENDBRANCH   1  42
TORSDOF 13
ENDMDL
