MODEL 1
REMARK VINA RESULT:      -6.6      0.000      0.000
REMARK  6 active torsions:
REMARK  status: ('A' for Active; 'I' for Inactive)
REMARK    1  A    between atoms: C_2  and  C_3 
REMARK    2  A    between atoms: C_2  and  C_15 
REMARK    3  A    between atoms: C_8  and  O_13 
REMARK    4  A    between atoms: C_15  and  O_17 
REMARK    5  A    between atoms: O_17  and  C_18 
REMARK    6  A    between atoms: C_18  and  C_19 
ROOT
HETATM    1  C   UNK N   1      29.213  17.862   7.532  0.00  0.00    -0.044 A 
HETATM    2  C   UNK N   1      29.332  17.087   6.363  0.00  0.00     0.009 A 
HETATM    3  C   UNK N   1      28.689  17.484   5.183  0.00  0.00     0.013 A 
HETATM    4  C   UNK N   1      27.926  18.655   5.163  0.00  0.00    -0.023 A 
HETATM    5  C   UNK N   1      27.268  19.053   3.995  0.00  0.00     0.049 A 
HETATM    6  C   UNK N   1      26.501  20.227   3.981  0.00  0.00     0.069 A 
HETATM    7  C   UNK N   1      26.403  21.003   5.150  0.00  0.00     0.037 A 
HETATM    8  C   UNK N   1      27.058  20.611   6.319  0.00  0.00     0.015 A 
HETATM    9  C   UNK N   1      27.816  19.440   6.331  0.00  0.00    -0.025 A 
HETATM   10  C   UNK N   1      28.456  19.040   7.501  0.00  0.00     0.020 A 
ENDROOT
BRANCH   1  11
HETATM   11  C   UNK N   1      29.844  17.451   8.846  0.00  0.00     0.114 C 
HETATM   12  C   UNK N   1      29.679  18.496   9.945  0.00  0.00     0.025 C 
BRANCH  11  13
HETATM   13  C   UNK N   1      31.319  17.133   8.681  0.00  0.00     0.267 C 
HETATM   14  O   UNK N   1      31.729  16.008   8.931  0.00  0.00    -0.265 OA
BRANCH  13  15
HETATM   15  O   UNK N   1      32.207  18.059   8.254  0.00  0.00    -0.320 OA
BRANCH  15  16
HETATM   16  C   UNK N   1      33.275  17.798   7.426  0.00  0.00     0.193 C 
BRANCH  16  17
HETATM   17  C   UNK N   1      32.752  17.390   6.041  0.00  0.00     0.166 A 
HETATM   18  S   UNK N   1      33.829  16.125   5.266  0.00  0.00     0.142 S 
HETATM   19  O   UNK N   1      33.356  15.700   3.868  0.00  0.00    -0.228 OA
HETATM   20  O   UNK N   1      32.653  15.283   5.777  0.00  0.00    -0.228 OA
HETATM   21  C   UNK N   1      33.132  17.585   4.434  0.00  0.00     0.161 A 
ENDBRANCH  16  17
ENDBRANCH  15  16
ENDBRANCH  13  15
ENDBRANCH  11  13
ENDBRANCH   1  11
BRANCH   6  22
HETATM   22  O   UNK N   1      25.868  20.586   2.840  0.00  0.00    -0.356 OA
HETATM   23  C   UNK N   1      24.498  20.585   2.706  0.00  0.00     0.210 C 
ENDBRANCH   6  22
TORSDOF 6
ENDMDL
MODEL 2
REMARK VINA RESULT:      -6.6     10.624     14.363
REMARK  6 active torsions:
REMARK  status: ('A' for Active; 'I' for Inactive)
REMARK    1  A    between atoms: C_2  and  C_3 
REMARK    2  A    between atoms: C_2  and  C_15 
REMARK    3  A    between atoms: C_8  and  O_13 
REMARK    4  A    between atoms: C_15  and  O_17 
REMARK    5  A    between atoms: O_17  and  C_18 
REMARK    6  A    between atoms: C_18  and  C_19 
ROOT
HETATM    1  C   UNK N   1      27.989  22.972  -6.550  0.00  0.00    -0.044 A 
HETATM    2  C   UNK N   1      28.724  21.849  -6.971  0.00  0.00     0.009 A 
HETATM    3  C   UNK N   1      29.754  21.337  -6.171  0.00  0.00     0.013 A 
HETATM    4  C   UNK N   1      30.056  21.943  -4.948  0.00  0.00    -0.023 A 
HETATM    5  C   UNK N   1      31.092  21.450  -4.148  0.00  0.00     0.049 A 
HETATM    6  C   UNK N   1      31.393  22.064  -2.924  0.00  0.00     0.069 A 
HETATM    7  C   UNK N   1      30.640  23.176  -2.504  0.00  0.00     0.037 A 
HETATM    8  C   UNK N   1      29.604  23.672  -3.298  0.00  0.00     0.015 A 
HETATM    9  C   UNK N   1      29.311  23.062  -4.518  0.00  0.00    -0.025 A 
HETATM   10  C   UNK N   1      28.289  23.566  -5.318  0.00  0.00     0.020 A 
ENDROOT
BRANCH   1  11
HETATM   11  C   UNK N   1      26.901  23.596  -7.399  0.00  0.00     0.114 C 
HETATM   12  C   UNK N   1      27.443  24.474  -8.521  0.00  0.00     0.025 C 
BRANCH  11  13
HETATM   13  C   UNK N   1      25.933  24.407  -6.557  0.00  0.00     0.267 C 
HETATM   14  O   UNK N   1      25.071  23.835  -5.903  0.00  0.00    -0.265 OA
BRANCH  13  15
HETATM   15  O   UNK N   1      25.994  25.756  -6.495  0.00  0.00    -0.320 OA
BRANCH  15  16
HETATM   16  C   UNK N   1      25.365  26.526  -5.545  0.00  0.00     0.193 C 
BRANCH  16  17
HETATM   17  C   UNK N   1      26.309  26.727  -4.351  0.00  0.00     0.166 A 
HETATM   18  S   UNK N   1      26.268  28.458  -3.750  0.00  0.00     0.142 S 
HETATM   19  O   UNK N   1      27.212  28.712  -2.565  0.00  0.00    -0.228 OA
HETATM   20  O   UNK N   1      25.386  27.735  -2.723  0.00  0.00    -0.228 OA
HETATM   21  C   UNK N   1      27.762  27.449  -3.989  0.00  0.00     0.161 A 
ENDBRANCH  16  17
ENDBRANCH  15  16
ENDBRANCH  13  15
ENDBRANCH  11  13
ENDBRANCH   1  11
BRANCH   6  22
HETATM   22  O   UNK N   1      32.404  21.572  -2.172  0.00  0.00    -0.356 OA
HETATM   23  C   UNK N   1      33.493  20.922  -2.708  0.00  0.00     0.210 C 
ENDBRANCH   6  22
TORSDOF 6
ENDMDL
MODEL 3
REMARK VINA RESULT:      -6.5      2.169      3.085
REMARK  6 active torsions:
REMARK  status: ('A' for Active; 'I' for Inactive)
REMARK    1  A    between atoms: C_2  and  C_3 
REMARK    2  A    between atoms: C_2  and  C_15 
REMARK    3  A    between atoms: C_8  and  O_13 
REMARK    4  A    between atoms: C_15  and  O_17 
REMARK    5  A    between atoms: O_17  and  C_18 
REMARK    6  A    between atoms: C_18  and  C_19 
ROOT
HETATM    1  C   UNK N   1      29.293  17.920   7.510  0.00  0.00    -0.044 A 
HETATM    2  C   UNK N   1      29.531  17.252   6.294  0.00  0.00     0.009 A 
HETATM    3  C   UNK N   1      28.902  17.680   5.118  0.00  0.00     0.013 A 
HETATM    4  C   UNK N   1      28.034  18.776   5.148  0.00  0.00    -0.023 A 
HETATM    5  C   UNK N   1      27.389  19.202   3.983  0.00  0.00     0.049 A 
HETATM    6  C   UNK N   1      26.517  20.299   4.019  0.00  0.00     0.069 A 
HETATM    7  C   UNK N   1      26.300  20.971   5.236  0.00  0.00     0.037 A 
HETATM    8  C   UNK N   1      26.941  20.549   6.402  0.00  0.00     0.015 A 
HETATM    9  C   UNK N   1      27.804  19.454   6.364  0.00  0.00    -0.025 A 
HETATM   10  C   UNK N   1      28.431  19.024   7.530  0.00  0.00     0.020 A 
ENDROOT
BRANCH   1  11
HETATM   11  C   UNK N   1      29.906  17.466   8.819  0.00  0.00     0.114 C 
HETATM   12  C   UNK N   1      29.757  18.490   9.939  0.00  0.00     0.025 C 
BRANCH  11  13
HETATM   13  C   UNK N   1      31.375  17.119   8.656  0.00  0.00     0.267 C 
HETATM   14  O   UNK N   1      32.186  18.006   8.426  0.00  0.00    -0.265 OA
BRANCH  13  15
HETATM   15  O   UNK N   1      31.826  15.849   8.764  0.00  0.00    -0.320 OA
BRANCH  15  16
HETATM   16  C   UNK N   1      33.150  15.481   8.699  0.00  0.00     0.193 C 
BRANCH  16  17
HETATM   17  C   UNK N   1      33.735  15.446  10.119  0.00  0.00     0.166 A 
HETATM   18  S   UNK N   1      35.544  15.748  10.104  0.00  0.00     0.142 S 
HETATM   19  O   UNK N   1      36.177  15.704  11.502  0.00  0.00    -0.228 OA
HETATM   20  O   UNK N   1      34.989  17.110  10.541  0.00  0.00    -0.228 OA
HETATM   21  C   UNK N   1      34.684  14.473  11.076  0.00  0.00     0.161 A 
ENDBRANCH  16  17
ENDBRANCH  15  16
ENDBRANCH  13  15
ENDBRANCH  11  13
ENDBRANCH   1  11
BRANCH   6  22
HETATM   22  O   UNK N   1      25.901  20.688   2.879  0.00  0.00    -0.356 OA
HETATM   23  C   UNK N   1      24.544  20.569   2.678  0.00  0.00     0.210 C 
ENDBRANCH   6  22
TORSDOF 6
ENDMDL
MODEL 4
REMARK VINA RESULT:      -6.5     10.576     14.379
REMARK  6 active torsions:
REMARK  status: ('A' for Active; 'I' for Inactive)
REMARK    1  A    between atoms: C_2  and  C_3 
REMARK    2  A    between atoms: C_2  and  C_15 
REMARK    3  A    between atoms: C_8  and  O_13 
REMARK    4  A    between atoms: C_15  and  O_17 
REMARK    5  A    between atoms: O_17  and  C_18 
REMARK    6  A    between atoms: C_18  and  C_19 
ROOT
HETATM    1  C   UNK N   1      27.045  25.679  -4.993  0.00  0.00    -0.044 A 
HETATM    2  C   UNK N   1      26.453  24.778  -4.089  0.00  0.00     0.009 A 
HETATM    3  C   UNK N   1      27.249  23.907  -3.334  0.00  0.00     0.013 A 
HETATM    4  C   UNK N   1      28.640  23.931  -3.478  0.00  0.00    -0.023 A 
HETATM    5  C   UNK N   1      29.444  23.055  -2.741  0.00  0.00     0.049 A 
HETATM    6  C   UNK N   1      30.838  23.080  -2.891  0.00  0.00     0.069 A 
HETATM    7  C   UNK N   1      31.421  23.997  -3.785  0.00  0.00     0.037 A 
HETATM    8  C   UNK N   1      30.623  24.873  -4.523  0.00  0.00     0.015 A 
HETATM    9  C   UNK N   1      29.236  24.842  -4.376  0.00  0.00    -0.025 A 
HETATM   10  C   UNK N   1      28.439  25.705  -5.123  0.00  0.00     0.020 A 
ENDROOT
BRANCH   1  11
HETATM   11  C   UNK N   1      26.228  26.605  -5.870  0.00  0.00     0.114 C 
HETATM   12  C   UNK N   1      27.078  27.609  -6.641  0.00  0.00     0.025 C 
BRANCH  11  13
HETATM   13  C   UNK N   1      25.181  27.354  -5.066  0.00  0.00     0.267 C 
HETATM   14  O   UNK N   1      24.051  27.489  -5.515  0.00  0.00    -0.265 OA
BRANCH  13  15
HETATM   15  O   UNK N   1      25.454  27.880  -3.849  0.00  0.00    -0.320 OA
BRANCH  15  16
HETATM   16  C   UNK N   1      26.186  29.025  -3.637  0.00  0.00     0.193 C 
BRANCH  16  17
HETATM   17  C   UNK N   1      27.521  28.655  -2.974  0.00  0.00     0.166 A 
HETATM   18  S   UNK N   1      28.350  30.133  -2.272  0.00  0.00     0.142 S 
HETATM   19  O   UNK N   1      29.701  29.815  -1.614  0.00  0.00    -0.228 OA
HETATM   20  O   UNK N   1      27.737  29.479  -1.026  0.00  0.00    -0.228 OA
HETATM   21  C   UNK N   1      29.155  28.817  -3.236  0.00  0.00     0.161 A 
ENDBRANCH  16  17
ENDBRANCH  15  16
ENDBRANCH  13  15
ENDBRANCH  11  13
ENDBRANCH   1  11
BRANCH   6  22
HETATM   22  O   UNK N   1      31.593  22.218  -2.171  0.00  0.00    -0.356 OA
HETATM   23  C   UNK N   1      32.482  21.337  -2.745  0.00  0.00     0.210 C 
ENDBRANCH   6  22
TORSDOF 6
ENDMDL
MODEL 5
REMARK VINA RESULT:      -6.5      2.125      3.579
REMARK  6 active torsions:
REMARK  status: ('A' for Active; 'I' for Inactive)
REMARK    1  A    between atoms: C_2  and  C_3 
REMARK    2  A    between atoms: C_2  and  C_15 
REMARK    3  A    between atoms: C_8  and  O_13 
REMARK    4  A    between atoms: C_15  and  O_17 
REMARK    5  A    between atoms: O_17  and  C_18 
REMARK    6  A    between atoms: C_18  and  C_19 
ROOT
HETATM    1  C   UNK N   1      27.578  18.501   4.808  0.00  0.00    -0.044 A 
HETATM    2  C   UNK N   1      27.857  19.720   4.164  0.00  0.00     0.009 A 
HETATM    3  C   UNK N   1      26.825  20.467   3.583  0.00  0.00     0.013 A 
HETATM    4  C   UNK N   1      25.507  20.001   3.641  0.00  0.00    -0.023 A 
HETATM    5  C   UNK N   1      24.470  20.730   3.051  0.00  0.00     0.049 A 
HETATM    6  C   UNK N   1      23.151  20.257   3.110  0.00  0.00     0.069 A 
HETATM    7  C   UNK N   1      22.880  19.045   3.771  0.00  0.00     0.037 A 
HETATM    8  C   UNK N   1      23.912  18.314   4.361  0.00  0.00     0.015 A 
HETATM    9  C   UNK N   1      25.223  18.784   4.297  0.00  0.00    -0.025 A 
HETATM   10  C   UNK N   1      26.254  18.047   4.872  0.00  0.00     0.020 A 
ENDROOT
BRANCH   1  11
HETATM   11  C   UNK N   1      28.663  17.630   5.406  0.00  0.00     0.114 C 
HETATM   12  C   UNK N   1      28.435  16.141   5.175  0.00  0.00     0.025 C 
BRANCH  11  13
HETATM   13  C   UNK N   1      28.822  17.883   6.895  0.00  0.00     0.267 C 
HETATM   14  O   UNK N   1      28.276  18.850   7.408  0.00  0.00    -0.265 OA
BRANCH  13  15
HETATM   15  O   UNK N   1      29.550  17.063   7.686  0.00  0.00    -0.320 OA
BRANCH  15  16
HETATM   16  C   UNK N   1      30.716  17.421   8.323  0.00  0.00     0.193 C 
BRANCH  16  17
HETATM   17  C   UNK N   1      31.914  16.961   7.480  0.00  0.00     0.166 A 
HETATM   18  S   UNK N   1      33.374  18.036   7.752  0.00  0.00     0.142 S 
HETATM   19  O   UNK N   1      34.594  17.625   6.914  0.00  0.00    -0.228 OA
HETATM   20  O   UNK N   1      33.711  16.806   8.606  0.00  0.00    -0.228 OA
HETATM   21  C   UNK N   1      32.780  17.433   6.142  0.00  0.00     0.161 A 
ENDBRANCH  16  17
ENDBRANCH  15  16
ENDBRANCH  13  15
ENDBRANCH  11  13
ENDBRANCH   1  11
BRANCH   6  22
HETATM   22  O   UNK N   1      22.167  20.979   2.525  0.00  0.00    -0.356 OA
HETATM   23  C   UNK N   1      20.859  20.552   2.459  0.00  0.00     0.210 C 
ENDBRANCH   6  22
TORSDOF 6
ENDMDL
MODEL 6
REMARK VINA RESULT:      -6.4     10.553     13.829
REMARK  6 active torsions:
REMARK  status: ('A' for Active; 'I' for Inactive)
REMARK    1  A    between atoms: C_2  and  C_3 
REMARK    2  A    between atoms: C_2  and  C_15 
REMARK    3  A    between atoms: C_8  and  O_13 
REMARK    4  A    between atoms: C_15  and  O_17 
REMARK    5  A    between atoms: O_17  and  C_18 
REMARK    6  A    between atoms: C_18  and  C_19 
ROOT
HETATM    1  C   UNK N   1      26.619  24.190  -6.442  0.00  0.00    -0.044 A 
HETATM    2  C   UNK N   1      26.176  23.894  -5.140  0.00  0.00     0.009 A 
HETATM    3  C   UNK N   1      26.022  24.916  -4.195  0.00  0.00     0.013 A 
HETATM    4  C   UNK N   1      26.309  26.240  -4.544  0.00  0.00    -0.023 A 
HETATM    5  C   UNK N   1      26.174  27.267  -3.605  0.00  0.00     0.049 A 
HETATM    6  C   UNK N   1      26.467  28.591  -3.959  0.00  0.00     0.069 A 
HETATM    7  C   UNK N   1      26.893  28.879  -5.269  0.00  0.00     0.037 A 
HETATM    8  C   UNK N   1      27.029  27.858  -6.210  0.00  0.00     0.015 A 
HETATM    9  C   UNK N   1      26.742  26.540  -5.853  0.00  0.00    -0.025 A 
HETATM   10  C   UNK N   1      26.893  25.520  -6.788  0.00  0.00     0.020 A 
ENDROOT
BRANCH   1  11
HETATM   11  C   UNK N   1      26.851  23.117  -7.485  0.00  0.00     0.114 C 
HETATM   12  C   UNK N   1      25.893  21.938  -7.358  0.00  0.00     0.025 C 
BRANCH  11  13
HETATM   13  C   UNK N   1      28.279  22.603  -7.447  0.00  0.00     0.267 C 
HETATM   14  O   UNK N   1      28.946  22.586  -8.472  0.00  0.00    -0.265 OA
BRANCH  13  15
HETATM   15  O   UNK N   1      28.852  22.164  -6.303  0.00  0.00    -0.320 OA
BRANCH  15  16
HETATM   16  C   UNK N   1      29.820  22.844  -5.601  0.00  0.00     0.193 C 
BRANCH  16  17
HETATM   17  C   UNK N   1      29.929  22.253  -4.188  0.00  0.00     0.166 A 
HETATM   18  S   UNK N   1      30.426  23.528  -2.968  0.00  0.00     0.142 S 
HETATM   19  O   UNK N   1      30.566  22.979  -1.540  0.00  0.00    -0.228 OA
HETATM   20  O   UNK N   1      28.915  23.414  -2.723  0.00  0.00    -0.228 OA
HETATM   21  C   UNK N   1      31.089  21.837  -3.073  0.00  0.00     0.161 A 
ENDBRANCH  16  17
ENDBRANCH  15  16
ENDBRANCH  13  15
ENDBRANCH  11  13
ENDBRANCH   1  11
BRANCH   6  22
HETATM   22  O   UNK N   1      26.334  29.566  -3.029  0.00  0.00    -0.356 OA
HETATM   23  C   UNK N   1      27.348  30.440  -2.706  0.00  0.00     0.210 C 
ENDBRANCH   6  22
TORSDOF 6
ENDMDL
MODEL 7
REMARK VINA RESULT:      -6.3      8.777     12.773
REMARK  6 active torsions:
REMARK  status: ('A' for Active; 'I' for Inactive)
REMARK    1  A    between atoms: C_2  and  C_3 
REMARK    2  A    between atoms: C_2  and  C_15 
REMARK    3  A    between atoms: C_8  and  O_13 
REMARK    4  A    between atoms: C_15  and  O_17 
REMARK    5  A    between atoms: O_17  and  C_18 
REMARK    6  A    between atoms: C_18  and  C_19 
ROOT
HETATM    1  C   UNK N   1      34.813  11.919  14.045  0.00  0.00    -0.044 A 
HETATM    2  C   UNK N   1      34.818  10.543  14.338  0.00  0.00     0.009 A 
HETATM    3  C   UNK N   1      34.931  10.102  15.663  0.00  0.00     0.013 A 
HETATM    4  C   UNK N   1      35.040  11.032  16.701  0.00  0.00    -0.023 A 
HETATM    5  C   UNK N   1      35.168  10.604  18.026  0.00  0.00     0.049 A 
HETATM    6  C   UNK N   1      35.280  11.540  19.064  0.00  0.00     0.069 A 
HETATM    7  C   UNK N   1      35.257  12.914  18.762  0.00  0.00     0.037 A 
HETATM    8  C   UNK N   1      35.129  13.347  17.441  0.00  0.00     0.015 A 
HETATM    9  C   UNK N   1      35.023  12.413  16.410  0.00  0.00    -0.025 A 
HETATM   10  C   UNK N   1      34.911  12.844  15.092  0.00  0.00     0.020 A 
ENDROOT
BRANCH   1  11
HETATM   11  C   UNK N   1      34.746  12.447  12.627  0.00  0.00     0.114 C 
HETATM   12  C   UNK N   1      34.783  11.346  11.573  0.00  0.00     0.025 C 
BRANCH  11  13
HETATM   13  C   UNK N   1      35.860  13.439  12.348  0.00  0.00     0.267 C 
HETATM   14  O   UNK N   1      37.027  13.083  12.437  0.00  0.00    -0.265 OA
BRANCH  13  15
HETATM   15  O   UNK N   1      35.607  14.719  11.993  0.00  0.00    -0.320 OA
BRANCH  15  16
HETATM   16  C   UNK N   1      34.603  15.111  11.137  0.00  0.00     0.193 C 
BRANCH  16  17
HETATM   17  C   UNK N   1      35.226  15.631   9.833  0.00  0.00     0.166 A 
HETATM   18  S   UNK N   1      34.221  16.982   9.106  0.00  0.00     0.142 S 
HETATM   19  O   UNK N   1      34.795  17.522   7.788  0.00  0.00    -0.228 OA
HETATM   20  O   UNK N   1      35.370  17.752   9.770  0.00  0.00    -0.228 OA
HETATM   21  C   UNK N   1      34.955  15.590   8.193  0.00  0.00     0.161 A 
ENDBRANCH  16  17
ENDBRANCH  15  16
ENDBRANCH  13  15
ENDBRANCH  11  13
ENDBRANCH   1  11
BRANCH   6  22
HETATM   22  O   UNK N   1      35.411  11.099  20.337  0.00  0.00    -0.356 OA
HETATM   23  C   UNK N   1      34.617  10.112  20.876  0.00  0.00     0.210 C 
ENDBRANCH   6  22
TORSDOF 6
ENDMDL
MODEL 8
REMARK VINA RESULT:      -6.3      7.480     11.697
REMARK  6 active torsions:
REMARK  status: ('A' for Active; 'I' for Inactive)
REMARK    1  A    between atoms: C_2  and  C_3 
REMARK    2  A    between atoms: C_2  and  C_15 
REMARK    3  A    between atoms: C_8  and  O_13 
REMARK    4  A    between atoms: C_15  and  O_17 
REMARK    5  A    between atoms: O_17  and  C_18 
REMARK    6  A    between atoms: C_18  and  C_19 
ROOT
HETATM    1  C   UNK N   1      35.362  13.554  12.525  0.00  0.00    -0.044 A 
HETATM    2  C   UNK N   1      36.107  14.280  13.474  0.00  0.00     0.009 A 
HETATM    3  C   UNK N   1      36.231  13.809  14.787  0.00  0.00     0.013 A 
HETATM    4  C   UNK N   1      35.613  12.611  15.161  0.00  0.00    -0.023 A 
HETATM    5  C   UNK N   1      35.717  12.139  16.473  0.00  0.00     0.049 A 
HETATM    6  C   UNK N   1      35.092  10.940  16.844  0.00  0.00     0.069 A 
HETATM    7  C   UNK N   1      34.364  10.213  15.884  0.00  0.00     0.037 A 
HETATM    8  C   UNK N   1      34.257  10.680  14.573  0.00  0.00     0.015 A 
HETATM    9  C   UNK N   1      34.875  11.876  14.208  0.00  0.00    -0.025 A 
HETATM   10  C   UNK N   1      34.756  12.350  12.905  0.00  0.00     0.020 A 
ENDROOT
BRANCH   1  11
HETATM   11  C   UNK N   1      35.154  14.045  11.108  0.00  0.00     0.114 C 
HETATM   12  C   UNK N   1      34.892  12.919  10.114  0.00  0.00     0.025 C 
BRANCH  11  13
HETATM   13  C   UNK N   1      36.334  14.869  10.625  0.00  0.00     0.267 C 
HETATM   14  O   UNK N   1      37.388  14.315  10.347  0.00  0.00    -0.265 OA
BRANCH  13  15
HETATM   15  O   UNK N   1      36.258  16.211  10.480  0.00  0.00    -0.320 OA
BRANCH  15  16
HETATM   16  C   UNK N   1      35.104  16.906  10.202  0.00  0.00     0.193 C 
BRANCH  16  17
HETATM   17  C   UNK N   1      34.732  16.698   8.726  0.00  0.00     0.166 A 
HETATM   18  S   UNK N   1      33.481  17.919   8.174  0.00  0.00     0.142 S 
HETATM   19  O   UNK N   1      33.063  17.738   6.707  0.00  0.00    -0.228 OA
HETATM   20  O   UNK N   1      34.779  18.498   7.597  0.00  0.00    -0.228 OA
HETATM   21  C   UNK N   1      33.468  16.138   7.803  0.00  0.00     0.161 A 
ENDBRANCH  16  17
ENDBRANCH  15  16
ENDBRANCH  13  15
ENDBRANCH  11  13
ENDBRANCH   1  11
BRANCH   6  22
HETATM   22  O   UNK N   1      35.203  10.508  18.122  0.00  0.00    -0.356 OA
HETATM   23  C   UNK N   1      36.410  10.222  18.717  0.00  0.00     0.210 C 
ENDBRANCH   6  22
TORSDOF 6
ENDMDL
MODEL 9
REMARK VINA RESULT:      -6.3     13.499     15.786
REMARK  6 active torsions:
REMARK  status: ('A' for Active; 'I' for Inactive)
REMARK    1  A    between atoms: C_2  and  C_3 
REMARK    2  A    between atoms: C_2  and  C_15 
REMARK    3  A    between atoms: C_8  and  O_13 
REMARK    4  A    between atoms: C_15  and  O_17 
REMARK    5  A    between atoms: O_17  and  C_18 
REMARK    6  A    between atoms: C_18  and  C_19 
ROOT
HETATM    1  C   UNK N   1      26.663  26.442  -8.147  0.00  0.00    -0.044 A 
HETATM    2  C   UNK N   1      27.741  27.325  -8.336  0.00  0.00     0.009 A 
HETATM    3  C   UNK N   1      28.043  28.292  -7.369  0.00  0.00     0.013 A 
HETATM    4  C   UNK N   1      27.271  28.382  -6.207  0.00  0.00    -0.023 A 
HETATM    5  C   UNK N   1      27.554  29.353  -5.241  0.00  0.00     0.049 A 
HETATM    6  C   UNK N   1      26.774  29.442  -4.079  0.00  0.00     0.069 A 
HETATM    7  C   UNK N   1      25.708  28.542  -3.890  0.00  0.00     0.037 A 
HETATM    8  C   UNK N   1      25.422  27.571  -4.851  0.00  0.00     0.015 A 
HETATM    9  C   UNK N   1      26.196  27.489  -6.009  0.00  0.00    -0.025 A 
HETATM   10  C   UNK N   1      25.901  26.531  -6.974  0.00  0.00     0.020 A 
ENDROOT
BRANCH   1  11
HETATM   11  C   UNK N   1      26.262  25.413  -9.184  0.00  0.00     0.114 C 
HETATM   12  C   UNK N   1      25.098  25.865 -10.059  0.00  0.00     0.025 C 
BRANCH  11  13
HETATM   13  C   UNK N   1      25.915  24.082  -8.543  0.00  0.00     0.267 C 
HETATM   14  O   UNK N   1      24.765  23.669  -8.586  0.00  0.00    -0.265 OA
BRANCH  13  15
HETATM   15  O   UNK N   1      26.846  23.321  -7.925  0.00  0.00    -0.320 OA
BRANCH  15  16
HETATM   16  C   UNK N   1      26.957  23.172  -6.562  0.00  0.00     0.193 C 
BRANCH  16  17
HETATM   17  C   UNK N   1      28.361  23.605  -6.118  0.00  0.00     0.166 A 
HETATM   18  S   UNK N   1      28.294  24.642  -4.607  0.00  0.00     0.142 S 
HETATM   19  O   UNK N   1      29.677  25.116  -4.135  0.00  0.00    -0.228 OA
HETATM   20  O   UNK N   1      28.716  23.276  -4.048  0.00  0.00    -0.228 OA
HETATM   21  C   UNK N   1      29.315  24.966  -6.077  0.00  0.00     0.161 A 
ENDBRANCH  16  17
ENDBRANCH  15  16
ENDBRANCH  13  15
ENDBRANCH  11  13
ENDBRANCH   1  11
BRANCH   6  22
HETATM   22  O   UNK N   1      27.064  30.394  -3.162  0.00  0.00    -0.356 OA
HETATM   23  C   UNK N   1      27.842  30.158  -2.052  0.00  0.00     0.210 C 
ENDBRANCH   6  22
TORSDOF 6
ENDMDL
