MODEL 1
REMARK VINA RESULT:      -6.9      0.000      0.000
REMARK  3 active torsions:
REMARK  status: ('A' for Active; 'I' for Inactive)
REMARK    1  A    between atoms: C_8  and  C_10 
REMARK    2  A    between atoms: C_11  and  C_12 
REMARK    3  A    between atoms: C_13  and  C_14 
REMARK       I    between atoms: C_14  and  N_15 
ROOT
HETATM    1  C   UNK N   1      32.924  17.767   4.832  0.00  0.00     0.011 C 
HETATM    2  C   UNK N   1      31.704  17.435   4.352  0.00  0.00     0.001 C 
ENDROOT
BRANCH   2   3
HETATM    3  C   UNK N   1      30.923  16.316   4.912  0.00  0.00     0.005 C 
HETATM    4  C   UNK N   1      30.023  16.364   5.900  0.00  0.00     0.074 C 
BRANCH   4   5
HETATM    5  C   UNK N   1      29.549  17.548   6.655  0.00  0.00     0.243 C 
HETATM    6  N   UNK N   1      28.464  18.245   6.205  0.00  0.00    -0.349 N 
HETATM    7  C   UNK N   1      27.752  17.808   5.014  0.00  0.00     0.126 C 
HETATM    8  C   UNK N   1      27.937  19.375   6.945  0.00  0.00     0.126 C 
HETATM    9  C   UNK N   1      27.519  18.983   4.072  0.00  0.00     0.020 C 
HETATM   10  C   UNK N   1      26.795  20.088   4.831  0.00  0.00     0.003 C 
HETATM   11  C   UNK N   1      27.661  20.549   6.002  0.00  0.00     0.020 C 
HETATM   12  O   UNK N   1      30.112  17.883   7.693  0.00  0.00    -0.268 OA
ENDBRANCH   4   5
ENDBRANCH   2   3
BRANCH   1  13
HETATM   13  C   UNK N   1      33.633  17.113   5.971  0.00  0.00    -0.033 A 
HETATM   14  C   UNK N   1      34.309  15.872   5.819  0.00  0.00     0.014 A 
HETATM   15  C   UNK N   1      34.972  15.270   6.899  0.00  0.00     0.040 A 
HETATM   16  C   UNK N   1      34.941  15.933   8.117  0.00  0.00     0.105 A 
HETATM   17  C   UNK N   1      34.308  17.100   8.281  0.00  0.00     0.105 A 
HETATM   18  O   UNK N   1      35.492  15.562   9.269  0.00  0.00    -0.323 OA
HETATM   19  O   UNK N   1      34.446  17.496   9.545  0.00  0.00    -0.323 OA
HETATM   20  C   UNK N   1      33.632  17.739   7.237  0.00  0.00     0.051 A 
HETATM   21  C   UNK N   1      35.204  16.538  10.229  0.00  0.00     0.352 A 
ENDBRANCH   1  13
TORSDOF 3
ENDMDL
MODEL 2
REMARK VINA RESULT:      -6.8      1.650      2.327
REMARK  3 active torsions:
REMARK  status: ('A' for Active; 'I' for Inactive)
REMARK    1  A    between atoms: C_8  and  C_10 
REMARK    2  A    between atoms: C_11  and  C_12 
REMARK    3  A    between atoms: C_13  and  C_14 
REMARK       I    between atoms: C_14  and  N_15 
ROOT
HETATM    1  C   UNK N   1      31.906  16.193   6.130  0.00  0.00     0.011 C 
HETATM    2  C   UNK N   1      30.596  16.524   6.072  0.00  0.00     0.001 C 
ENDROOT
BRANCH   2   3
HETATM    3  C   UNK N   1      29.954  17.353   7.109  0.00  0.00     0.005 C 
HETATM    4  C   UNK N   1      28.669  17.717   7.181  0.00  0.00     0.074 C 
BRANCH   4   5
HETATM    5  C   UNK N   1      27.558  17.353   6.271  0.00  0.00     0.243 C 
HETATM    6  N   UNK N   1      27.259  18.163   5.212  0.00  0.00    -0.349 N 
HETATM    7  C   UNK N   1      28.051  19.357   4.955  0.00  0.00     0.126 C 
HETATM    8  C   UNK N   1      26.216  17.814   4.269  0.00  0.00     0.126 C 
HETATM    9  C   UNK N   1      27.142  20.557   4.717  0.00  0.00     0.020 C 
HETATM   10  C   UNK N   1      26.173  20.226   3.588  0.00  0.00     0.003 C 
HETATM   11  C   UNK N   1      25.321  19.024   3.991  0.00  0.00     0.020 C 
HETATM   12  O   UNK N   1      26.928  16.316   6.452  0.00  0.00    -0.268 OA
ENDBRANCH   4   5
ENDBRANCH   2   3
BRANCH   1  13
HETATM   13  C   UNK N   1      32.879  16.616   7.180  0.00  0.00    -0.033 A 
HETATM   14  C   UNK N   1      33.585  17.847   7.095  0.00  0.00     0.014 A 
HETATM   15  C   UNK N   1      34.495  18.232   8.091  0.00  0.00     0.040 A 
HETATM   16  C   UNK N   1      34.677  17.365   9.158  0.00  0.00     0.105 A 
HETATM   17  C   UNK N   1      34.024  16.202   9.256  0.00  0.00     0.105 A 
HETATM   18  O   UNK N   1      35.477  17.514  10.210  0.00  0.00    -0.323 OA
HETATM   19  O   UNK N   1      34.397  15.587  10.377  0.00  0.00    -0.323 OA
HETATM   20  C   UNK N   1      33.109  15.773   8.289  0.00  0.00     0.051 A 
HETATM   21  C   UNK N   1      35.335  16.392  11.033  0.00  0.00     0.352 A 
ENDBRANCH   1  13
TORSDOF 3
ENDMDL
MODEL 3
REMARK VINA RESULT:      -6.7      3.897      8.831
REMARK  3 active torsions:
REMARK  status: ('A' for Active; 'I' for Inactive)
REMARK    1  A    between atoms: C_8  and  C_10 
REMARK    2  A    between atoms: C_11  and  C_12 
REMARK    3  A    between atoms: C_13  and  C_14 
REMARK       I    between atoms: C_14  and  N_15 
ROOT
HETATM    1  C   UNK N   1      27.006  20.377   4.431  0.00  0.00     0.011 C 
HETATM    2  C   UNK N   1      28.082  19.558   4.439  0.00  0.00     0.001 C 
ENDROOT
BRANCH   2   3
HETATM    3  C   UNK N   1      27.959  18.104   4.227  0.00  0.00     0.005 C 
HETATM    4  C   UNK N   1      28.744  17.140   4.718  0.00  0.00     0.074 C 
BRANCH   4   5
HETATM    5  C   UNK N   1      29.906  17.273   5.628  0.00  0.00     0.243 C 
HETATM    6  N   UNK N   1      29.701  17.340   6.977  0.00  0.00    -0.349 N 
HETATM    7  C   UNK N   1      28.356  17.242   7.522  0.00  0.00     0.126 C 
HETATM    8  C   UNK N   1      30.814  17.417   7.903  0.00  0.00     0.126 C 
HETATM    9  C   UNK N   1      28.112  18.350   8.539  0.00  0.00     0.020 C 
HETATM   10  C   UNK N   1      29.197  18.288   9.607  0.00  0.00     0.003 C 
HETATM   11  C   UNK N   1      30.561  18.500   8.954  0.00  0.00     0.020 C 
HETATM   12  O   UNK N   1      31.045  17.297   5.174  0.00  0.00    -0.268 OA
ENDBRANCH   4   5
ENDBRANCH   2   3
BRANCH   1  13
HETATM   13  C   UNK N   1      25.590  19.972   4.186  0.00  0.00    -0.033 A 
HETATM   14  C   UNK N   1      24.984  18.900   4.895  0.00  0.00     0.014 A 
HETATM   15  C   UNK N   1      23.651  18.532   4.654  0.00  0.00     0.040 A 
HETATM   16  C   UNK N   1      22.953  19.254   3.698  0.00  0.00     0.105 A 
HETATM   17  C   UNK N   1      23.506  20.265   3.019  0.00  0.00     0.105 A 
HETATM   18  O   UNK N   1      21.693  19.092   3.304  0.00  0.00    -0.323 OA
HETATM   19  O   UNK N   1      22.605  20.767   2.176  0.00  0.00    -0.323 OA
HETATM   20  C   UNK N   1      24.829  20.668   3.222  0.00  0.00     0.051 A 
HETATM   21  C   UNK N   1      21.414  20.046   2.320  0.00  0.00     0.352 A 
ENDBRANCH   1  13
TORSDOF 3
ENDMDL
MODEL 4
REMARK VINA RESULT:      -6.6      2.296      6.723
REMARK  3 active torsions:
REMARK  status: ('A' for Active; 'I' for Inactive)
REMARK    1  A    between atoms: C_8  and  C_10 
REMARK    2  A    between atoms: C_11  and  C_12 
REMARK    3  A    between atoms: C_13  and  C_14 
REMARK       I    between atoms: C_14  and  N_15 
ROOT
HETATM    1  C   UNK N   1      29.850  16.806   8.187  0.00  0.00     0.011 C 
HETATM    2  C   UNK N   1      31.097  16.934   8.695  0.00  0.00     0.001 C 
ENDROOT
BRANCH   2   3
HETATM    3  C   UNK N   1      31.975  18.061   8.334  0.00  0.00     0.005 C 
HETATM    4  C   UNK N   1      33.134  18.010   7.668  0.00  0.00     0.074 C 
BRANCH   4   5
HETATM    5  C   UNK N   1      33.812  16.826   7.090  0.00  0.00     0.243 C 
HETATM    6  N   UNK N   1      33.841  16.660   5.734  0.00  0.00    -0.349 N 
HETATM    7  C   UNK N   1      33.245  17.660   4.859  0.00  0.00     0.126 C 
HETATM    8  C   UNK N   1      34.539  15.544   5.127  0.00  0.00     0.126 C 
HETATM    9  C   UNK N   1      32.355  16.992   3.818  0.00  0.00     0.020 C 
HETATM   10  C   UNK N   1      33.172  15.948   3.066  0.00  0.00     0.003 C 
HETATM   11  C   UNK N   1      33.670  14.892   4.050  0.00  0.00     0.020 C 
HETATM   12  O   UNK N   1      34.366  16.013   7.823  0.00  0.00    -0.268 OA
ENDBRANCH   4   5
ENDBRANCH   2   3
BRANCH   1  13
HETATM   13  C   UNK N   1      29.177  17.753   7.249  0.00  0.00    -0.033 A 
HETATM   14  C   UNK N   1      29.321  17.640   5.840  0.00  0.00     0.014 A 
HETATM   15  C   UNK N   1      28.681  18.538   4.971  0.00  0.00     0.040 A 
HETATM   16  C   UNK N   1      27.906  19.536   5.542  0.00  0.00     0.105 A 
HETATM   17  C   UNK N   1      27.761  19.660   6.866  0.00  0.00     0.105 A 
HETATM   18  O   UNK N   1      27.212  20.489   4.929  0.00  0.00    -0.323 OA
HETATM   19  O   UNK N   1      26.967  20.699   7.120  0.00  0.00    -0.323 OA
HETATM   20  C   UNK N   1      28.378  18.792   7.772  0.00  0.00     0.051 A 
HETATM   21  C   UNK N   1      26.583  21.272   5.902  0.00  0.00     0.352 A 
ENDBRANCH   1  13
TORSDOF 3
ENDMDL
MODEL 5
REMARK VINA RESULT:      -6.4      1.299      1.756
REMARK  3 active torsions:
REMARK  status: ('A' for Active; 'I' for Inactive)
REMARK    1  A    between atoms: C_8  and  C_10 
REMARK    2  A    between atoms: C_11  and  C_12 
REMARK    3  A    between atoms: C_13  and  C_14 
REMARK       I    between atoms: C_14  and  N_15 
ROOT
HETATM    1  C   UNK N   1      33.191  17.433   5.233  0.00  0.00     0.011 C 
HETATM    2  C   UNK N   1      31.872  17.517   4.944  0.00  0.00     0.001 C 
ENDROOT
BRANCH   2   3
HETATM    3  C   UNK N   1      30.839  16.971   5.843  0.00  0.00     0.005 C 
HETATM    4  C   UNK N   1      29.513  17.100   5.733  0.00  0.00     0.074 C 
BRANCH   4   5
HETATM    5  C   UNK N   1      28.740  17.783   4.669  0.00  0.00     0.243 C 
HETATM    6  N   UNK N   1      28.194  19.011   4.914  0.00  0.00    -0.349 N 
HETATM    7  C   UNK N   1      28.401  19.664   6.198  0.00  0.00     0.126 C 
HETATM    8  C   UNK N   1      27.477  19.735   3.882  0.00  0.00     0.126 C 
HETATM    9  C   UNK N   1      27.079  20.184   6.749  0.00  0.00     0.020 C 
HETATM   10  C   UNK N   1      26.435  21.095   5.711  0.00  0.00     0.003 C 
HETATM   11  C   UNK N   1      26.166  20.297   4.437  0.00  0.00     0.020 C 
HETATM   12  O   UNK N   1      28.615  17.260   3.567  0.00  0.00    -0.268 OA
ENDBRANCH   4   5
ENDBRANCH   2   3
BRANCH   1  13
HETATM   13  C   UNK N   1      33.789  16.833   6.462  0.00  0.00    -0.033 A 
HETATM   14  C   UNK N   1      34.000  15.433   6.586  0.00  0.00     0.014 A 
HETATM   15  C   UNK N   1      34.564  14.884   7.748  0.00  0.00     0.040 A 
HETATM   16  C   UNK N   1      34.906  15.761   8.767  0.00  0.00     0.105 A 
HETATM   17  C   UNK N   1      34.713  17.082   8.670  0.00  0.00     0.105 A 
HETATM   18  O   UNK N   1      35.449  15.478   9.947  0.00  0.00    -0.323 OA
HETATM   19  O   UNK N   1      35.133  17.665   9.791  0.00  0.00    -0.323 OA
HETATM   20  C   UNK N   1      34.153  17.676   7.535  0.00  0.00     0.051 A 
HETATM   21  C   UNK N   1      35.619  16.674  10.652  0.00  0.00     0.352 A 
ENDBRANCH   1  13
TORSDOF 3
ENDMDL
MODEL 6
REMARK VINA RESULT:      -6.4     11.713     15.242
REMARK  3 active torsions:
REMARK  status: ('A' for Active; 'I' for Inactive)
REMARK    1  A    between atoms: C_8  and  C_10 
REMARK    2  A    between atoms: C_11  and  C_12 
REMARK    3  A    between atoms: C_13  and  C_14 
REMARK       I    between atoms: C_14  and  N_15 
ROOT
HETATM    1  C   UNK N   1      25.917  22.748  -6.694  0.00  0.00     0.011 C 
HETATM    2  C   UNK N   1      26.931  22.180  -7.386  0.00  0.00     0.001 C 
ENDROOT
BRANCH   2   3
HETATM    3  C   UNK N   1      28.157  22.925  -7.727  0.00  0.00     0.005 C 
HETATM    4  C   UNK N   1      29.388  22.734  -7.239  0.00  0.00     0.074 C 
BRANCH   4   5
HETATM    5  C   UNK N   1      29.845  21.710  -6.270  0.00  0.00     0.243 C 
HETATM    6  N   UNK N   1      29.943  22.030  -4.946  0.00  0.00    -0.349 N 
HETATM    7  C   UNK N   1      29.564  23.357  -4.481  0.00  0.00     0.126 C 
HETATM    8  C   UNK N   1      30.333  21.042  -3.960  0.00  0.00     0.126 C 
HETATM    9  C   UNK N   1      30.644  23.928  -3.569  0.00  0.00     0.020 C 
HETATM   10  C   UNK N   1      30.902  22.946  -2.433  0.00  0.00     0.003 C 
HETATM   11  C   UNK N   1      31.388  21.619  -3.013  0.00  0.00     0.020 C 
HETATM   12  O   UNK N   1      30.107  20.574  -6.652  0.00  0.00    -0.268 OA
ENDBRANCH   4   5
ENDBRANCH   2   3
BRANCH   1  13
HETATM   13  C   UNK N   1      25.886  24.141  -6.157  0.00  0.00    -0.033 A 
HETATM   14  C   UNK N   1      25.624  25.260  -6.993  0.00  0.00     0.014 A 
HETATM   15  C   UNK N   1      25.597  26.564  -6.474  0.00  0.00     0.040 A 
HETATM   16  C   UNK N   1      25.836  26.714  -5.116  0.00  0.00     0.105 A 
HETATM   17  C   UNK N   1      26.086  25.674  -4.313  0.00  0.00     0.105 A 
HETATM   18  O   UNK N   1      25.860  27.838  -4.406  0.00  0.00    -0.323 OA
HETATM   19  O   UNK N   1      26.275  26.119  -3.072  0.00  0.00    -0.323 OA
HETATM   20  C   UNK N   1      26.126  24.358  -4.783  0.00  0.00     0.051 A 
HETATM   21  C   UNK N   1      26.139  27.512  -3.075  0.00  0.00     0.352 A 
ENDBRANCH   1  13
TORSDOF 3
ENDMDL
MODEL 7
REMARK VINA RESULT:      -6.3      2.589      4.119
REMARK  3 active torsions:
REMARK  status: ('A' for Active; 'I' for Inactive)
REMARK    1  A    between atoms: C_8  and  C_10 
REMARK    2  A    between atoms: C_11  and  C_12 
REMARK    3  A    between atoms: C_13  and  C_14 
REMARK       I    between atoms: C_14  and  N_15 
ROOT
HETATM    1  C   UNK N   1      34.189  17.896   8.301  0.00  0.00     0.011 C 
HETATM    2  C   UNK N   1      32.882  18.133   8.045  0.00  0.00     0.001 C 
ENDROOT
BRANCH   2   3
HETATM    3  C   UNK N   1      31.829  17.160   8.392  0.00  0.00     0.005 C 
HETATM    4  C   UNK N   1      30.836  16.722   7.612  0.00  0.00     0.074 C 
BRANCH   4   5
HETATM    5  C   UNK N   1      30.559  17.063   6.197  0.00  0.00     0.243 C 
HETATM    6  N   UNK N   1      31.301  16.484   5.206  0.00  0.00    -0.349 N 
HETATM    7  C   UNK N   1      32.331  15.510   5.533  0.00  0.00     0.126 C 
HETATM    8  C   UNK N   1      31.025  16.750   3.808  0.00  0.00     0.126 C 
HETATM    9  C   UNK N   1      33.626  15.839   4.801  0.00  0.00     0.020 C 
HETATM   10  C   UNK N   1      33.339  15.929   3.307  0.00  0.00     0.003 C 
HETATM   11  C   UNK N   1      32.324  17.042   3.053  0.00  0.00     0.020 C 
HETATM   12  O   UNK N   1      29.652  17.839   5.916  0.00  0.00    -0.268 OA
ENDBRANCH   4   5
ENDBRANCH   2   3
BRANCH   1  13
HETATM   13  C   UNK N   1      34.752  16.687   8.971  0.00  0.00    -0.033 A 
HETATM   14  C   UNK N   1      34.987  15.478   8.262  0.00  0.00     0.014 A 
HETATM   15  C   UNK N   1      35.518  14.350   8.905  0.00  0.00     0.040 A 
HETATM   16  C   UNK N   1      35.803  14.463  10.258  0.00  0.00     0.105 A 
HETATM   17  C   UNK N   1      35.587  15.591  10.944  0.00  0.00     0.105 A 
HETATM   18  O   UNK N   1      36.308  13.540  11.071  0.00  0.00    -0.323 OA
HETATM   19  O   UNK N   1      35.952  15.406  12.211  0.00  0.00    -0.323 OA
HETATM   20  C   UNK N   1      35.058  16.740  10.348  0.00  0.00     0.051 A 
HETATM   21  C   UNK N   1      36.427  14.096  12.349  0.00  0.00     0.352 A 
ENDBRANCH   1  13
TORSDOF 3
ENDMDL
MODEL 8
REMARK VINA RESULT:      -6.3     10.594     14.642
REMARK  3 active torsions:
REMARK  status: ('A' for Active; 'I' for Inactive)
REMARK    1  A    between atoms: C_8  and  C_10 
REMARK    2  A    between atoms: C_11  and  C_12 
REMARK    3  A    between atoms: C_13  and  C_14 
REMARK       I    between atoms: C_14  and  N_15 
ROOT
HETATM    1  C   UNK N   1      35.010  13.296  18.456  0.00  0.00     0.011 C 
HETATM    2  C   UNK N   1      35.226  12.208  19.230  0.00  0.00     0.001 C 
ENDROOT
BRANCH   2   3
HETATM    3  C   UNK N   1      35.877  10.993  18.705  0.00  0.00     0.005 C 
HETATM    4  C   UNK N   1      36.042   9.822  19.330  0.00  0.00     0.074 C 
BRANCH   4   5
HETATM    5  C   UNK N   1      35.583   9.429  20.682  0.00  0.00     0.243 C 
HETATM    6  N   UNK N   1      34.404   8.752  20.824  0.00  0.00    -0.349 N 
HETATM    7  C   UNK N   1      33.623   8.384  19.653  0.00  0.00     0.126 C 
HETATM    8  C   UNK N   1      33.947   8.302  22.125  0.00  0.00     0.126 C 
HETATM    9  C   UNK N   1      32.160   8.762  19.850  0.00  0.00     0.020 C 
HETATM   10  C   UNK N   1      31.652   8.119  21.135  0.00  0.00     0.003 C 
HETATM   11  C   UNK N   1      32.467   8.640  22.317  0.00  0.00     0.020 C 
HETATM   12  O   UNK N   1      36.269   9.686  21.666  0.00  0.00    -0.268 OA
ENDBRANCH   4   5
ENDBRANCH   2   3
BRANCH   1  13
HETATM   13  C   UNK N   1      35.402  13.453  17.025  0.00  0.00    -0.033 A 
HETATM   14  C   UNK N   1      36.489  14.281  16.632  0.00  0.00     0.014 A 
HETATM   15  C   UNK N   1      36.847  14.419  15.282  0.00  0.00     0.040 A 
HETATM   16  C   UNK N   1      36.099  13.715  14.350  0.00  0.00     0.105 A 
HETATM   17  C   UNK N   1      35.071  12.933  14.699  0.00  0.00     0.105 A 
HETATM   18  O   UNK N   1      36.249  13.687  13.029  0.00  0.00    -0.323 OA
HETATM   19  O   UNK N   1      34.547  12.390  13.601  0.00  0.00    -0.323 OA
HETATM   20  C   UNK N   1      34.676  12.765  16.029  0.00  0.00     0.051 A 
HETATM   21  C   UNK N   1      35.271  12.844  12.492  0.00  0.00     0.352 A 
ENDBRANCH   1  13
TORSDOF 3
ENDMDL
MODEL 9
REMARK VINA RESULT:      -6.2      2.304      6.696
REMARK  3 active torsions:
REMARK  status: ('A' for Active; 'I' for Inactive)
REMARK    1  A    between atoms: C_8  and  C_10 
REMARK    2  A    between atoms: C_11  and  C_12 
REMARK    3  A    between atoms: C_13  and  C_14 
REMARK       I    between atoms: C_14  and  N_15 
ROOT
HETATM    1  C   UNK N   1      29.775  16.343   3.859  0.00  0.00     0.011 C 
HETATM    2  C   UNK N   1      31.002  16.424   3.297  0.00  0.00     0.001 C 
ENDROOT
BRANCH   2   3
HETATM    3  C   UNK N   1      31.922  17.539   3.587  0.00  0.00     0.005 C 
HETATM    4  C   UNK N   1      32.981  17.530   4.404  0.00  0.00     0.074 C 
BRANCH   4   5
HETATM    5  C   UNK N   1      33.526  16.398   5.191  0.00  0.00     0.243 C 
HETATM    6  N   UNK N   1      33.550  16.474   6.555  0.00  0.00    -0.349 N 
HETATM    7  C   UNK N   1      33.008  17.642   7.235  0.00  0.00     0.126 C 
HETATM    8  C   UNK N   1      34.024  15.367   7.361  0.00  0.00     0.126 C 
HETATM    9  C   UNK N   1      33.989  18.146   8.287  0.00  0.00     0.020 C 
HETATM   10  C   UNK N   1      34.327  17.003   9.236  0.00  0.00     0.003 C 
HETATM   11  C   UNK N   1      34.979  15.868   8.448  0.00  0.00     0.020 C 
HETATM   12  O   UNK N   1      33.928  15.389   4.622  0.00  0.00    -0.268 OA
ENDBRANCH   4   5
ENDBRANCH   2   3
BRANCH   1  13
HETATM   13  C   UNK N   1      29.190  17.301   4.843  0.00  0.00    -0.033 A 
HETATM   14  C   UNK N   1      29.412  17.170   6.240  0.00  0.00     0.014 A 
HETATM   15  C   UNK N   1      28.856  18.079   7.153  0.00  0.00     0.040 A 
HETATM   16  C   UNK N   1      28.082  19.108   6.636  0.00  0.00     0.105 A 
HETATM   17  C   UNK N   1      27.860  19.248   5.324  0.00  0.00     0.105 A 
HETATM   18  O   UNK N   1      27.461  20.080   7.297  0.00  0.00    -0.323 OA
HETATM   19  O   UNK N   1      27.089  20.316   5.126  0.00  0.00    -0.323 OA
HETATM   20  C   UNK N   1      28.390  18.367   4.377  0.00  0.00     0.051 A 
HETATM   21  C   UNK N   1      26.801  20.892   6.369  0.00  0.00     0.352 A 
ENDBRANCH   1  13
TORSDOF 3
ENDMDL
