MODEL 1
REMARK VINA RESULT:      -5.7      0.000      0.000
REMARK  14 active torsions:
REMARK  status: ('A' for Active; 'I' for Inactive)
REMARK    1  A    between atoms: C_2  and  C_1 
REMARK    2  A    between atoms: C_1  and  O_21 
REMARK    3  A    between atoms: C_3  and  O_20 
REMARK    4  A    between atoms: C_4  and  O_19 
REMARK    5  A    between atoms: C_5  and  O_18 
REMARK    6  A    between atoms: C_6  and  O_8 
REMARK    7  A    between atoms: C_9  and  O_8 
REMARK    8  A    between atoms: C_9  and  C_10 
REMARK    9  A    between atoms: C_9  and  C_12 
REMARK   10  A    between atoms: C_10  and  O_11 
REMARK   11  A    between atoms: C_12  and  C_13 
REMARK   12  A    between atoms: C_12  and  O_17 
REMARK   13  A    between atoms: C_13  and  C_14 
REMARK   14  A    between atoms: C_13  and  O_16 
ROOT
HETATM    1  C   UNK N   1      29.430  17.553   6.202  0.00  0.00     0.179 C 
HETATM    2  C   UNK N   1      28.171  17.554   7.084  0.00  0.00     0.180 C 
HETATM    3  C   UNK N   1      28.507  18.200   8.434  0.00  0.00     0.183 C 
HETATM    4  C   UNK N   1      29.797  17.628   9.035  0.00  0.00     0.204 C 
HETATM    5  C   UNK N   1      30.855  17.710   7.933  0.00  0.00     0.292 C 
HETATM    6  O   UNK N   1      30.459  16.869   6.871  0.00  0.00    -0.348 OA
ENDROOT
BRANCH   5   7
HETATM    7  O   UNK N   1      32.184  17.504   8.403  0.00  0.00    -0.348 OA
BRANCH   7   8
HETATM    8  C   UNK N   1      32.918  16.597   7.605  0.00  0.00     0.179 C 
BRANCH   8   9
HETATM    9  C   UNK N   1      33.876  17.379   6.707  0.00  0.00     0.198 C 
BRANCH   9  10
HETATM   10  O   UNK N   1      34.566  18.322   7.470  0.00  0.00    -0.398 OA
HETATM   11  H   UNK N   1      35.392  18.326   7.977  0.00  0.00     0.209 HD
ENDBRANCH   9  10
ENDBRANCH   8   9
BRANCH   8  12
HETATM   12  C   UNK N   1      33.701  15.645   8.529  0.00  0.00     0.184 C 
BRANCH  12  13
HETATM   13  C   UNK N   1      33.716  16.070  10.009  0.00  0.00     0.210 C 
BRANCH  13  14
HETATM   14  C   UNK N   1      35.106  16.443  10.431  0.00  0.00     0.265 C 
HETATM   15  O   UNK N   1      35.564  17.557  10.191  0.00  0.00    -0.304 OA
ENDBRANCH  13  14
BRANCH  13  16
HETATM   16  O   UNK N   1      33.236  15.048  10.833  0.00  0.00    -0.386 OA
HETATM   17  H   UNK N   1      33.660  14.742  11.650  0.00  0.00     0.210 HD
ENDBRANCH  13  16
ENDBRANCH  12  13
BRANCH  12  18
HETATM   18  O   UNK N   1      35.015  15.541   8.066  0.00  0.00    -0.390 OA
HETATM   19  H   UNK N   1      35.270  15.259   7.173  0.00  0.00     0.210 HD
ENDBRANCH  12  18
ENDBRANCH   8  12
ENDBRANCH   7   8
ENDBRANCH   5   7
BRANCH   4  20
HETATM   20  O   UNK N   1      30.177  18.396  10.136  0.00  0.00    -0.388 OA
HETATM   21  H   UNK N   1      29.622  18.633  10.897  0.00  0.00     0.210 HD
ENDBRANCH   4  20
BRANCH   3  22
HETATM   22  O   UNK N   1      27.441  18.048   9.322  0.00  0.00    -0.390 OA
HETATM   23  H   UNK N   1      26.493  17.958   9.138  0.00  0.00     0.210 HD
ENDBRANCH   3  22
BRANCH   1  24
HETATM   24  C   UNK N   1      29.154  16.864   4.875  0.00  0.00     0.198 C 
BRANCH  24  25
HETATM   25  O   UNK N   1      28.879  17.815   3.892  0.00  0.00    -0.398 OA
HETATM   26  H   UNK N   1      28.017  18.222   3.710  0.00  0.00     0.209 HD
ENDBRANCH  24  25
ENDBRANCH   1  24
BRANCH   2  27
HETATM   27  O   UNK N   1      27.154  18.282   6.463  0.00  0.00    -0.390 OA
HETATM   28  H   UNK N   1      27.285  19.182   6.124  0.00  0.00     0.210 HD
ENDBRANCH   2  27
TORSDOF 14
ENDMDL
MODEL 2
REMARK VINA RESULT:      -5.5      1.491      2.461
REMARK  14 active torsions:
REMARK  status: ('A' for Active; 'I' for Inactive)
REMARK    1  A    between atoms: C_2  and  C_1 
REMARK    2  A    between atoms: C_1  and  O_21 
REMARK    3  A    between atoms: C_3  and  O_20 
REMARK    4  A    between atoms: C_4  and  O_19 
REMARK    5  A    between atoms: C_5  and  O_18 
REMARK    6  A    between atoms: C_6  and  O_8 
REMARK    7  A    between atoms: C_9  and  O_8 
REMARK    8  A    between atoms: C_9  and  C_10 
REMARK    9  A    between atoms: C_9  and  C_12 
REMARK   10  A    between atoms: C_10  and  O_11 
REMARK   11  A    between atoms: C_12  and  C_13 
REMARK   12  A    between atoms: C_12  and  O_17 
REMARK   13  A    between atoms: C_13  and  C_14 
REMARK   14  A    between atoms: C_13  and  O_16 
ROOT
HETATM    1  C   UNK N   1      29.242  17.672   6.228  0.00  0.00     0.179 C 
HETATM    2  C   UNK N   1      27.985  17.794   7.103  0.00  0.00     0.180 C 
HETATM    3  C   UNK N   1      28.380  18.370   8.470  0.00  0.00     0.183 C 
HETATM    4  C   UNK N   1      29.594  17.644   9.064  0.00  0.00     0.204 C 
HETATM    5  C   UNK N   1      30.663  17.631   7.970  0.00  0.00     0.292 C 
HETATM    6  O   UNK N   1      30.183  16.863   6.887  0.00  0.00    -0.348 OA
ENDROOT
BRANCH   5   7
HETATM    7  O   UNK N   1      31.957  17.267   8.442  0.00  0.00    -0.348 OA
BRANCH   7   8
HETATM    8  C   UNK N   1      33.001  17.928   7.757  0.00  0.00     0.179 C 
BRANCH   8   9
HETATM    9  C   UNK N   1      34.266  17.893   8.615  0.00  0.00     0.198 C 
BRANCH   9  10
HETATM   10  O   UNK N   1      35.029  19.035   8.368  0.00  0.00    -0.398 OA
HETATM   11  H   UNK N   1      35.851  19.224   7.889  0.00  0.00     0.209 HD
ENDBRANCH   9  10
ENDBRANCH   8   9
BRANCH   8  12
HETATM   12  C   UNK N   1      33.242  17.215   6.414  0.00  0.00     0.184 C 
BRANCH  12  13
HETATM   13  C   UNK N   1      33.671  15.741   6.547  0.00  0.00     0.210 C 
BRANCH  13  14
HETATM   14  C   UNK N   1      34.423  15.304   5.325  0.00  0.00     0.265 C 
HETATM   15  O   UNK N   1      33.977  15.507   4.199  0.00  0.00    -0.304 OA
ENDBRANCH  13  14
BRANCH  13  16
HETATM   16  O   UNK N   1      32.565  14.909   6.739  0.00  0.00    -0.386 OA
HETATM   17  H   UNK N   1      32.152  14.714   7.596  0.00  0.00     0.210 HD
ENDBRANCH  13  16
ENDBRANCH  12  13
BRANCH  12  18
HETATM   18  O   UNK N   1      34.214  17.915   5.694  0.00  0.00    -0.390 OA
HETATM   19  H   UNK N   1      34.992  17.514   5.274  0.00  0.00     0.210 HD
ENDBRANCH  12  18
ENDBRANCH   8  12
ENDBRANCH   7   8
ENDBRANCH   5   7
BRANCH   4  20
HETATM   20  O   UNK N   1      30.048  18.340  10.184  0.00  0.00    -0.388 OA
HETATM   21  H   UNK N   1      30.746  19.015  10.204  0.00  0.00     0.210 HD
ENDBRANCH   4  20
BRANCH   3  22
HETATM   22  O   UNK N   1      27.297  18.318   9.349  0.00  0.00    -0.390 OA
HETATM   23  H   UNK N   1      26.599  17.649   9.428  0.00  0.00     0.210 HD
ENDBRANCH   3  22
BRANCH   1  24
HETATM   24  C   UNK N   1      28.902  17.048   4.885  0.00  0.00     0.198 C 
BRANCH  24  25
HETATM   25  O   UNK N   1      28.588  18.045   3.961  0.00  0.00    -0.398 OA
HETATM   26  H   UNK N   1      28.296  18.947   4.165  0.00  0.00     0.209 HD
ENDBRANCH  24  25
ENDBRANCH   1  24
BRANCH   2  27
HETATM   27  O   UNK N   1      27.060  18.645   6.493  0.00  0.00    -0.390 OA
HETATM   28  H   UNK N   1      27.325  19.388   5.929  0.00  0.00     0.210 HD
ENDBRANCH   2  27
TORSDOF 14
ENDMDL
MODEL 3
REMARK VINA RESULT:      -5.4      3.218      5.216
REMARK  14 active torsions:
REMARK  status: ('A' for Active; 'I' for Inactive)
REMARK    1  A    between atoms: C_2  and  C_1 
REMARK    2  A    between atoms: C_1  and  O_21 
REMARK    3  A    between atoms: C_3  and  O_20 
REMARK    4  A    between atoms: C_4  and  O_19 
REMARK    5  A    between atoms: C_5  and  O_18 
REMARK    6  A    between atoms: C_6  and  O_8 
REMARK    7  A    between atoms: C_9  and  O_8 
REMARK    8  A    between atoms: C_9  and  C_10 
REMARK    9  A    between atoms: C_9  and  C_12 
REMARK   10  A    between atoms: C_10  and  O_11 
REMARK   11  A    between atoms: C_12  and  C_13 
REMARK   12  A    between atoms: C_12  and  O_17 
REMARK   13  A    between atoms: C_13  and  C_14 
REMARK   14  A    between atoms: C_13  and  O_16 
ROOT
HETATM    1  C   UNK N   1      33.642  15.859   7.439  0.00  0.00     0.179 C 
HETATM    2  C   UNK N   1      33.813  17.383   7.337  0.00  0.00     0.180 C 
HETATM    3  C   UNK N   1      34.901  17.831   8.322  0.00  0.00     0.183 C 
HETATM    4  C   UNK N   1      34.688  17.230   9.718  0.00  0.00     0.204 C 
HETATM    5  C   UNK N   1      34.502  15.726   9.511  0.00  0.00     0.292 C 
HETATM    6  O   UNK N   1      33.322  15.521   8.765  0.00  0.00    -0.348 OA
ENDROOT
BRANCH   5   7
HETATM    7  O   UNK N   1      34.593  14.970  10.716  0.00  0.00    -0.348 OA
BRANCH   7   8
HETATM    8  C   UNK N   1      35.639  14.021  10.695  0.00  0.00     0.179 C 
BRANCH   8   9
HETATM    9  C   UNK N   1      36.622  14.381   9.582  0.00  0.00     0.198 C 
BRANCH   9  10
HETATM   10  O   UNK N   1      37.714  15.059  10.125  0.00  0.00    -0.398 OA
HETATM   11  H   UNK N   1      37.827  15.815  10.722  0.00  0.00     0.209 HD
ENDBRANCH   9  10
ENDBRANCH   8   9
BRANCH   8  12
HETATM   12  C   UNK N   1      36.346  14.031  12.063  0.00  0.00     0.184 C 
BRANCH  12  13
HETATM   13  C   UNK N   1      35.662  13.163  13.136  0.00  0.00     0.210 C 
BRANCH  13  14
HETATM   14  C   UNK N   1      36.481  11.938  13.417  0.00  0.00     0.265 C 
HETATM   15  O   UNK N   1      37.522  11.718  12.805  0.00  0.00    -0.304 OA
ENDBRANCH  13  14
BRANCH  13  16
HETATM   16  O   UNK N   1      34.377  12.785  12.736  0.00  0.00    -0.386 OA
HETATM   17  H   UNK N   1      34.107  11.884  12.498  0.00  0.00     0.210 HD
ENDBRANCH  13  16
ENDBRANCH  12  13
BRANCH  12  18
HETATM   18  O   UNK N   1      36.431  15.349  12.522  0.00  0.00    -0.390 OA
HETATM   19  H   UNK N   1      35.930  16.097  12.161  0.00  0.00     0.210 HD
ENDBRANCH  12  18
ENDBRANCH   8  12
ENDBRANCH   7   8
ENDBRANCH   5   7
BRANCH   4  20
HETATM   20  O   UNK N   1      35.811  17.481  10.507  0.00  0.00    -0.388 OA
HETATM   21  H   UNK N   1      36.654  17.860  10.211  0.00  0.00     0.210 HD
ENDBRANCH   4  20
BRANCH   3  22
HETATM   22  O   UNK N   1      34.950  19.225   8.389  0.00  0.00    -0.390 OA
HETATM   23  H   UNK N   1      34.936  19.805   9.166  0.00  0.00     0.210 HD
ENDBRANCH   3  22
BRANCH   1  24
HETATM   24  C   UNK N   1      32.528  15.383   6.521  0.00  0.00     0.198 C 
BRANCH  24  25
HETATM   25  O   UNK N   1      31.596  16.403   6.331  0.00  0.00    -0.398 OA
HETATM   26  H   UNK N   1      30.729  16.477   6.760  0.00  0.00     0.209 HD
ENDBRANCH  24  25
ENDBRANCH   1  24
BRANCH   2  27
HETATM   27  O   UNK N   1      34.192  17.735   6.040  0.00  0.00    -0.390 OA
HETATM   28  H   UNK N   1      33.749  18.435   5.536  0.00  0.00     0.210 HD
ENDBRANCH   2  27
TORSDOF 14
ENDMDL
MODEL 4
REMARK VINA RESULT:      -5.4     10.355     11.786
REMARK  14 active torsions:
REMARK  status: ('A' for Active; 'I' for Inactive)
REMARK    1  A    between atoms: C_2  and  C_1 
REMARK    2  A    between atoms: C_1  and  O_21 
REMARK    3  A    between atoms: C_3  and  O_20 
REMARK    4  A    between atoms: C_4  and  O_19 
REMARK    5  A    between atoms: C_5  and  O_18 
REMARK    6  A    between atoms: C_6  and  O_8 
REMARK    7  A    between atoms: C_9  and  O_8 
REMARK    8  A    between atoms: C_9  and  C_10 
REMARK    9  A    between atoms: C_9  and  C_12 
REMARK   10  A    between atoms: C_10  and  O_11 
REMARK   11  A    between atoms: C_12  and  C_13 
REMARK   12  A    between atoms: C_12  and  O_17 
REMARK   13  A    between atoms: C_13  and  C_14 
REMARK   14  A    between atoms: C_13  and  O_16 
ROOT
HETATM    1  C   UNK N   1      21.845  19.278   3.506  0.00  0.00     0.179 C 
HETATM    2  C   UNK N   1      20.808  19.210   2.373  0.00  0.00     0.180 C 
HETATM    3  C   UNK N   1      19.569  18.456   2.873  0.00  0.00     0.183 C 
HETATM    4  C   UNK N   1      19.944  17.144   3.575  0.00  0.00     0.204 C 
HETATM    5  C   UNK N   1      21.015  17.503   4.608  0.00  0.00     0.292 C 
HETATM    6  O   UNK N   1      22.155  17.973   3.922  0.00  0.00    -0.348 OA
ENDROOT
BRANCH   5   7
HETATM    7  O   UNK N   1      21.262  16.467   5.554  0.00  0.00    -0.348 OA
BRANCH   7   8
HETATM    8  C   UNK N   1      21.287  16.932   6.888  0.00  0.00     0.179 C 
BRANCH   8   9
HETATM    9  C   UNK N   1      20.971  18.427   6.905  0.00  0.00     0.198 C 
BRANCH   9  10
HETATM   10  O   UNK N   1      20.395  18.768   8.130  0.00  0.00    -0.398 OA
HETATM   11  H   UNK N   1      19.541  19.132   8.411  0.00  0.00     0.209 HD
ENDBRANCH   9  10
ENDBRANCH   8   9
BRANCH   8  12
HETATM   12  C   UNK N   1      20.240  16.150   7.704  0.00  0.00     0.184 C 
BRANCH  12  13
HETATM   13  C   UNK N   1      20.639  14.696   8.018  0.00  0.00     0.210 C 
BRANCH  13  14
HETATM   14  C   UNK N   1      20.500  14.422   9.486  0.00  0.00     0.265 C 
HETATM   15  O   UNK N   1      19.581  13.732   9.918  0.00  0.00    -0.304 OA
ENDBRANCH  13  14
BRANCH  13  16
HETATM   16  O   UNK N   1      21.951  14.434   7.616  0.00  0.00    -0.386 OA
HETATM   17  H   UNK N   1      22.641  15.104   7.486  0.00  0.00     0.210 HD
ENDBRANCH  13  16
ENDBRANCH  12  13
BRANCH  12  18
HETATM   18  O   UNK N   1      19.026  16.156   7.012  0.00  0.00    -0.390 OA
HETATM   19  H   UNK N   1      18.837  15.638   6.214  0.00  0.00     0.210 HD
ENDBRANCH  12  18
ENDBRANCH   8  12
ENDBRANCH   7   8
ENDBRANCH   5   7
BRANCH   4  20
HETATM   20  O   UNK N   1      18.816  16.615   4.202  0.00  0.00    -0.388 OA
HETATM   21  H   UNK N   1      18.339  15.808   3.952  0.00  0.00     0.210 HD
ENDBRANCH   4  20
BRANCH   3  22
HETATM   22  O   UNK N   1      18.689  18.215   1.816  0.00  0.00    -0.390 OA
HETATM   23  H   UNK N   1      18.863  17.816   0.950  0.00  0.00     0.210 HD
ENDBRANCH   3  22
BRANCH   1  24
HETATM   24  C   UNK N   1      23.114  19.965   3.030  0.00  0.00     0.198 C 
BRANCH  24  25
HETATM   25  O   UNK N   1      22.890  21.334   2.883  0.00  0.00    -0.398 OA
HETATM   26  H   UNK N   1      22.031  21.783   2.920  0.00  0.00     0.209 HD
ENDBRANCH  24  25
ENDBRANCH   1  24
BRANCH   2  27
HETATM   27  O   UNK N   1      20.439  20.500   1.986  0.00  0.00    -0.390 OA
HETATM   28  H   UNK N   1      19.539  20.726   1.704  0.00  0.00     0.210 HD
ENDBRANCH   2  27
TORSDOF 14
ENDMDL
MODEL 5
REMARK VINA RESULT:      -5.2      3.851      6.580
REMARK  14 active torsions:
REMARK  status: ('A' for Active; 'I' for Inactive)
REMARK    1  A    between atoms: C_2  and  C_1 
REMARK    2  A    between atoms: C_1  and  O_21 
REMARK    3  A    between atoms: C_3  and  O_20 
REMARK    4  A    between atoms: C_4  and  O_19 
REMARK    5  A    between atoms: C_5  and  O_18 
REMARK    6  A    between atoms: C_6  and  O_8 
REMARK    7  A    between atoms: C_9  and  O_8 
REMARK    8  A    between atoms: C_9  and  C_10 
REMARK    9  A    between atoms: C_9  and  C_12 
REMARK   10  A    between atoms: C_10  and  O_11 
REMARK   11  A    between atoms: C_12  and  C_13 
REMARK   12  A    between atoms: C_12  and  O_17 
REMARK   13  A    between atoms: C_13  and  C_14 
REMARK   14  A    between atoms: C_13  and  O_16 
ROOT
HETATM    1  C   UNK N   1      34.319  13.552  10.108  0.00  0.00     0.179 C 
HETATM    2  C   UNK N   1      35.180  13.707  11.371  0.00  0.00     0.180 C 
HETATM    3  C   UNK N   1      35.407  15.199  11.642  0.00  0.00     0.183 C 
HETATM    4  C   UNK N   1      35.854  15.947  10.379  0.00  0.00     0.204 C 
HETATM    5  C   UNK N   1      34.851  15.574   9.285  0.00  0.00     0.292 C 
HETATM    6  O   UNK N   1      34.960  14.190   9.033  0.00  0.00    -0.348 OA
ENDROOT
BRANCH   5   7
HETATM    7  O   UNK N   1      34.933  16.407   8.131  0.00  0.00    -0.348 OA
BRANCH   7   8
HETATM    8  C   UNK N   1      33.686  16.953   7.755  0.00  0.00     0.179 C 
BRANCH   8   9
HETATM    9  C   UNK N   1      33.630  18.419   8.182  0.00  0.00     0.198 C 
BRANCH   9  10
HETATM   10  O   UNK N   1      34.925  18.935   8.254  0.00  0.00    -0.398 OA
HETATM   11  H   UNK N   1      35.650  18.886   8.896  0.00  0.00     0.209 HD
ENDBRANCH   9  10
ENDBRANCH   8   9
BRANCH   8  12
HETATM   12  C   UNK N   1      33.531  16.831   6.227  0.00  0.00     0.184 C 
BRANCH  12  13
HETATM   13  C   UNK N   1      34.193  15.578   5.622  0.00  0.00     0.210 C 
BRANCH  13  14
HETATM   14  C   UNK N   1      33.841  15.452   4.170  0.00  0.00     0.265 C 
HETATM   15  O   UNK N   1      33.146  16.296   3.610  0.00  0.00    -0.304 OA
ENDBRANCH  13  14
BRANCH  13  16
HETATM   16  O   UNK N   1      33.799  14.422   6.301  0.00  0.00    -0.386 OA
HETATM   17  H   UNK N   1      34.366  13.652   6.471  0.00  0.00     0.210 HD
ENDBRANCH  13  16
ENDBRANCH  12  13
BRANCH  12  18
HETATM   18  O   UNK N   1      34.066  17.972   5.623  0.00  0.00    -0.390 OA
HETATM   19  H   UNK N   1      33.559  18.762   5.378  0.00  0.00     0.210 HD
ENDBRANCH  12  18
ENDBRANCH   8  12
ENDBRANCH   7   8
ENDBRANCH   5   7
BRANCH   4  20
HETATM   20  O   UNK N   1      35.828  17.321  10.620  0.00  0.00    -0.388 OA
HETATM   21  H   UNK N   1      35.689  17.757  11.476  0.00  0.00     0.210 HD
ENDBRANCH   4  20
BRANCH   3  22
HETATM   22  O   UNK N   1      36.337  15.369  12.669  0.00  0.00    -0.390 OA
HETATM   23  H   UNK N   1      37.239  15.021  12.747  0.00  0.00     0.210 HD
ENDBRANCH   3  22
BRANCH   1  24
HETATM   24  C   UNK N   1      34.122  12.083   9.769  0.00  0.00     0.198 C 
BRANCH  24  25
HETATM   25  O   UNK N   1      35.178  11.330  10.283  0.00  0.00    -0.398 OA
HETATM   26  H   UNK N   1      36.123  11.533  10.201  0.00  0.00     0.209 HD
ENDBRANCH  24  25
ENDBRANCH   1  24
BRANCH   2  27
HETATM   27  O   UNK N   1      34.531  13.131  12.465  0.00  0.00    -0.390 OA
HETATM   28  H   UNK N   1      34.805  12.285  12.852  0.00  0.00     0.210 HD
ENDBRANCH   2  27
TORSDOF 14
ENDMDL
MODEL 6
REMARK VINA RESULT:      -5.1      1.377      3.385
REMARK  14 active torsions:
REMARK  status: ('A' for Active; 'I' for Inactive)
REMARK    1  A    between atoms: C_2  and  C_1 
REMARK    2  A    between atoms: C_1  and  O_21 
REMARK    3  A    between atoms: C_3  and  O_20 
REMARK    4  A    between atoms: C_4  and  O_19 
REMARK    5  A    between atoms: C_5  and  O_18 
REMARK    6  A    between atoms: C_6  and  O_8 
REMARK    7  A    between atoms: C_9  and  O_8 
REMARK    8  A    between atoms: C_9  and  C_10 
REMARK    9  A    between atoms: C_9  and  C_12 
REMARK   10  A    between atoms: C_10  and  O_11 
REMARK   11  A    between atoms: C_12  and  C_13 
REMARK   12  A    between atoms: C_12  and  O_17 
REMARK   13  A    between atoms: C_13  and  C_14 
REMARK   14  A    between atoms: C_13  and  O_16 
ROOT
HETATM    1  C   UNK N   1      29.251  17.503   8.053  0.00  0.00     0.179 C 
HETATM    2  C   UNK N   1      28.828  18.152   6.725  0.00  0.00     0.180 C 
HETATM    3  C   UNK N   1      29.415  17.341   5.562  0.00  0.00     0.183 C 
HETATM    4  C   UNK N   1      30.907  17.047   5.768  0.00  0.00     0.204 C 
HETATM    5  C   UNK N   1      31.036  16.456   7.174  0.00  0.00     0.292 C 
HETATM    6  O   UNK N   1      30.653  17.443   8.108  0.00  0.00    -0.348 OA
ENDROOT
BRANCH   5   7
HETATM    7  O   UNK N   1      32.300  15.848   7.421  0.00  0.00    -0.348 OA
BRANCH   7   8
HETATM    8  C   UNK N   1      32.307  15.042   8.582  0.00  0.00     0.179 C 
BRANCH   8   9
HETATM    9  C   UNK N   1      32.773  13.634   8.214  0.00  0.00     0.198 C 
BRANCH   9  10
HETATM   10  O   UNK N   1      32.352  12.732   9.192  0.00  0.00    -0.398 OA
HETATM   11  H   UNK N   1      32.795  12.170   9.847  0.00  0.00     0.209 HD
ENDBRANCH   9  10
ENDBRANCH   8   9
BRANCH   8  12
HETATM   12  C   UNK N   1      33.260  15.671   9.616  0.00  0.00     0.184 C 
BRANCH  12  13
HETATM   13  C   UNK N   1      34.749  15.601   9.229  0.00  0.00     0.210 C 
BRANCH  13  14
HETATM   14  C   UNK N   1      35.602  16.147  10.336  0.00  0.00     0.265 C 
HETATM   15  O   UNK N   1      35.261  17.143  10.967  0.00  0.00    -0.304 OA
ENDBRANCH  13  14
BRANCH  13  16
HETATM   16  O   UNK N   1      34.999  16.311   8.052  0.00  0.00    -0.386 OA
HETATM   17  H   UNK N   1      35.486  17.148   7.996  0.00  0.00     0.210 HD
ENDBRANCH  13  16
ENDBRANCH  12  13
BRANCH  12  18
HETATM   18  O   UNK N   1      33.074  15.040  10.850  0.00  0.00    -0.390 OA
HETATM   19  H   UNK N   1      33.681  15.101  11.603  0.00  0.00     0.210 HD
ENDBRANCH  12  18
ENDBRANCH   8  12
ENDBRANCH   7   8
ENDBRANCH   5   7
BRANCH   4  20
HETATM   20  O   UNK N   1      31.335  16.127   4.810  0.00  0.00    -0.388 OA
HETATM   21  H   UNK N   1      31.859  16.319   4.016  0.00  0.00     0.210 HD
ENDBRANCH   4  20
BRANCH   3  22
HETATM   22  O   UNK N   1      29.207  18.007   4.353  0.00  0.00    -0.390 OA
HETATM   23  H   UNK N   1      28.391  18.384   3.990  0.00  0.00     0.210 HD
ENDBRANCH   3  22
BRANCH   1  24
HETATM   24  C   UNK N   1      28.740  18.313   9.232  0.00  0.00     0.198 C 
BRANCH  24  25
HETATM   25  O   UNK N   1      27.394  18.026   9.461  0.00  0.00    -0.398 OA
HETATM   26  H   UNK N   1      26.855  18.344  10.203  0.00  0.00     0.209 HD
ENDBRANCH  24  25
ENDBRANCH   1  24
BRANCH   2  27
HETATM   27  O   UNK N   1      27.435  18.165   6.623  0.00  0.00    -0.390 OA
HETATM   28  H   UNK N   1      26.854  18.247   7.395  0.00  0.00     0.210 HD
ENDBRANCH   2  27
TORSDOF 14
ENDMDL
MODEL 7
REMARK VINA RESULT:      -5.1      1.488      3.093
REMARK  14 active torsions:
REMARK  status: ('A' for Active; 'I' for Inactive)
REMARK    1  A    between atoms: C_2  and  C_1 
REMARK    2  A    between atoms: C_1  and  O_21 
REMARK    3  A    between atoms: C_3  and  O_20 
REMARK    4  A    between atoms: C_4  and  O_19 
REMARK    5  A    between atoms: C_5  and  O_18 
REMARK    6  A    between atoms: C_6  and  O_8 
REMARK    7  A    between atoms: C_9  and  O_8 
REMARK    8  A    between atoms: C_9  and  C_10 
REMARK    9  A    between atoms: C_9  and  C_12 
REMARK   10  A    between atoms: C_10  and  O_11 
REMARK   11  A    between atoms: C_12  and  C_13 
REMARK   12  A    between atoms: C_12  and  O_17 
REMARK   13  A    between atoms: C_13  and  C_14 
REMARK   14  A    between atoms: C_13  and  O_16 
ROOT
HETATM    1  C   UNK N   1      28.970  17.059   7.857  0.00  0.00     0.179 C 
HETATM    2  C   UNK N   1      27.809  17.352   6.893  0.00  0.00     0.180 C 
HETATM    3  C   UNK N   1      28.259  17.044   5.459  0.00  0.00     0.183 C 
HETATM    4  C   UNK N   1      29.623  17.671   5.142  0.00  0.00     0.204 C 
HETATM    5  C   UNK N   1      30.559  17.255   6.279  0.00  0.00     0.292 C 
HETATM    6  O   UNK N   1      30.085  17.827   7.479  0.00  0.00    -0.348 OA
ENDROOT
BRANCH   5   7
HETATM    7  O   UNK N   1      31.935  17.494   5.998  0.00  0.00    -0.348 OA
BRANCH   7   8
HETATM    8  C   UNK N   1      32.759  16.384   6.292  0.00  0.00     0.179 C 
BRANCH   8   9
HETATM    9  C   UNK N   1      33.333  15.825   4.990  0.00  0.00     0.198 C 
BRANCH   9  10
HETATM   10  O   UNK N   1      34.611  15.317   5.223  0.00  0.00    -0.398 OA
HETATM   11  H   UNK N   1      35.208  14.715   4.752  0.00  0.00     0.209 HD
ENDBRANCH   9  10
ENDBRANCH   8   9
BRANCH   8  12
HETATM   12  C   UNK N   1      33.894  16.843   7.227  0.00  0.00     0.184 C 
BRANCH  12  13
HETATM   13  C   UNK N   1      33.434  17.197   8.654  0.00  0.00     0.210 C 
BRANCH  13  14
HETATM   14  C   UNK N   1      34.551  16.979   9.631  0.00  0.00     0.265 C 
HETATM   15  O   UNK N   1      35.459  17.797   9.749  0.00  0.00    -0.304 OA
ENDBRANCH  13  14
BRANCH  13  16
HETATM   16  O   UNK N   1      32.326  16.433   9.031  0.00  0.00    -0.386 OA
HETATM   17  H   UNK N   1      31.490  16.381   8.542  0.00  0.00     0.210 HD
ENDBRANCH  13  16
ENDBRANCH  12  13
BRANCH  12  18
HETATM   18  O   UNK N   1      34.532  17.950   6.660  0.00  0.00    -0.390 OA
HETATM   19  H   UNK N   1      34.566  18.836   7.055  0.00  0.00     0.210 HD
ENDBRANCH  12  18
ENDBRANCH   8  12
ENDBRANCH   7   8
ENDBRANCH   5   7
BRANCH   4  20
HETATM   20  O   UNK N   1      30.086  17.181   3.921  0.00  0.00    -0.388 OA
HETATM   21  H   UNK N   1      30.233  16.250   3.689  0.00  0.00     0.210 HD
ENDBRANCH   4  20
BRANCH   3  22
HETATM   22  O   UNK N   1      27.295  17.475   4.546  0.00  0.00    -0.390 OA
HETATM   23  H   UNK N   1      26.800  18.309   4.520  0.00  0.00     0.210 HD
ENDBRANCH   3  22
BRANCH   1  24
HETATM   24  C   UNK N   1      28.584  17.411   9.284  0.00  0.00     0.198 C 
BRANCH  24  25
HETATM   25  O   UNK N   1      27.467  18.246   9.284  0.00  0.00    -0.398 OA
HETATM   26  H   UNK N   1      26.538  17.965   9.292  0.00  0.00     0.209 HD
ENDBRANCH  24  25
ENDBRANCH   1  24
BRANCH   2  27
HETATM   27  O   UNK N   1      26.710  16.553   7.215  0.00  0.00    -0.390 OA
HETATM   28  H   UNK N   1      26.401  16.428   8.126  0.00  0.00     0.210 HD
ENDBRANCH   2  27
TORSDOF 14
ENDMDL
MODEL 8
REMARK VINA RESULT:      -5.1      3.479      6.913
REMARK  14 active torsions:
REMARK  status: ('A' for Active; 'I' for Inactive)
REMARK    1  A    between atoms: C_2  and  C_1 
REMARK    2  A    between atoms: C_1  and  O_21 
REMARK    3  A    between atoms: C_3  and  O_20 
REMARK    4  A    between atoms: C_4  and  O_19 
REMARK    5  A    between atoms: C_5  and  O_18 
REMARK    6  A    between atoms: C_6  and  O_8 
REMARK    7  A    between atoms: C_9  and  O_8 
REMARK    8  A    between atoms: C_9  and  C_10 
REMARK    9  A    between atoms: C_9  and  C_12 
REMARK   10  A    between atoms: C_10  and  O_11 
REMARK   11  A    between atoms: C_12  and  C_13 
REMARK   12  A    between atoms: C_12  and  O_17 
REMARK   13  A    between atoms: C_13  and  C_14 
REMARK   14  A    between atoms: C_13  and  O_16 
ROOT
HETATM    1  C   UNK N   1      36.988  14.343   9.791  0.00  0.00     0.179 C 
HETATM    2  C   UNK N   1      36.469  13.294  10.787  0.00  0.00     0.180 C 
HETATM    3  C   UNK N   1      34.958  13.483  10.971  0.00  0.00     0.183 C 
HETATM    4  C   UNK N   1      34.594  14.951  11.229  0.00  0.00     0.204 C 
HETATM    5  C   UNK N   1      35.276  15.760  10.124  0.00  0.00     0.292 C 
HETATM    6  O   UNK N   1      36.673  15.626  10.270  0.00  0.00    -0.348 OA
ENDROOT
BRANCH   5   7
HETATM    7  O   UNK N   1      34.805  17.102  10.028  0.00  0.00    -0.348 OA
BRANCH   7   8
HETATM    8  C   UNK N   1      34.014  17.329   8.880  0.00  0.00     0.179 C 
BRANCH   8   9
HETATM    9  C   UNK N   1      34.550  18.550   8.133  0.00  0.00     0.198 C 
BRANCH   9  10
HETATM   10  O   UNK N   1      35.518  19.186   8.912  0.00  0.00    -0.398 OA
HETATM   11  H   UNK N   1      36.442  19.005   9.145  0.00  0.00     0.209 HD
ENDBRANCH   9  10
ENDBRANCH   8   9
BRANCH   8  12
HETATM   12  C   UNK N   1      34.073  16.080   7.981  0.00  0.00     0.184 C 
BRANCH  12  13
HETATM   13  C   UNK N   1      34.429  16.373   6.512  0.00  0.00     0.210 C 
BRANCH  13  14
HETATM   14  C   UNK N   1      33.247  16.111   5.626  0.00  0.00     0.265 C 
HETATM   15  O   UNK N   1      32.345  16.935   5.512  0.00  0.00    -0.304 OA
ENDBRANCH  13  14
BRANCH  13  16
HETATM   16  O   UNK N   1      35.512  15.597   6.090  0.00  0.00    -0.386 OA
HETATM   17  H   UNK N   1      35.634  15.248   5.192  0.00  0.00     0.210 HD
ENDBRANCH  13  16
ENDBRANCH  12  13
BRANCH  12  18
HETATM   18  O   UNK N   1      32.841  15.422   8.035  0.00  0.00    -0.390 OA
HETATM   19  H   UNK N   1      32.723  14.459   8.008  0.00  0.00     0.210 HD
ENDBRANCH  12  18
ENDBRANCH   8  12
ENDBRANCH   7   8
ENDBRANCH   5   7
BRANCH   4  20
HETATM   20  O   UNK N   1      33.209  15.104  11.164  0.00  0.00    -0.388 OA
HETATM   21  H   UNK N   1      32.624  15.398  11.881  0.00  0.00     0.210 HD
ENDBRANCH   4  20
BRANCH   3  22
HETATM   22  O   UNK N   1      34.490  12.672  12.006  0.00  0.00    -0.390 OA
HETATM   23  H   UNK N   1      34.663  11.733  12.179  0.00  0.00     0.210 HD
ENDBRANCH   3  22
BRANCH   1  24
HETATM   24  C   UNK N   1      38.495  14.228   9.629  0.00  0.00     0.198 C 
BRANCH  24  25
HETATM   25  O   UNK N   1      38.799  13.250   8.681  0.00  0.00    -0.398 OA
HETATM   26  H   UNK N   1      39.285  13.384   7.852  0.00  0.00     0.209 HD
ENDBRANCH  24  25
ENDBRANCH   1  24
BRANCH   2  27
HETATM   27  O   UNK N   1      36.718  12.009  10.300  0.00  0.00    -0.390 OA
HETATM   28  H   UNK N   1      37.450  11.811   9.695  0.00  0.00     0.210 HD
ENDBRANCH   2  27
TORSDOF 14
ENDMDL
MODEL 9
REMARK VINA RESULT:      -5.1      8.548     11.398
REMARK  14 active torsions:
REMARK  status: ('A' for Active; 'I' for Inactive)
REMARK    1  A    between atoms: C_2  and  C_1 
REMARK    2  A    between atoms: C_1  and  O_21 
REMARK    3  A    between atoms: C_3  and  O_20 
REMARK    4  A    between atoms: C_4  and  O_19 
REMARK    5  A    between atoms: C_5  and  O_18 
REMARK    6  A    between atoms: C_6  and  O_8 
REMARK    7  A    between atoms: C_9  and  O_8 
REMARK    8  A    between atoms: C_9  and  C_10 
REMARK    9  A    between atoms: C_9  and  C_12 
REMARK   10  A    between atoms: C_10  and  O_11 
REMARK   11  A    between atoms: C_12  and  C_13 
REMARK   12  A    between atoms: C_12  and  O_17 
REMARK   13  A    between atoms: C_13  and  C_14 
REMARK   14  A    between atoms: C_13  and  O_16 
ROOT
HETATM    1  C   UNK N   1      21.601  19.587   3.288  0.00  0.00     0.179 C 
HETATM    2  C   UNK N   1      20.683  19.238   2.106  0.00  0.00     0.180 C 
HETATM    3  C   UNK N   1      19.569  18.304   2.596  0.00  0.00     0.183 C 
HETATM    4  C   UNK N   1      20.124  17.144   3.432  0.00  0.00     0.204 C 
HETATM    5  C   UNK N   1      21.030  17.777   4.491  0.00  0.00     0.292 C 
HETATM    6  O   UNK N   1      22.114  18.399   3.837  0.00  0.00    -0.348 OA
ENDROOT
BRANCH   5   7
HETATM    7  O   UNK N   1      21.390  16.881   5.539  0.00  0.00    -0.348 OA
BRANCH   7   8
HETATM    8  C   UNK N   1      22.354  15.927   5.143  0.00  0.00     0.179 C 
BRANCH   8   9
HETATM    9  C   UNK N   1      23.630  16.131   5.960  0.00  0.00     0.198 C 
BRANCH   9  10
HETATM   10  O   UNK N   1      24.274  17.295   5.537  0.00  0.00    -0.398 OA
HETATM   11  H   UNK N   1      24.050  18.238   5.523  0.00  0.00     0.209 HD
ENDBRANCH   9  10
ENDBRANCH   8   9
BRANCH   8  12
HETATM   12  C   UNK N   1      21.782  14.517   5.380  0.00  0.00     0.184 C 
BRANCH  12  13
HETATM   13  C   UNK N   1      20.912  14.391   6.645  0.00  0.00     0.210 C 
BRANCH  13  14
HETATM   14  C   UNK N   1      21.007  13.004   7.208  0.00  0.00     0.265 C 
HETATM   15  O   UNK N   1      20.570  12.037   6.590  0.00  0.00    -0.304 OA
ENDBRANCH  13  14
BRANCH  13  16
HETATM   16  O   UNK N   1      19.576  14.694   6.371  0.00  0.00    -0.386 OA
HETATM   17  H   UNK N   1      19.255  15.130   5.565  0.00  0.00     0.210 HD
ENDBRANCH  13  16
ENDBRANCH  12  13
BRANCH  12  18
HETATM   18  O   UNK N   1      22.839  13.604   5.455  0.00  0.00    -0.390 OA
HETATM   19  H   UNK N   1      23.366  13.300   4.700  0.00  0.00     0.210 HD
ENDBRANCH  12  18
ENDBRANCH   8  12
ENDBRANCH   7   8
ENDBRANCH   5   7
BRANCH   4  20
HETATM   20  O   UNK N   1      19.068  16.461   4.036  0.00  0.00    -0.388 OA
HETATM   21  H   UNK N   1      19.021  15.508   4.214  0.00  0.00     0.210 HD
ENDBRANCH   4  20
BRANCH   3  22
HETATM   22  O   UNK N   1      18.831  17.821   1.514  0.00  0.00    -0.390 OA
HETATM   23  H   UNK N   1      19.140  17.417   0.688  0.00  0.00     0.210 HD
ENDBRANCH   3  22
BRANCH   1  24
HETATM   24  C   UNK N   1      22.756  20.463   2.830  0.00  0.00     0.198 C 
BRANCH  24  25
HETATM   25  O   UNK N   1      22.363  21.801   2.819  0.00  0.00    -0.398 OA
HETATM   26  H   UNK N   1      21.885  22.267   3.523  0.00  0.00     0.209 HD
ENDBRANCH  24  25
ENDBRANCH   1  24
BRANCH   2  27
HETATM   27  O   UNK N   1      20.115  20.402   1.584  0.00  0.00    -0.390 OA
HETATM   28  H   UNK N   1      19.951  21.193   2.122  0.00  0.00     0.210 HD
ENDBRANCH   2  27
TORSDOF 14
ENDMDL
