MODEL 1
REMARK VINA RESULT:      -6.7      0.000      0.000
REMARK  5 active torsions:
REMARK  status: ('A' for Active; 'I' for Inactive)
REMARK    1  A    between atoms: C_3  and  C_15 
REMARK    2  A    between atoms: N_7  and  O_10 
REMARK    3  A    between atoms: O_10  and  S_11 
REMARK    4  A    between atoms: S_11  and  O_14 
REMARK       I    between atoms: C_15  and  N_17 
REMARK    5  A    between atoms: N_17  and  C_18 
ROOT
HETATM    1  C   UNK N   1      28.170  23.157  -6.208  0.00  0.00     0.031 C 
HETATM    2  C   UNK N   1      28.028  23.876  -4.797  0.00  0.00     0.032 C 
HETATM    3  C   UNK N   1      27.782  25.430  -4.867  0.00  0.00     0.159 C 
HETATM    4  N   UNK N   1      27.126  25.675  -6.125  0.00  0.00    -0.217 NA
HETATM    5  C   UNK N   1      27.955  25.289  -7.241  0.00  0.00     0.129 C 
HETATM    6  C   UNK N   1      27.465  23.859  -7.433  0.00  0.00     0.134 C 
HETATM    7  N   UNK N   1      26.055  24.043  -7.128  0.00  0.00    -0.187 N 
HETATM    8  C   UNK N   1      25.940  25.073  -6.304  0.00  0.00     0.325 C 
HETATM    9  O   UNK N   1      24.921  25.349  -5.689  0.00  0.00    -0.251 OA
ENDROOT
BRANCH   3  10
HETATM   10  C   UNK N   1      27.018  25.980  -3.676  0.00  0.00     0.236 C 
HETATM   11  O   UNK N   1      26.438  25.212  -2.924  0.00  0.00    -0.272 OA
HETATM   12  N   UNK N   1      26.948  27.315  -3.434  0.00  0.00    -0.355 N 
HETATM   13  H   UNK N   1      26.431  27.620  -2.655  0.00  0.00     0.162 HD
BRANCH  12  14
HETATM   14  C   UNK N   1      27.596  28.311  -4.261  0.00  0.00     0.087 C 
HETATM   15  C   UNK N   1      26.721  29.566  -4.348  0.00  0.00     0.044 C 
HETATM   16  C   UNK N   1      26.883  30.496  -3.137  0.00  0.00     0.115 C 
HETATM   17  N   UNK N   1      27.518  29.807  -2.015  0.00  0.00    -0.421 N 
HETATM   18  C   UNK N   1      28.893  29.459  -2.383  0.00  0.00     0.115 C 
HETATM   19  H   UNK N   1      27.075  29.602  -1.119  0.00  0.00     0.153 HD
HETATM   20  C   UNK N   1      28.977  28.666  -3.701  0.00  0.00     0.044 C 
ENDBRANCH  12  14
ENDBRANCH   3  10
BRANCH   7  21
HETATM   21  O   UNK N   1      24.998  23.393  -7.670  0.00  0.00    -0.132 OA
BRANCH  21  22
HETATM   22  S   UNK N   1      25.099  21.706  -7.300  0.00  0.00     0.263 S 
HETATM   23  O   UNK N   1      23.887  21.235  -6.482  0.00  0.00    -0.578 OA
HETATM   24  O   UNK N   1      25.186  20.773  -8.519  0.00  0.00    -0.578 OA
BRANCH  22  25
HETATM   25  O   UNK N   1      23.741  22.062  -8.291  0.00  0.00    -0.272 OA
HETATM   26  H   UNK N   1      23.465  22.488  -9.117  0.00  0.00     0.234 HD
ENDBRANCH  22  25
ENDBRANCH  21  22
ENDBRANCH   7  21
TORSDOF 5
ENDMDL
MODEL 2
REMARK VINA RESULT:      -6.7     16.053     17.586
REMARK  5 active torsions:
REMARK  status: ('A' for Active; 'I' for Inactive)
REMARK    1  A    between atoms: C_3  and  C_15 
REMARK    2  A    between atoms: N_7  and  O_10 
REMARK    3  A    between atoms: O_10  and  S_11 
REMARK    4  A    between atoms: S_11  and  O_14 
REMARK       I    between atoms: C_15  and  N_17 
REMARK    5  A    between atoms: N_17  and  C_18 
ROOT
HETATM    1  C   UNK N   1      20.248  16.307   8.699  0.00  0.00     0.031 C 
HETATM    2  C   UNK N   1      19.265  16.528   7.469  0.00  0.00     0.032 C 
HETATM    3  C   UNK N   1      19.901  16.254   6.054  0.00  0.00     0.159 C 
HETATM    4  N   UNK N   1      20.949  15.290   6.268  0.00  0.00    -0.217 NA
HETATM    5  C   UNK N   1      21.976  15.805   7.142  0.00  0.00     0.129 C 
HETATM    6  C   UNK N   1      21.442  15.299   8.477  0.00  0.00     0.134 C 
HETATM    7  N   UNK N   1      20.907  14.015   8.054  0.00  0.00    -0.187 N 
HETATM    8  C   UNK N   1      20.574  14.106   6.775  0.00  0.00     0.325 C 
HETATM    9  O   UNK N   1      19.899  13.279   6.182  0.00  0.00    -0.251 OA
ENDROOT
BRANCH   3  10
HETATM   10  C   UNK N   1      18.892  15.820   5.008  0.00  0.00     0.236 C 
HETATM   11  O   UNK N   1      17.763  15.507   5.351  0.00  0.00    -0.272 OA
HETATM   12  N   UNK N   1      19.221  15.754   3.691  0.00  0.00    -0.355 N 
HETATM   13  H   UNK N   1      18.533  15.456   3.054  0.00  0.00     0.162 HD
BRANCH  12  14
HETATM   14  C   UNK N   1      20.529  16.100   3.176  0.00  0.00     0.087 C 
HETATM   15  C   UNK N   1      20.669  15.609   1.732  0.00  0.00     0.044 C 
HETATM   16  C   UNK N   1      20.037  16.565   0.710  0.00  0.00     0.115 C 
HETATM   17  N   UNK N   1      19.121  17.505   1.352  0.00  0.00    -0.421 N 
HETATM   18  C   UNK N   1      19.885  18.388   2.239  0.00  0.00     0.115 C 
HETATM   19  H   UNK N   1      18.112  17.542   1.205  0.00  0.00     0.153 HD
HETATM   20  C   UNK N   1      20.756  17.613   3.245  0.00  0.00     0.044 C 
ENDBRANCH  12  14
ENDBRANCH   3  10
BRANCH   7  21
HETATM   21  O   UNK N   1      20.863  12.861   8.760  0.00  0.00    -0.132 OA
BRANCH  21  22
HETATM   22  S   UNK N   1      21.610  13.095  10.304  0.00  0.00     0.263 S 
HETATM   23  O   UNK N   1      21.212  11.992  11.295  0.00  0.00    -0.578 OA
HETATM   24  O   UNK N   1      23.147  13.127  10.288  0.00  0.00    -0.578 OA
BRANCH  22  25
HETATM   25  O   UNK N   1      22.126  11.635   9.559  0.00  0.00    -0.272 OA
HETATM   26  H   UNK N   1      21.817  10.794   9.187  0.00  0.00     0.234 HD
ENDBRANCH  22  25
ENDBRANCH  21  22
ENDBRANCH   7  21
TORSDOF 5
ENDMDL
MODEL 3
REMARK VINA RESULT:      -6.5     16.743     18.305
REMARK  5 active torsions:
REMARK  status: ('A' for Active; 'I' for Inactive)
REMARK    1  A    between atoms: C_3  and  C_15 
REMARK    2  A    between atoms: N_7  and  O_10 
REMARK    3  A    between atoms: O_10  and  S_11 
REMARK    4  A    between atoms: S_11  and  O_14 
REMARK       I    between atoms: C_15  and  N_17 
REMARK    5  A    between atoms: N_17  and  C_18 
ROOT
HETATM    1  C   UNK N   1      31.296  17.490   7.220  0.00  0.00     0.031 C 
HETATM    2  C   UNK N   1      32.372  17.738   8.365  0.00  0.00     0.032 C 
HETATM    3  C   UNK N   1      33.199  16.465   8.784  0.00  0.00     0.159 C 
HETATM    4  N   UNK N   1      33.227  15.608   7.628  0.00  0.00    -0.217 NA
HETATM    5  C   UNK N   1      31.900  15.189   7.244  0.00  0.00     0.129 C 
HETATM    6  C   UNK N   1      31.574  16.286   6.238  0.00  0.00     0.134 C 
HETATM    7  N   UNK N   1      32.885  16.460   5.634  0.00  0.00    -0.187 N 
HETATM    8  C   UNK N   1      33.802  16.114   6.526  0.00  0.00     0.325 C 
HETATM    9  O   UNK N   1      34.994  16.351   6.411  0.00  0.00    -0.251 OA
ENDROOT
BRANCH   3  10
HETATM   10  C   UNK N   1      34.581  16.787   9.324  0.00  0.00     0.236 C 
HETATM   11  O   UNK N   1      35.036  17.912   9.184  0.00  0.00    -0.272 OA
HETATM   12  N   UNK N   1      35.335  15.845   9.948  0.00  0.00    -0.355 N 
HETATM   13  H   UNK N   1      36.228  16.103  10.270  0.00  0.00     0.162 HD
BRANCH  12  14
HETATM   14  C   UNK N   1      34.893  14.483  10.165  0.00  0.00     0.087 C 
HETATM   15  C   UNK N   1      35.776  13.515   9.373  0.00  0.00     0.044 C 
HETATM   16  C   UNK N   1      37.092  13.180  10.090  0.00  0.00     0.115 C 
HETATM   17  N   UNK N   1      37.381  14.140  11.153  0.00  0.00    -0.421 N 
HETATM   18  C   UNK N   1      36.363  14.015  12.201  0.00  0.00     0.115 C 
HETATM   19  H   UNK N   1      38.166  14.792  11.165  0.00  0.00     0.153 HD
HETATM   20  C   UNK N   1      34.928  14.134  11.656  0.00  0.00     0.044 C 
ENDBRANCH  12  14
ENDBRANCH   3  10
BRANCH   7  21
HETATM   21  O   UNK N   1      33.171  16.781   4.350  0.00  0.00    -0.132 OA
BRANCH  21  22
HETATM   22  S   UNK N   1      33.207  15.345   3.385  0.00  0.00     0.263 S 
HETATM   23  O   UNK N   1      31.790  14.882   3.013  0.00  0.00    -0.578 OA
HETATM   24  O   UNK N   1      33.982  15.465   2.063  0.00  0.00    -0.578 OA
BRANCH  22  25
HETATM   25  O   UNK N   1      32.524  16.672   2.532  0.00  0.00    -0.272 OA
HETATM   26  H   UNK N   1      32.392  17.050   1.648  0.00  0.00     0.234 HD
ENDBRANCH  22  25
ENDBRANCH  21  22
ENDBRANCH   7  21
TORSDOF 5
ENDMDL
MODEL 4
REMARK VINA RESULT:      -6.5      4.507      7.053
REMARK  5 active torsions:
REMARK  status: ('A' for Active; 'I' for Inactive)
REMARK    1  A    between atoms: C_3  and  C_15 
REMARK    2  A    between atoms: N_7  and  O_10 
REMARK    3  A    between atoms: O_10  and  S_11 
REMARK    4  A    between atoms: S_11  and  O_14 
REMARK       I    between atoms: C_15  and  N_17 
REMARK    5  A    between atoms: N_17  and  C_18 
ROOT
HETATM    1  C   UNK N   1      26.802  24.397  -3.507  0.00  0.00     0.031 C 
HETATM    2  C   UNK N   1      27.892  23.502  -2.771  0.00  0.00     0.032 C 
HETATM    3  C   UNK N   1      29.234  23.302  -3.570  0.00  0.00     0.159 C 
HETATM    4  N   UNK N   1      29.373  24.459  -4.415  0.00  0.00    -0.217 NA
HETATM    5  C   UNK N   1      28.285  24.561  -5.360  0.00  0.00     0.129 C 
HETATM    6  C   UNK N   1      27.340  25.446  -4.555  0.00  0.00     0.134 C 
HETATM    7  N   UNK N   1      28.312  26.312  -3.905  0.00  0.00    -0.187 N 
HETATM    8  C   UNK N   1      29.451  25.645  -3.792  0.00  0.00     0.325 C 
HETATM    9  O   UNK N   1      30.390  26.005  -3.101  0.00  0.00    -0.251 OA
ENDROOT
BRANCH   3  10
HETATM   10  C   UNK N   1      30.441  23.061  -2.682  0.00  0.00     0.236 C 
HETATM   11  O   UNK N   1      30.347  23.231  -1.477  0.00  0.00    -0.272 OA
HETATM   12  N   UNK N   1      31.636  22.675  -3.200  0.00  0.00    -0.355 N 
HETATM   13  H   UNK N   1      32.390  22.542  -2.583  0.00  0.00     0.162 HD
BRANCH  12  14
HETATM   14  C   UNK N   1      31.858  22.446  -4.613  0.00  0.00     0.087 C 
HETATM   15  C   UNK N   1      33.359  22.459  -4.915  0.00  0.00     0.044 C 
HETATM   16  C   UNK N   1      34.044  21.118  -4.611  0.00  0.00     0.115 C 
HETATM   17  N   UNK N   1      33.213  20.276  -3.753  0.00  0.00    -0.421 N 
HETATM   18  C   UNK N   1      31.999  19.899  -4.484  0.00  0.00     0.115 C 
HETATM   19  H   UNK N   1      33.442  19.994  -2.800  0.00  0.00     0.153 HD
HETATM   20  C   UNK N   1      31.241  21.114  -5.050  0.00  0.00     0.044 C 
ENDBRANCH  12  14
ENDBRANCH   3  10
BRANCH   7  21
HETATM   21  O   UNK N   1      28.171  27.618  -3.579  0.00  0.00    -0.132 OA
BRANCH  21  22
HETATM   22  S   UNK N   1      26.560  28.137  -3.939  0.00  0.00     0.263 S 
HETATM   23  O   UNK N   1      25.578  27.734  -2.829  0.00  0.00    -0.578 OA
HETATM   24  O   UNK N   1      26.390  29.652  -4.136  0.00  0.00    -0.578 OA
BRANCH  22  25
HETATM   25  O   UNK N   1      27.173  28.891  -2.521  0.00  0.00    -0.272 OA
HETATM   26  H   UNK N   1      27.475  29.736  -2.151  0.00  0.00     0.234 HD
ENDBRANCH  22  25
ENDBRANCH  21  22
ENDBRANCH   7  21
TORSDOF 5
ENDMDL
MODEL 5
REMARK VINA RESULT:      -6.5     19.835     21.630
REMARK  5 active torsions:
REMARK  status: ('A' for Active; 'I' for Inactive)
REMARK    1  A    between atoms: C_3  and  C_15 
REMARK    2  A    between atoms: N_7  and  O_10 
REMARK    3  A    between atoms: O_10  and  S_11 
REMARK    4  A    between atoms: S_11  and  O_14 
REMARK       I    between atoms: C_15  and  N_17 
REMARK    5  A    between atoms: N_17  and  C_18 
ROOT
HETATM    1  C   UNK N   1      37.690  13.271  10.680  0.00  0.00     0.031 C 
HETATM    2  C   UNK N   1      37.321  14.781  10.341  0.00  0.00     0.032 C 
HETATM    3  C   UNK N   1      35.944  14.977   9.601  0.00  0.00     0.159 C 
HETATM    4  N   UNK N   1      35.118  13.865   9.994  0.00  0.00    -0.217 NA
HETATM    5  C   UNK N   1      35.688  12.606   9.579  0.00  0.00     0.129 C 
HETATM    6  C   UNK N   1      36.482  12.267  10.835  0.00  0.00     0.134 C 
HETATM    7  N   UNK N   1      35.568  12.775  11.846  0.00  0.00    -0.187 N 
HETATM    8  C   UNK N   1      34.856  13.753  11.305  0.00  0.00     0.325 C 
HETATM    9  O   UNK N   1      34.161  14.528  11.944  0.00  0.00    -0.251 OA
ENDROOT
BRANCH   3  10
HETATM   10  C   UNK N   1      35.299  16.325   9.864  0.00  0.00     0.236 C 
HETATM   11  O   UNK N   1      35.880  17.148  10.554  0.00  0.00    -0.272 OA
HETATM   12  N   UNK N   1      34.075  16.635   9.361  0.00  0.00    -0.355 N 
HETATM   13  H   UNK N   1      33.697  17.518   9.570  0.00  0.00     0.162 HD
BRANCH  12  14
HETATM   14  C   UNK N   1      33.301  15.734   8.533  0.00  0.00     0.087 C 
HETATM   15  C   UNK N   1      31.882  15.598   9.095  0.00  0.00     0.044 C 
HETATM   16  C   UNK N   1      30.957  16.748   8.673  0.00  0.00     0.115 C 
HETATM   17  N   UNK N   1      31.719  17.890   8.171  0.00  0.00    -0.421 N 
HETATM   18  C   UNK N   1      32.397  17.506   6.930  0.00  0.00     0.115 C 
HETATM   19  H   UNK N   1      31.768  18.808   8.613  0.00  0.00     0.153 HD
HETATM   20  C   UNK N   1      33.252  16.234   7.087  0.00  0.00     0.044 C 
ENDBRANCH  12  14
ENDBRANCH   3  10
BRANCH   7  21
HETATM   21  O   UNK N   1      35.347  12.284  13.087  0.00  0.00    -0.132 OA
BRANCH  21  22
HETATM   22  S   UNK N   1      36.548  12.892  14.176  0.00  0.00     0.263 S 
HETATM   23  O   UNK N   1      36.569  14.428  14.189  0.00  0.00    -0.578 OA
HETATM   24  O   UNK N   1      36.388  12.449  15.639  0.00  0.00    -0.578 OA
BRANCH  22  25
HETATM   25  O   UNK N   1      34.961  13.344  14.657  0.00  0.00    -0.272 OA
HETATM   26  H   UNK N   1      34.042  13.414  14.356  0.00  0.00     0.234 HD
ENDBRANCH  22  25
ENDBRANCH  21  22
ENDBRANCH   7  21
TORSDOF 5
ENDMDL
MODEL 6
REMARK VINA RESULT:      -6.2     15.256     17.284
REMARK  5 active torsions:
REMARK  status: ('A' for Active; 'I' for Inactive)
REMARK    1  A    between atoms: C_3  and  C_15 
REMARK    2  A    between atoms: N_7  and  O_10 
REMARK    3  A    between atoms: O_10  and  S_11 
REMARK    4  A    between atoms: S_11  and  O_14 
REMARK       I    between atoms: C_15  and  N_17 
REMARK    5  A    between atoms: N_17  and  C_18 
ROOT
HETATM    1  C   UNK N   1      34.612  14.679   6.616  0.00  0.00     0.031 C 
HETATM    2  C   UNK N   1      34.019  15.520   5.404  0.00  0.00     0.032 C 
HETATM    3  C   UNK N   1      32.487  15.868   5.525  0.00  0.00     0.159 C 
HETATM    4  N   UNK N   1      32.196  15.904   6.934  0.00  0.00    -0.217 NA
HETATM    5  C   UNK N   1      32.428  14.623   7.558  0.00  0.00     0.129 C 
HETATM    6  C   UNK N   1      33.872  14.821   8.003  0.00  0.00     0.134 C 
HETATM    7  N   UNK N   1      33.822  16.226   8.373  0.00  0.00    -0.187 N 
HETATM    8  C   UNK N   1      32.871  16.809   7.658  0.00  0.00     0.325 C 
HETATM    9  O   UNK N   1      32.724  18.018   7.571  0.00  0.00    -0.251 OA
ENDROOT
BRANCH   3  10
HETATM   10  C   UNK N   1      32.094  17.142   4.799  0.00  0.00     0.236 C 
HETATM   11  O   UNK N   1      32.943  17.782   4.200  0.00  0.00    -0.272 OA
HETATM   12  N   UNK N   1      30.815  17.599   4.815  0.00  0.00    -0.355 N 
HETATM   13  H   UNK N   1      30.614  18.435   4.337  0.00  0.00     0.162 HD
BRANCH  12  14
HETATM   14  C   UNK N   1      29.731  16.919   5.494  0.00  0.00     0.087 C 
HETATM   15  C   UNK N   1      28.870  17.936   6.250  0.00  0.00     0.044 C 
HETATM   16  C   UNK N   1      27.840  18.634   5.351  0.00  0.00     0.115 C 
HETATM   17  N   UNK N   1      28.166  18.470   3.936  0.00  0.00    -0.421 N 
HETATM   18  C   UNK N   1      28.047  17.053   3.579  0.00  0.00     0.115 C 
HETATM   19  H   UNK N   1      28.432  19.220   3.299  0.00  0.00     0.153 HD
HETATM   20  C   UNK N   1      28.874  16.134   4.498  0.00  0.00     0.044 C 
ENDBRANCH  12  14
ENDBRANCH   3  10
BRANCH   7  21
HETATM   21  O   UNK N   1      34.506  16.848   9.362  0.00  0.00    -0.132 OA
BRANCH  21  22
HETATM   22  S   UNK N   1      35.395  15.680  10.278  0.00  0.00     0.263 S 
HETATM   23  O   UNK N   1      36.721  16.260  10.793  0.00  0.00    -0.578 OA
HETATM   24  O   UNK N   1      34.663  15.119  11.508  0.00  0.00    -0.578 OA
BRANCH  22  25
HETATM   25  O   UNK N   1      34.936  17.031  11.238  0.00  0.00    -0.272 OA
HETATM   26  H   UNK N   1      34.427  17.856  11.235  0.00  0.00     0.234 HD
ENDBRANCH  22  25
ENDBRANCH  21  22
ENDBRANCH   7  21
TORSDOF 5
ENDMDL
MODEL 7
REMARK VINA RESULT:      -6.1     12.901     15.003
REMARK  5 active torsions:
REMARK  status: ('A' for Active; 'I' for Inactive)
REMARK    1  A    between atoms: C_3  and  C_15 
REMARK    2  A    between atoms: N_7  and  O_10 
REMARK    3  A    between atoms: O_10  and  S_11 
REMARK    4  A    between atoms: S_11  and  O_14 
REMARK       I    between atoms: C_15  and  N_17 
REMARK    5  A    between atoms: N_17  and  C_18 
ROOT
HETATM    1  C   UNK N   1      22.017  17.352   4.255  0.00  0.00     0.031 C 
HETATM    2  C   UNK N   1      22.347  16.168   3.246  0.00  0.00     0.032 C 
HETATM    3  C   UNK N   1      21.097  15.343   2.759  0.00  0.00     0.159 C 
HETATM    4  N   UNK N   1      19.974  16.241   2.830  0.00  0.00    -0.217 NA
HETATM    5  C   UNK N   1      19.734  16.686   4.182  0.00  0.00     0.129 C 
HETATM    6  C   UNK N   1      20.564  17.964   4.174  0.00  0.00     0.134 C 
HETATM    7  N   UNK N   1      20.312  18.410   2.813  0.00  0.00    -0.187 N 
HETATM    8  C   UNK N   1      20.046  17.345   2.071  0.00  0.00     0.325 C 
HETATM    9  O   UNK N   1      20.008  17.352   0.850  0.00  0.00    -0.251 OA
ENDROOT
BRANCH   3  10
HETATM   10  C   UNK N   1      21.278  14.717   1.389  0.00  0.00     0.236 C 
HETATM   11  O   UNK N   1      22.307  14.919   0.764  0.00  0.00    -0.272 OA
HETATM   12  N   UNK N   1      20.309  13.945   0.829  0.00  0.00    -0.355 N 
HETATM   13  H   UNK N   1      20.472  13.571  -0.066  0.00  0.00     0.162 HD
BRANCH  12  14
HETATM   14  C   UNK N   1      19.052  13.643   1.482  0.00  0.00     0.087 C 
HETATM   15  C   UNK N   1      17.972  13.369   0.432  0.00  0.00     0.044 C 
HETATM   16  C   UNK N   1      18.012  11.933  -0.110  0.00  0.00     0.115 C 
HETATM   17  N   UNK N   1      19.284  11.282   0.196  0.00  0.00    -0.421 N 
HETATM   18  C   UNK N   1      19.402  11.118   1.648  0.00  0.00     0.115 C 
HETATM   19  H   UNK N   1      19.978  10.987  -0.492  0.00  0.00     0.153 HD
HETATM   20  C   UNK N   1      19.202  12.438   2.415  0.00  0.00     0.044 C 
ENDBRANCH  12  14
ENDBRANCH   3  10
BRANCH   7  21
HETATM   21  O   UNK N   1      20.218  19.682   2.361  0.00  0.00    -0.132 OA
BRANCH  21  22
HETATM   22  S   UNK N   1      21.770  20.223   1.819  0.00  0.00     0.263 S 
HETATM   23  O   UNK N   1      21.701  20.790   0.393  0.00  0.00    -0.578 OA
HETATM   24  O   UNK N   1      22.421  21.313   2.685  0.00  0.00    -0.578 OA
BRANCH  22  25
HETATM   25  O   UNK N   1      20.641  21.516   1.918  0.00  0.00    -0.272 OA
HETATM   26  H   UNK N   1      19.715  21.760   1.763  0.00  0.00     0.234 HD
ENDBRANCH  22  25
ENDBRANCH  21  22
ENDBRANCH   7  21
TORSDOF 5
ENDMDL
MODEL 8
REMARK VINA RESULT:      -6.1     15.919     17.859
REMARK  5 active torsions:
REMARK  status: ('A' for Active; 'I' for Inactive)
REMARK    1  A    between atoms: C_3  and  C_15 
REMARK    2  A    between atoms: N_7  and  O_10 
REMARK    3  A    between atoms: O_10  and  S_11 
REMARK    4  A    between atoms: S_11  and  O_14 
REMARK       I    between atoms: C_15  and  N_17 
REMARK    5  A    between atoms: N_17  and  C_18 
ROOT
HETATM    1  C   UNK N   1      34.562  17.679   7.786  0.00  0.00     0.031 C 
HETATM    2  C   UNK N   1      33.117  18.313   7.985  0.00  0.00     0.032 C 
HETATM    3  C   UNK N   1      31.939  17.492   7.337  0.00  0.00     0.159 C 
HETATM    4  N   UNK N   1      32.376  16.121   7.308  0.00  0.00    -0.217 NA
HETATM    5  C   UNK N   1      33.555  15.956   6.492  0.00  0.00     0.129 C 
HETATM    6  C   UNK N   1      34.625  16.118   7.565  0.00  0.00     0.134 C 
HETATM    7  N   UNK N   1      33.959  15.454   8.674  0.00  0.00    -0.187 N 
HETATM    8  C   UNK N   1      32.650  15.559   8.495  0.00  0.00     0.325 C 
HETATM    9  O   UNK N   1      31.819  15.302   9.351  0.00  0.00    -0.251 OA
ENDROOT
BRANCH   3  10
HETATM   10  C   UNK N   1      30.607  17.682   8.041  0.00  0.00     0.236 C 
HETATM   11  O   UNK N   1      30.587  18.034   9.209  0.00  0.00    -0.272 OA
HETATM   12  N   UNK N   1      29.430  17.452   7.402  0.00  0.00    -0.355 N 
HETATM   13  H   UNK N   1      28.595  17.579   7.906  0.00  0.00     0.162 HD
BRANCH  12  14
HETATM   14  C   UNK N   1      29.340  17.032   6.019  0.00  0.00     0.087 C 
HETATM   15  C   UNK N   1      28.453  15.788   5.908  0.00  0.00     0.044 C 
HETATM   16  C   UNK N   1      26.954  16.121   5.883  0.00  0.00     0.115 C 
HETATM   17  N   UNK N   1      26.700  17.479   6.356  0.00  0.00    -0.421 N 
HETATM   18  C   UNK N   1      27.292  18.434   5.414  0.00  0.00     0.115 C 
HETATM   19  H   UNK N   1      26.191  17.725   7.206  0.00  0.00     0.153 HD
HETATM   20  C   UNK N   1      28.784  18.159   5.145  0.00  0.00     0.044 C 
ENDBRANCH  12  14
ENDBRANCH   3  10
BRANCH   7  21
HETATM   21  O   UNK N   1      34.524  14.726   9.665  0.00  0.00    -0.132 OA
BRANCH  21  22
HETATM   22  S   UNK N   1      35.591  15.729  10.588  0.00  0.00     0.263 S 
HETATM   23  O   UNK N   1      34.937  17.075  10.935  0.00  0.00    -0.578 OA
HETATM   24  O   UNK N   1      36.068  15.125  11.919  0.00  0.00    -0.578 OA
BRANCH  22  25
HETATM   25  O   UNK N   1      34.178  15.312  11.475  0.00  0.00    -0.272 OA
HETATM   26  H   UNK N   1      33.504  15.657  12.081  0.00  0.00     0.234 HD
ENDBRANCH  22  25
ENDBRANCH  21  22
ENDBRANCH   7  21
TORSDOF 5
ENDMDL
MODEL 9
REMARK VINA RESULT:      -6.1     14.312     16.445
REMARK  5 active torsions:
REMARK  status: ('A' for Active; 'I' for Inactive)
REMARK    1  A    between atoms: C_3  and  C_15 
REMARK    2  A    between atoms: N_7  and  O_10 
REMARK    3  A    between atoms: O_10  and  S_11 
REMARK    4  A    between atoms: S_11  and  O_14 
REMARK       I    between atoms: C_15  and  N_17 
REMARK    5  A    between atoms: N_17  and  C_18 
ROOT
HETATM    1  C   UNK N   1      31.669  17.375   4.969  0.00  0.00     0.031 C 
HETATM    2  C   UNK N   1      30.144  17.812   4.846  0.00  0.00     0.032 C 
HETATM    3  C   UNK N   1      29.127  16.891   5.620  0.00  0.00     0.159 C 
HETATM    4  N   UNK N   1      29.862  16.316   6.716  0.00  0.00    -0.217 NA
HETATM    5  C   UNK N   1      30.959  15.501   6.251  0.00  0.00     0.129 C 
HETATM    6  C   UNK N   1      32.066  16.549   6.253  0.00  0.00     0.134 C 
HETATM    7  N   UNK N   1      31.686  17.301   7.438  0.00  0.00    -0.187 N 
HETATM    8  C   UNK N   1      30.378  17.180   7.605  0.00  0.00     0.325 C 
HETATM    9  O   UNK N   1      29.718  17.863   8.372  0.00  0.00    -0.251 OA
ENDROOT
BRANCH   3  10
HETATM   10  C   UNK N   1      27.866  17.613   6.058  0.00  0.00     0.236 C 
HETATM   11  O   UNK N   1      27.903  18.813   6.281  0.00  0.00    -0.272 OA
HETATM   12  N   UNK N   1      26.692  16.949   6.226  0.00  0.00    -0.355 N 
HETATM   13  H   UNK N   1      25.906  17.461   6.521  0.00  0.00     0.162 HD
BRANCH  12  14
HETATM   14  C   UNK N   1      26.537  15.529   5.990  0.00  0.00     0.087 C 
HETATM   15  C   UNK N   1      25.703  14.902   7.111  0.00  0.00     0.044 C 
HETATM   16  C   UNK N   1      24.191  15.080   6.905  0.00  0.00     0.115 C 
HETATM   17  N   UNK N   1      23.905  16.121   5.921  0.00  0.00    -0.421 N 
HETATM   18  C   UNK N   1      24.394  15.688   4.609  0.00  0.00     0.115 C 
HETATM   19  H   UNK N   1      23.438  17.007   6.116  0.00  0.00     0.153 HD
HETATM   20  C   UNK N   1      25.877  15.273   4.632  0.00  0.00     0.044 C 
ENDBRANCH  12  14
ENDBRANCH   3  10
BRANCH   7  21
HETATM   21  O   UNK N   1      32.501  17.919   8.325  0.00  0.00    -0.132 OA
BRANCH  21  22
HETATM   22  S   UNK N   1      34.137  17.841   7.764  0.00  0.00     0.263 S 
HETATM   23  O   UNK N   1      34.985  18.985   8.341  0.00  0.00    -0.578 OA
HETATM   24  O   UNK N   1      34.882  16.540   8.099  0.00  0.00    -0.578 OA
BRANCH  22  25
HETATM   25  O   UNK N   1      34.036  17.640   9.468  0.00  0.00    -0.272 OA
HETATM   26  H   UNK N   1      33.432  17.427  10.196  0.00  0.00     0.234 HD
ENDBRANCH  22  25
ENDBRANCH  21  22
ENDBRANCH   7  21
TORSDOF 5
ENDMDL
