MODEL 1
REMARK VINA RESULT:      -7.6      0.000      0.000
REMARK  3 active torsions:
REMARK  status: ('A' for Active; 'I' for Inactive)
REMARK    1  A    between atoms: C_4  and  S_7 
REMARK    2  A    between atoms: S_7  and  C_10 
REMARK    3  A    between atoms: C_16  and  N_21 
ROOT
HETATM    1  C   UNK N   1      36.187  13.379  12.672  0.00  0.00     0.080 A 
HETATM    2  C   UNK N   1      37.162  13.046  11.721  0.00  0.00     0.039 A 
HETATM    3  C   UNK N   1      36.973  13.413  10.375  0.00  0.00    -0.006 A 
HETATM    4  C   UNK N   1      37.919  13.080   9.406  0.00  0.00     0.014 A 
HETATM    5  C   UNK N   1      37.704  13.432   8.070  0.00  0.00     0.003 A 
HETATM    6  C   UNK N   1      36.547  14.128   7.699  0.00  0.00     0.032 A 
HETATM    7  C   UNK N   1      35.588  14.500   8.657  0.00  0.00     0.058 A 
HETATM    8  C   UNK N   1      35.804  14.125  10.007  0.00  0.00     0.069 A 
HETATM    9  N   UNK N   1      34.886  14.420  10.954  0.00  0.00    -0.362 N 
ATOM     10  HN  UNK N   1      34.041  14.922  10.680  1.00  0.00     0.165 HD
HETATM   11  C   UNK N   1      35.045  14.074  12.247  0.00  0.00     0.112 A 
ENDROOT
BRANCH   1  12
HETATM   12  S   UNK N   1      36.377  12.955  14.433  0.00  0.00     0.208 S 
HETATM   13  O   UNK N   1      36.731  14.417  14.764  0.00  0.00    -0.217 OA
HETATM   14  O   UNK N   1      34.859  13.195  14.328  0.00  0.00    -0.217 OA
BRANCH  12  15
HETATM   15  C   UNK N   1      35.880  12.711  16.166  0.00  0.00     0.064 A 
HETATM   16  C   UNK N   1      35.883  11.423  16.711  0.00  0.00     0.024 A 
HETATM   17  C   UNK N   1      35.547  11.229  18.057  0.00  0.00     0.002 A 
HETATM   18  C   UNK N   1      35.208  12.319  18.865  0.00  0.00     0.000 A 
HETATM   19  C   UNK N   1      35.209  13.609  18.336  0.00  0.00     0.002 A 
HETATM   20  C   UNK N   1      35.550  13.806  16.999  0.00  0.00     0.024 A 
ENDBRANCH  12  15
ENDBRANCH   1  12
BRANCH   7  21
HETATM   21  N   UNK N   1      34.421  15.245   8.253  0.00  0.00    -0.376 N 
HETATM   22  C   UNK N   1      33.130  14.588   8.155  0.00  0.00     0.142 C 
HETATM   23  C   UNK N   1      32.011  15.630   8.036  0.00  0.00     0.133 C 
HETATM   24  N   UNK N   1      32.254  16.718   8.987  0.00  0.00    -0.418 N 
HETATM   25  C   UNK N   1      33.467  17.475   8.642  0.00  0.00     0.133 C 
HETATM   26  H   UNK N   1      31.657  16.923   9.788  0.00  0.00     0.153 HD
HETATM   27  C   UNK N   1      34.503  16.646   7.879  0.00  0.00     0.142 C 
ENDBRANCH   7  21
TORSDOF 3
ENDMDL
MODEL 2
REMARK VINA RESULT:      -7.6      0.267      1.005
REMARK  3 active torsions:
REMARK  status: ('A' for Active; 'I' for Inactive)
REMARK    1  A    between atoms: C_4  and  S_7 
REMARK    2  A    between atoms: S_7  and  C_10 
REMARK    3  A    between atoms: C_16  and  N_21 
ROOT
HETATM    1  C   UNK N   1      36.164  13.458  12.457  0.00  0.00     0.080 A 
HETATM    2  C   UNK N   1      37.065  13.061  11.458  0.00  0.00     0.039 A 
HETATM    3  C   UNK N   1      36.826  13.433  10.122  0.00  0.00    -0.006 A 
HETATM    4  C   UNK N   1      37.696  13.038   9.106  0.00  0.00     0.014 A 
HETATM    5  C   UNK N   1      37.431  13.396   7.781  0.00  0.00     0.003 A 
HETATM    6  C   UNK N   1      36.301  14.159   7.466  0.00  0.00     0.032 A 
HETATM    7  C   UNK N   1      35.419  14.594   8.470  0.00  0.00     0.058 A 
HETATM    8  C   UNK N   1      35.684  14.212   9.811  0.00  0.00     0.069 A 
HETATM    9  N   UNK N   1      34.838  14.567  10.803  0.00  0.00    -0.362 N 
ATOM     10  HN  UNK N   1      34.012  15.119  10.570  1.00  0.00     0.165 HD
HETATM   11  C   UNK N   1      35.046  14.219  12.089  0.00  0.00     0.112 A 
ENDROOT
BRANCH   1  12
HETATM   12  S   UNK N   1      36.423  13.032  14.209  0.00  0.00     0.208 S 
HETATM   13  O   UNK N   1      36.673  14.513  14.550  0.00  0.00    -0.217 OA
HETATM   14  O   UNK N   1      34.889  13.157  14.138  0.00  0.00    -0.217 OA
BRANCH  12  15
HETATM   15  C   UNK N   1      35.982  12.733  15.948  0.00  0.00     0.064 A 
HETATM   16  C   UNK N   1      35.584  13.804  16.755  0.00  0.00     0.024 A 
HETATM   17  C   UNK N   1      35.198  13.578  18.082  0.00  0.00     0.002 A 
HETATM   18  C   UNK N   1      35.206  12.283  18.611  0.00  0.00     0.000 A 
HETATM   19  C   UNK N   1      35.594  11.206  17.815  0.00  0.00     0.002 A 
HETATM   20  C   UNK N   1      35.971  11.426  16.492  0.00  0.00     0.024 A 
ENDBRANCH  12  15
ENDBRANCH   1  12
BRANCH   7  21
HETATM   21  N   UNK N   1      34.280  15.406   8.124  0.00  0.00    -0.376 N 
HETATM   22  C   UNK N   1      32.956  14.815   8.039  0.00  0.00     0.142 C 
HETATM   23  C   UNK N   1      31.886  15.912   7.986  0.00  0.00     0.133 C 
HETATM   24  N   UNK N   1      32.205  16.953   8.965  0.00  0.00    -0.418 N 
HETATM   25  C   UNK N   1      33.444  17.664   8.613  0.00  0.00     0.133 C 
HETATM   26  H   UNK N   1      31.639  17.160   9.788  0.00  0.00     0.153 HD
HETATM   27  C   UNK N   1      34.419  16.814   7.794  0.00  0.00     0.142 C 
ENDBRANCH   7  21
TORSDOF 3
ENDMDL
MODEL 3
REMARK VINA RESULT:      -7.4      7.161     11.894
REMARK  3 active torsions:
REMARK  status: ('A' for Active; 'I' for Inactive)
REMARK    1  A    between atoms: C_4  and  S_7 
REMARK    2  A    between atoms: S_7  and  C_10 
REMARK    3  A    between atoms: C_16  and  N_21 
ROOT
HETATM    1  C   UNK N   1      28.578  17.861   5.600  0.00  0.00     0.080 A 
HETATM    2  C   UNK N   1      29.536  17.824   4.576  0.00  0.00     0.039 A 
HETATM    3  C   UNK N   1      30.860  17.458   4.878  0.00  0.00    -0.006 A 
HETATM    4  C   UNK N   1      31.836  17.429   3.883  0.00  0.00     0.014 A 
HETATM    5  C   UNK N   1      33.153  17.085   4.205  0.00  0.00     0.003 A 
HETATM    6  C   UNK N   1      33.497  16.758   5.522  0.00  0.00     0.032 A 
HETATM    7  C   UNK N   1      32.530  16.754   6.542  0.00  0.00     0.058 A 
HETATM    8  C   UNK N   1      31.201  17.120   6.212  0.00  0.00     0.069 A 
HETATM    9  N   UNK N   1      30.249  17.175   7.170  0.00  0.00    -0.362 N 
ATOM     10  HN  UNK N   1      30.504  16.942   8.130  1.00  0.00     0.165 HD
HETATM   11  C   UNK N   1      28.975  17.527   6.903  0.00  0.00     0.112 A 
ENDROOT
BRANCH   1  12
HETATM   12  S   UNK N   1      26.841  18.305   5.276  0.00  0.00     0.208 S 
HETATM   13  O   UNK N   1      27.007  19.609   6.079  0.00  0.00    -0.217 OA
HETATM   14  O   UNK N   1      27.542  18.827   4.007  0.00  0.00    -0.217 OA
BRANCH  12  15
HETATM   15  C   UNK N   1      25.434  19.054   4.400  0.00  0.00     0.064 A 
HETATM   16  C   UNK N   1      25.657  20.101   3.499  0.00  0.00     0.024 A 
HETATM   17  C   UNK N   1      24.587  20.654   2.786  0.00  0.00     0.002 A 
HETATM   18  C   UNK N   1      23.288  20.165   2.966  0.00  0.00     0.000 A 
HETATM   19  C   UNK N   1      23.054  19.116   3.854  0.00  0.00     0.002 A 
HETATM   20  C   UNK N   1      24.117  18.559   4.561  0.00  0.00     0.024 A 
ENDBRANCH  12  15
ENDBRANCH   1  12
BRANCH   7  21
HETATM   21  N   UNK N   1      32.904  16.382   7.884  0.00  0.00    -0.376 N 
HETATM   22  C   UNK N   1      32.698  15.024   8.354  0.00  0.00     0.142 C 
HETATM   23  C   UNK N   1      33.461  14.793   9.663  0.00  0.00     0.133 C 
HETATM   24  N   UNK N   1      34.800  15.379   9.559  0.00  0.00    -0.418 N 
HETATM   25  C   UNK N   1      34.740  16.845   9.451  0.00  0.00     0.133 C 
HETATM   26  H   UNK N   1      35.664  14.838   9.561  0.00  0.00     0.153 HD
HETATM   27  C   UNK N   1      33.440  17.354   8.822  0.00  0.00     0.142 C 
ENDBRANCH   7  21
TORSDOF 3
ENDMDL
MODEL 4
REMARK VINA RESULT:      -7.3      9.116     13.348
REMARK  3 active torsions:
REMARK  status: ('A' for Active; 'I' for Inactive)
REMARK    1  A    between atoms: C_4  and  S_7 
REMARK    2  A    between atoms: S_7  and  C_10 
REMARK    3  A    between atoms: C_16  and  N_21 
ROOT
HETATM    1  C   UNK N   1      27.205  17.597   4.951  0.00  0.00     0.080 A 
HETATM    2  C   UNK N   1      26.949  18.747   4.189  0.00  0.00     0.039 A 
HETATM    3  C   UNK N   1      25.619  19.111   3.908  0.00  0.00    -0.006 A 
HETATM    4  C   UNK N   1      25.337  20.240   3.139  0.00  0.00     0.014 A 
HETATM    5  C   UNK N   1      24.010  20.574   2.849  0.00  0.00     0.003 A 
HETATM    6  C   UNK N   1      22.960  19.787   3.336  0.00  0.00     0.032 A 
HETATM    7  C   UNK N   1      23.212  18.658   4.134  0.00  0.00     0.058 A 
HETATM    8  C   UNK N   1      24.560  18.315   4.410  0.00  0.00     0.069 A 
HETATM    9  N   UNK N   1      24.850  17.211   5.134  0.00  0.00    -0.362 N 
ATOM     10  HN  UNK N   1      24.083  16.636   5.482  1.00  0.00     0.165 HD
HETATM   11  C   UNK N   1      26.117  16.842   5.412  0.00  0.00     0.112 A 
ENDROOT
BRANCH   1  12
HETATM   12  S   UNK N   1      28.900  17.081   5.371  0.00  0.00     0.208 S 
HETATM   13  O   UNK N   1      29.042  16.378   4.008  0.00  0.00    -0.217 OA
HETATM   14  O   UNK N   1      29.130  18.503   4.826  0.00  0.00    -0.217 OA
BRANCH  12  15
HETATM   15  C   UNK N   1      30.713  17.189   5.474  0.00  0.00     0.064 A 
HETATM   16  C   UNK N   1      31.460  17.410   4.313  0.00  0.00     0.024 A 
HETATM   17  C   UNK N   1      32.852  17.542   4.387  0.00  0.00     0.002 A 
HETATM   18  C   UNK N   1      33.506  17.455   5.621  0.00  0.00     0.000 A 
HETATM   19  C   UNK N   1      32.772  17.243   6.787  0.00  0.00     0.002 A 
HETATM   20  C   UNK N   1      31.386  17.118   6.718  0.00  0.00     0.024 A 
ENDBRANCH  12  15
ENDBRANCH   1  12
BRANCH   7  21
HETATM   21  N   UNK N   1      22.111  17.883   4.649  0.00  0.00    -0.376 N 
HETATM   22  C   UNK N   1      21.467  16.880   3.819  0.00  0.00     0.142 C 
HETATM   23  C   UNK N   1      20.569  15.979   4.674  0.00  0.00     0.133 C 
HETATM   24  N   UNK N   1      21.268  15.623   5.911  0.00  0.00    -0.418 N 
HETATM   25  C   UNK N   1      21.485  16.801   6.765  0.00  0.00     0.133 C 
HETATM   26  H   UNK N   1      21.567  14.678   6.149  0.00  0.00     0.153 HD
HETATM   27  C   UNK N   1      21.574  18.112   5.979  0.00  0.00     0.142 C 
ENDBRANCH   7  21
TORSDOF 3
ENDMDL
MODEL 5
REMARK VINA RESULT:      -7.2      2.462      4.326
REMARK  3 active torsions:
REMARK  status: ('A' for Active; 'I' for Inactive)
REMARK    1  A    between atoms: C_4  and  S_7 
REMARK    2  A    between atoms: S_7  and  C_10 
REMARK    3  A    between atoms: C_16  and  N_21 
ROOT
HETATM    1  C   UNK N   1      34.356  14.616   9.797  0.00  0.00     0.080 A 
HETATM    2  C   UNK N   1      34.824  14.983   8.526  0.00  0.00     0.039 A 
HETATM    3  C   UNK N   1      34.023  15.793   7.700  0.00  0.00    -0.006 A 
HETATM    4  C   UNK N   1      34.456  16.160   6.426  0.00  0.00     0.014 A 
HETATM    5  C   UNK N   1      33.638  16.946   5.609  0.00  0.00     0.003 A 
HETATM    6  C   UNK N   1      32.387  17.378   6.067  0.00  0.00     0.032 A 
HETATM    7  C   UNK N   1      31.934  17.046   7.354  0.00  0.00     0.058 A 
HETATM    8  C   UNK N   1      32.761  16.234   8.171  0.00  0.00     0.069 A 
HETATM    9  N   UNK N   1      32.346  15.851   9.399  0.00  0.00    -0.362 N 
ATOM     10  HN  UNK N   1      31.431  16.163   9.727  1.00  0.00     0.165 HD
HETATM   11  C   UNK N   1      33.095  15.073  10.205  0.00  0.00     0.112 A 
ENDROOT
BRANCH   1  12
HETATM   12  S   UNK N   1      35.349  13.589  10.926  0.00  0.00     0.208 S 
HETATM   13  O   UNK N   1      36.536  14.561  10.794  0.00  0.00    -0.217 OA
HETATM   14  O   UNK N   1      34.554  14.464  11.913  0.00  0.00    -0.217 OA
BRANCH  12  15
HETATM   15  C   UNK N   1      36.032  13.012  12.511  0.00  0.00     0.064 A 
HETATM   16  C   UNK N   1      35.502  13.498  13.711  0.00  0.00     0.024 A 
HETATM   17  C   UNK N   1      35.989  13.026  14.935  0.00  0.00     0.002 A 
HETATM   18  C   UNK N   1      37.006  12.065  14.970  0.00  0.00     0.000 A 
HETATM   19  C   UNK N   1      37.537  11.566  13.781  0.00  0.00     0.002 A 
HETATM   20  C   UNK N   1      37.050  12.029  12.560  0.00  0.00     0.024 A 
ENDBRANCH  12  15
ENDBRANCH   1  12
BRANCH   7  21
HETATM   21  N   UNK N   1      30.656  17.530   7.813  0.00  0.00    -0.376 N 
HETATM   22  C   UNK N   1      29.426  16.952   7.303  0.00  0.00     0.142 C 
HETATM   23  C   UNK N   1      28.235  17.388   8.164  0.00  0.00     0.133 C 
HETATM   24  N   UNK N   1      28.599  17.303   9.580  0.00  0.00    -0.418 N 
HETATM   25  C   UNK N   1      29.648  18.273   9.928  0.00  0.00     0.133 C 
HETATM   26  H   UNK N   1      28.177  16.651  10.242  0.00  0.00     0.153 HD
HETATM   27  C   UNK N   1      30.551  18.639   8.746  0.00  0.00     0.142 C 
ENDBRANCH   7  21
TORSDOF 3
ENDMDL
MODEL 6
REMARK VINA RESULT:      -7.2      3.544      8.368
REMARK  3 active torsions:
REMARK  status: ('A' for Active; 'I' for Inactive)
REMARK    1  A    between atoms: C_4  and  S_7 
REMARK    2  A    between atoms: S_7  and  C_10 
REMARK    3  A    between atoms: C_16  and  N_21 
ROOT
HETATM    1  C   UNK N   1      34.549  15.330   9.284  0.00  0.00     0.080 A 
HETATM    2  C   UNK N   1      35.854  14.830   9.169  0.00  0.00     0.039 A 
HETATM    3  C   UNK N   1      36.353  13.960  10.155  0.00  0.00    -0.006 A 
HETATM    4  C   UNK N   1      37.653  13.461  10.074  0.00  0.00     0.014 A 
HETATM    5  C   UNK N   1      38.141  12.616  11.075  0.00  0.00     0.003 A 
HETATM    6  C   UNK N   1      37.328  12.257  12.156  0.00  0.00     0.032 A 
HETATM    7  C   UNK N   1      36.006  12.722  12.253  0.00  0.00     0.058 A 
HETATM    8  C   UNK N   1      35.522  13.593  11.244  0.00  0.00     0.069 A 
HETATM    9  N   UNK N   1      34.273  14.103  11.320  0.00  0.00    -0.362 N 
ATOM     10  HN  UNK N   1      33.685  13.844  12.112  1.00  0.00     0.165 HD
HETATM   11  C   UNK N   1      33.776  14.941  10.388  0.00  0.00     0.112 A 
ENDROOT
BRANCH   1  12
HETATM   12  S   UNK N   1      33.831  16.442   8.033  0.00  0.00     0.208 S 
HETATM   13  O   UNK N   1      35.033  16.198   7.102  0.00  0.00    -0.217 OA
HETATM   14  O   UNK N   1      33.127  15.111   7.712  0.00  0.00    -0.217 OA
BRANCH  12  15
HETATM   15  C   UNK N   1      32.842  16.928   6.585  0.00  0.00     0.064 A 
HETATM   16  C   UNK N   1      33.486  17.297   5.400  0.00  0.00     0.024 A 
HETATM   17  C   UNK N   1      32.735  17.628   4.266  0.00  0.00     0.002 A 
HETATM   18  C   UNK N   1      31.337  17.590   4.308  0.00  0.00     0.000 A 
HETATM   19  C   UNK N   1      30.683  17.215   5.481  0.00  0.00     0.002 A 
HETATM   20  C   UNK N   1      31.428  16.879   6.609  0.00  0.00     0.024 A 
ENDBRANCH  12  15
ENDBRANCH   1  12
BRANCH   7  21
HETATM   21  N   UNK N   1      35.179  12.312  13.360  0.00  0.00    -0.376 N 
HETATM   22  C   UNK N   1      34.300  11.163  13.234  0.00  0.00     0.142 C 
HETATM   23  C   UNK N   1      33.785  10.732  14.612  0.00  0.00     0.133 C 
HETATM   24  N   UNK N   1      34.890  10.756  15.575  0.00  0.00    -0.418 N 
HETATM   25  C   UNK N   1      35.376  12.126  15.803  0.00  0.00     0.133 C 
HETATM   26  H   UNK N   1      35.272   9.928  16.030  0.00  0.00     0.153 HD
HETATM   27  C   UNK N   1      35.151  13.056  14.608  0.00  0.00     0.142 C 
ENDBRANCH   7  21
TORSDOF 3
ENDMDL
MODEL 7
REMARK VINA RESULT:      -7.2      1.703      2.915
REMARK  3 active torsions:
REMARK  status: ('A' for Active; 'I' for Inactive)
REMARK    1  A    between atoms: C_4  and  S_7 
REMARK    2  A    between atoms: S_7  and  C_10 
REMARK    3  A    between atoms: C_16  and  N_21 
ROOT
HETATM    1  C   UNK N   1      35.733  13.319  13.087  0.00  0.00     0.080 A 
HETATM    2  C   UNK N   1      35.644  14.681  12.765  0.00  0.00     0.039 A 
HETATM    3  C   UNK N   1      35.375  15.063  11.437  0.00  0.00    -0.006 A 
HETATM    4  C   UNK N   1      35.298  16.410  11.086  0.00  0.00     0.014 A 
HETATM    5  C   UNK N   1      35.053  16.773   9.758  0.00  0.00     0.003 A 
HETATM    6  C   UNK N   1      34.874  15.789   8.777  0.00  0.00     0.032 A 
HETATM    7  C   UNK N   1      34.922  14.424   9.105  0.00  0.00     0.058 A 
HETATM    8  C   UNK N   1      35.187  14.063  10.451  0.00  0.00     0.069 A 
HETATM    9  N   UNK N   1      35.289  12.762  10.803  0.00  0.00    -0.362 N 
ATOM     10  HN  UNK N   1      35.164  12.048  10.085  1.00  0.00     0.165 HD
HETATM   11  C   UNK N   1      35.549  12.374  12.067  0.00  0.00     0.112 A 
ENDROOT
BRANCH   1  12
HETATM   12  S   UNK N   1      36.057  12.753  14.788  0.00  0.00     0.208 S 
HETATM   13  O   UNK N   1      36.593  14.146  15.168  0.00  0.00    -0.217 OA
HETATM   14  O   UNK N   1      34.569  13.146  14.864  0.00  0.00    -0.217 OA
BRANCH  12  15
HETATM   15  C   UNK N   1      35.715  12.435  16.547  0.00  0.00     0.064 A 
HETATM   16  C   UNK N   1      35.846  11.138  17.053  0.00  0.00     0.024 A 
HETATM   17  C   UNK N   1      35.631  10.890  18.414  0.00  0.00     0.002 A 
HETATM   18  C   UNK N   1      35.286  11.936  19.278  0.00  0.00     0.000 A 
HETATM   19  C   UNK N   1      35.161  13.235  18.787  0.00  0.00     0.002 A 
HETATM   20  C   UNK N   1      35.381  13.486  17.434  0.00  0.00     0.024 A 
ENDBRANCH  12  15
ENDBRANCH   1  12
BRANCH   7  21
HETATM   21  N   UNK N   1      34.703  13.432   8.083  0.00  0.00    -0.376 N 
HETATM   22  C   UNK N   1      35.785  13.038   7.198  0.00  0.00     0.142 C 
HETATM   23  C   UNK N   1      35.411  11.762   6.435  0.00  0.00     0.133 C 
HETATM   24  N   UNK N   1      34.780  10.811   7.354  0.00  0.00    -0.418 N 
HETATM   25  C   UNK N   1      33.485  11.310   7.843  0.00  0.00     0.133 C 
HETATM   26  H   UNK N   1      35.187   9.915   7.621  0.00  0.00     0.153 HD
HETATM   27  C   UNK N   1      33.394  12.839   7.864  0.00  0.00     0.142 C 
ENDBRANCH   7  21
TORSDOF 3
ENDMDL
MODEL 8
REMARK VINA RESULT:      -7.1      3.353      5.704
REMARK  3 active torsions:
REMARK  status: ('A' for Active; 'I' for Inactive)
REMARK    1  A    between atoms: C_4  and  S_7 
REMARK    2  A    between atoms: S_7  and  C_10 
REMARK    3  A    between atoms: C_16  and  N_21 
ROOT
HETATM    1  C   UNK N   1      33.570  15.756   8.558  0.00  0.00     0.080 A 
HETATM    2  C   UNK N   1      34.023  16.198   7.307  0.00  0.00     0.039 A 
HETATM    3  C   UNK N   1      33.097  16.681   6.364  0.00  0.00    -0.006 A 
HETATM    4  C   UNK N   1      33.519  17.111   5.107  0.00  0.00     0.014 A 
HETATM    5  C   UNK N   1      32.582  17.566   4.173  0.00  0.00     0.003 A 
HETATM    6  C   UNK N   1      31.221  17.602   4.497  0.00  0.00     0.032 A 
HETATM    7  C   UNK N   1      30.768  17.199   5.765  0.00  0.00     0.058 A 
HETATM    8  C   UNK N   1      31.721  16.722   6.701  0.00  0.00     0.069 A 
HETATM    9  N   UNK N   1      31.325  16.280   7.914  0.00  0.00    -0.362 N 
ATOM     10  HN  UNK N   1      30.332  16.302   8.146  1.00  0.00     0.165 HD
HETATM   11  C   UNK N   1      32.195  15.810   8.831  0.00  0.00     0.112 A 
ENDROOT
BRANCH   1  12
HETATM   12  S   UNK N   1      34.715  15.140   9.833  0.00  0.00     0.208 S 
HETATM   13  O   UNK N   1      34.822  16.551  10.442  0.00  0.00    -0.217 OA
HETATM   14  O   UNK N   1      33.345  14.817  10.458  0.00  0.00    -0.217 OA
BRANCH  12  15
HETATM   15  C   UNK N   1      35.232  14.440  11.431  0.00  0.00     0.064 A 
HETATM   16  C   UNK N   1      34.965  13.097  11.717  0.00  0.00     0.024 A 
HETATM   17  C   UNK N   1      35.399  12.536  12.924  0.00  0.00     0.002 A 
HETATM   18  C   UNK N   1      36.104  13.311  13.851  0.00  0.00     0.000 A 
HETATM   19  C   UNK N   1      36.385  14.649  13.574  0.00  0.00     0.002 A 
HETATM   20  C   UNK N   1      35.960  15.208  12.371  0.00  0.00     0.024 A 
ENDBRANCH  12  15
ENDBRANCH   1  12
BRANCH   7  21
HETATM   21  N   UNK N   1      29.364  17.276   6.084  0.00  0.00    -0.376 N 
HETATM   22  C   UNK N   1      28.481  16.164   5.783  0.00  0.00     0.142 C 
HETATM   23  C   UNK N   1      27.137  16.342   6.500  0.00  0.00     0.133 C 
HETATM   24  N   UNK N   1      27.373  16.791   7.874  0.00  0.00    -0.418 N 
HETATM   25  C   UNK N   1      27.962  18.138   7.909  0.00  0.00     0.133 C 
HETATM   26  H   UNK N   1      27.155  16.238   8.703  0.00  0.00     0.153 HD
HETATM   27  C   UNK N   1      28.778  18.475   6.657  0.00  0.00     0.142 C 
ENDBRANCH   7  21
TORSDOF 3
ENDMDL
MODEL 9
REMARK VINA RESULT:      -6.9     18.023     21.503
REMARK  3 active torsions:
REMARK  status: ('A' for Active; 'I' for Inactive)
REMARK    1  A    between atoms: C_4  and  S_7 
REMARK    2  A    between atoms: S_7  and  C_10 
REMARK    3  A    between atoms: C_16  and  N_21 
ROOT
HETATM    1  C   UNK N   1      28.816  24.112  -4.174  0.00  0.00     0.080 A 
HETATM    2  C   UNK N   1      27.528  24.080  -4.729  0.00  0.00     0.039 A 
HETATM    3  C   UNK N   1      26.814  25.281  -4.894  0.00  0.00    -0.006 A 
HETATM    4  C   UNK N   1      25.525  25.276  -5.427  0.00  0.00     0.014 A 
HETATM    5  C   UNK N   1      24.821  26.476  -5.562  0.00  0.00     0.003 A 
HETATM    6  C   UNK N   1      25.406  27.688  -5.175  0.00  0.00     0.032 A 
HETATM    7  C   UNK N   1      26.712  27.728  -4.659  0.00  0.00     0.058 A 
HETATM    8  C   UNK N   1      27.414  26.505  -4.507  0.00  0.00     0.069 A 
HETATM    9  N   UNK N   1      28.654  26.491  -3.971  0.00  0.00    -0.362 N 
ATOM     10  HN  UNK N   1      29.076  27.375  -3.684  1.00  0.00     0.165 HD
HETATM   11  C   UNK N   1      29.355  25.352  -3.800  0.00  0.00     0.112 A 
ENDROOT
BRANCH   1  12
HETATM   12  S   UNK N   1      29.805  22.599  -3.952  0.00  0.00     0.208 S 
HETATM   13  O   UNK N   1      29.588  22.220  -5.429  0.00  0.00    -0.217 OA
HETATM   14  O   UNK N   1      30.896  23.651  -4.232  0.00  0.00    -0.217 OA
BRANCH  12  15
HETATM   15  C   UNK N   1      31.293  21.552  -3.930  0.00  0.00     0.064 A 
HETATM   16  C   UNK N   1      31.495  20.615  -4.949  0.00  0.00     0.024 A 
HETATM   17  C   UNK N   1      32.658  19.837  -4.967  0.00  0.00     0.002 A 
HETATM   18  C   UNK N   1      33.628  19.990  -3.971  0.00  0.00     0.000 A 
HETATM   19  C   UNK N   1      33.443  20.927  -2.954  0.00  0.00     0.002 A 
HETATM   20  C   UNK N   1      32.289  21.708  -2.937  0.00  0.00     0.024 A 
ENDBRANCH  12  15
ENDBRANCH   1  12
BRANCH   7  21
HETATM   21  N   UNK N   1      27.303  28.992  -4.297  0.00  0.00    -0.376 N 
HETATM   22  C   UNK N   1      27.064  29.566  -2.985  0.00  0.00     0.142 C 
HETATM   23  C   UNK N   1      28.042  30.717  -2.721  0.00  0.00     0.133 C 
HETATM   24  N   UNK N   1      29.384  30.328  -3.161  0.00  0.00    -0.418 N 
HETATM   25  C   UNK N   1      29.444  30.154  -4.621  0.00  0.00     0.133 C 
HETATM   26  H   UNK N   1      30.177  30.195  -2.534  0.00  0.00     0.153 HD
HETATM   27  C   UNK N   1      28.101  29.757  -5.240  0.00  0.00     0.142 C 
ENDBRANCH   7  21
TORSDOF 3
ENDMDL
