MODEL 1
REMARK VINA RESULT:      -6.7      0.000      0.000
REMARK  14 active torsions:
REMARK  status: ('A' for Active; 'I' for Inactive)
REMARK    1  A    between atoms: S_2  and  N_5 
REMARK       I    between atoms: N_5  and  C_6 
REMARK    2  A    between atoms: C_6  and  C_8 
REMARK    3  A    between atoms: C_8  and  C_9 
REMARK    4  A    between atoms: C_9  and  C_10 
REMARK    5  A    between atoms: C_10  and  C_11 
REMARK    6  A    between atoms: C_12  and  C_13 
REMARK    7  A    between atoms: C_14  and  C_13 
REMARK    8  A    between atoms: C_15  and  C_21 
REMARK    9  A    between atoms: C_16  and  O_20 
REMARK   10  A    between atoms: C_22  and  C_23 
REMARK   11  A    between atoms: C_23  and  C_24 
REMARK   12  A    between atoms: C_23  and  O_32 
REMARK   13  A    between atoms: C_24  and  O_25 
REMARK   14  A    between atoms: O_25  and  C_26 
ROOT
HETATM    1  C   UNK N   1      29.658  16.768   7.071  0.00  0.00     0.069 C 
HETATM    2  C   UNK N   1      28.317  17.486   7.136  0.00  0.00     0.048 C 
HETATM    3  C   UNK N   1      28.544  18.631   8.131  0.00  0.00     0.133 C 
HETATM    4  C   UNK N   1      29.524  18.120   9.172  0.00  0.00     0.111 C 
HETATM    5  C   UNK N   1      30.287  17.132   8.372  0.00  0.00     0.134 C 
HETATM    6  O   UNK N   1      31.352  16.667   8.747  0.00  0.00    -0.297 OA
ENDROOT
BRANCH   1   7
HETATM    7  C   UNK N   1      30.486  17.305   5.912  0.00  0.00     0.040 C 
BRANCH   7   8
HETATM    8  C   UNK N   1      31.327  16.215   5.318  0.00  0.00    -0.030 C 
HETATM    9  C   UNK N   1      32.658  16.309   5.194  0.00  0.00    -0.031 C 
BRANCH   9  10
HETATM   10  C   UNK N   1      33.436  17.504   5.652  0.00  0.00     0.027 C 
BRANCH  10  11
HETATM   11  C   UNK N   1      34.275  17.103   6.853  0.00  0.00     0.013 C 
BRANCH  11  12
HETATM   12  C   UNK N   1      33.988  17.963   8.078  0.00  0.00     0.104 C 
BRANCH  12  13
HETATM   13  C   UNK N   1      34.769  17.507   9.270  0.00  0.00     0.230 C 
HETATM   14  N   UNK N   1      34.447  16.337   9.876  0.00  0.00    -0.255 N 
HETATM   15  H   UNK N   1      33.682  15.822   9.531  0.00  0.00     0.181 HD
HETATM   16  O   UNK N   1      35.679  18.199   9.703  0.00  0.00    -0.273 OA
BRANCH  14  17
HETATM   17  S   UNK N   1      35.342  15.699  11.256  0.00  0.00     0.229 S 
HETATM   18  C   UNK N   1      35.617  13.955  11.665  0.00  0.00     0.186 C 
HETATM   19  O   UNK N   1      34.009  14.961  11.464  0.00  0.00    -0.206 OA
HETATM   20  O   UNK N   1      35.943  14.908  10.085  0.00  0.00    -0.206 OA
ENDBRANCH  14  17
ENDBRANCH  12  13
ENDBRANCH  11  12
ENDBRANCH  10  11
ENDBRANCH   9  10
ENDBRANCH   7   8
ENDBRANCH   1   7
BRANCH   2  21
HETATM   21  C   UNK N   1      27.266  16.521   7.619  0.00  0.00    -0.020 C 
HETATM   22  C   UNK N   1      26.594  15.734   6.767  0.00  0.00     0.003 C 
BRANCH  22  23
HETATM   23  C   UNK N   1      26.871  15.749   5.292  0.00  0.00     0.165 C 
BRANCH  23  24
HETATM   24  C   UNK N   1      25.630  16.107   4.482  0.00  0.00     0.211 C 
BRANCH  24  25
HETATM   25  O   UNK N   1      25.845  17.248   3.739  0.00  0.00    -0.348 OA
BRANCH  25  26
HETATM   26  C   UNK N   1      26.330  18.405   4.246  0.00  0.00     0.068 A 
HETATM   27  C   UNK N   1      25.510  19.169   5.083  0.00  0.00     0.037 A 
HETATM   28  C   UNK N   1      25.976  20.369   5.624  0.00  0.00     0.003 A 
HETATM   29  C   UNK N   1      27.269  20.812   5.332  0.00  0.00     0.000 A 
HETATM   30  C   UNK N   1      28.096  20.056   4.497  0.00  0.00     0.003 A 
HETATM   31  C   UNK N   1      27.630  18.855   3.953  0.00  0.00     0.037 A 
ENDBRANCH  25  26
ENDBRANCH  24  25
ENDBRANCH  23  24
BRANCH  23  32
HETATM   32  O   UNK N   1      27.399  14.523   4.883  0.00  0.00    -0.390 OA
HETATM   33  H   UNK N   1      27.756  13.879   5.513  0.00  0.00     0.210 HD
ENDBRANCH  23  32
ENDBRANCH  22  23
ENDBRANCH   2  21
BRANCH   3  34
HETATM   34  O   UNK N   1      27.360  19.099   8.706  0.00  0.00    -0.394 OA
HETATM   35  H   UNK N   1      26.795  19.741   8.248  0.00  0.00     0.210 HD
ENDBRANCH   3  34
TORSDOF 14
ENDMDL
MODEL 2
REMARK VINA RESULT:      -6.5      4.608      9.114
REMARK  14 active torsions:
REMARK  status: ('A' for Active; 'I' for Inactive)
REMARK    1  A    between atoms: S_2  and  N_5 
REMARK       I    between atoms: N_5  and  C_6 
REMARK    2  A    between atoms: C_6  and  C_8 
REMARK    3  A    between atoms: C_8  and  C_9 
REMARK    4  A    between atoms: C_9  and  C_10 
REMARK    5  A    between atoms: C_10  and  C_11 
REMARK    6  A    between atoms: C_12  and  C_13 
REMARK    7  A    between atoms: C_14  and  C_13 
REMARK    8  A    between atoms: C_15  and  C_21 
REMARK    9  A    between atoms: C_16  and  O_20 
REMARK   10  A    between atoms: C_22  and  C_23 
REMARK   11  A    between atoms: C_23  and  C_24 
REMARK   12  A    between atoms: C_23  and  O_32 
REMARK   13  A    between atoms: C_24  and  O_25 
REMARK   14  A    between atoms: O_25  and  C_26 
ROOT
HETATM    1  C   UNK N   1      29.543  17.819   6.961  0.00  0.00     0.069 C 
HETATM    2  C   UNK N   1      30.198  17.144   8.159  0.00  0.00     0.048 C 
HETATM    3  C   UNK N   1      29.144  17.231   9.270  0.00  0.00     0.133 C 
HETATM    4  C   UNK N   1      28.399  18.539   9.066  0.00  0.00     0.111 C 
HETATM    5  C   UNK N   1      28.531  18.707   7.600  0.00  0.00     0.134 C 
HETATM    6  O   UNK N   1      27.851  19.499   6.967  0.00  0.00    -0.297 OA
ENDROOT
BRANCH   1   7
HETATM    7  C   UNK N   1      28.860  16.781   6.081  0.00  0.00     0.040 C 
BRANCH   7   8
HETATM    8  C   UNK N   1      29.092  17.088   4.632  0.00  0.00    -0.030 C 
HETATM    9  C   UNK N   1      28.107  17.451   3.798  0.00  0.00    -0.031 C 
BRANCH   9  10
HETATM   10  C   UNK N   1      26.684  17.601   4.238  0.00  0.00     0.027 C 
BRANCH  10  11
HETATM   11  C   UNK N   1      26.096  18.827   3.559  0.00  0.00     0.013 C 
BRANCH  11  12
HETATM   12  C   UNK N   1      24.997  19.482   4.388  0.00  0.00     0.104 C 
BRANCH  12  13
HETATM   13  C   UNK N   1      23.638  19.196   3.830  0.00  0.00     0.230 C 
HETATM   14  N   UNK N   1      23.035  20.110   3.031  0.00  0.00    -0.255 N 
HETATM   15  H   UNK N   1      23.497  20.962   2.854  0.00  0.00     0.181 HD
HETATM   16  O   UNK N   1      23.072  18.150   4.114  0.00  0.00    -0.273 OA
BRANCH  14  17
HETATM   17  S   UNK N   1      21.456  19.837   2.292  0.00  0.00     0.229 S 
HETATM   18  C   UNK N   1      20.413  21.067   1.464  0.00  0.00     0.186 C 
HETATM   19  O   UNK N   1      21.086  20.984   3.247  0.00  0.00    -0.206 OA
HETATM   20  O   UNK N   1      22.206  20.597   1.187  0.00  0.00    -0.206 OA
ENDBRANCH  14  17
ENDBRANCH  12  13
ENDBRANCH  11  12
ENDBRANCH  10  11
ENDBRANCH   9  10
ENDBRANCH   7   8
ENDBRANCH   1   7
BRANCH   2  21
HETATM   21  C   UNK N   1      31.457  17.890   8.516  0.00  0.00    -0.020 C 
HETATM   22  C   UNK N   1      32.572  17.244   8.883  0.00  0.00     0.003 C 
BRANCH  22  23
HETATM   23  C   UNK N   1      32.638  15.746   8.931  0.00  0.00     0.165 C 
BRANCH  23  24
HETATM   24  C   UNK N   1      32.055  15.110   7.674  0.00  0.00     0.211 C 
BRANCH  24  25
HETATM   25  O   UNK N   1      32.971  15.136   6.644  0.00  0.00    -0.348 OA
BRANCH  25  26
HETATM   26  C   UNK N   1      32.755  15.737   5.451  0.00  0.00     0.068 A 
HETATM   27  C   UNK N   1      32.316  14.959   4.375  0.00  0.00     0.037 A 
HETATM   28  C   UNK N   1      32.084  15.544   3.128  0.00  0.00     0.003 A 
HETATM   29  C   UNK N   1      32.288  16.915   2.951  0.00  0.00     0.000 A 
HETATM   30  C   UNK N   1      32.726  17.701   4.021  0.00  0.00     0.003 A 
HETATM   31  C   UNK N   1      32.961  17.116   5.269  0.00  0.00     0.037 A 
ENDBRANCH  25  26
ENDBRANCH  24  25
ENDBRANCH  23  24
BRANCH  23  32
HETATM   32  O   UNK N   1      32.001  15.266  10.077  0.00  0.00    -0.390 OA
HETATM   33  H   UNK N   1      31.486  15.844  10.661  0.00  0.00     0.210 HD
ENDBRANCH  23  32
ENDBRANCH  22  23
ENDBRANCH   2  21
BRANCH   3  34
HETATM   34  O   UNK N   1      29.692  17.130  10.551  0.00  0.00    -0.394 OA
HETATM   35  H   UNK N   1      30.554  17.520  10.764  0.00  0.00     0.210 HD
ENDBRANCH   3  34
TORSDOF 14
ENDMDL
MODEL 3
REMARK VINA RESULT:      -6.3      4.593     10.972
REMARK  14 active torsions:
REMARK  status: ('A' for Active; 'I' for Inactive)
REMARK    1  A    between atoms: S_2  and  N_5 
REMARK       I    between atoms: N_5  and  C_6 
REMARK    2  A    between atoms: C_6  and  C_8 
REMARK    3  A    between atoms: C_8  and  C_9 
REMARK    4  A    between atoms: C_9  and  C_10 
REMARK    5  A    between atoms: C_10  and  C_11 
REMARK    6  A    between atoms: C_12  and  C_13 
REMARK    7  A    between atoms: C_14  and  C_13 
REMARK    8  A    between atoms: C_15  and  C_21 
REMARK    9  A    between atoms: C_16  and  O_20 
REMARK   10  A    between atoms: C_22  and  C_23 
REMARK   11  A    between atoms: C_23  and  C_24 
REMARK   12  A    between atoms: C_23  and  O_32 
REMARK   13  A    between atoms: C_24  and  O_25 
REMARK   14  A    between atoms: O_25  and  C_26 
ROOT
HETATM    1  C   UNK N   1      36.213  12.967   8.917  0.00  0.00     0.069 C 
HETATM    2  C   UNK N   1      36.946  13.313  10.205  0.00  0.00     0.048 C 
HETATM    3  C   UNK N   1      38.388  13.590   9.761  0.00  0.00     0.133 C 
HETATM    4  C   UNK N   1      38.674  12.659   8.596  0.00  0.00     0.111 C 
HETATM    5  C   UNK N   1      37.314  12.500   8.029  0.00  0.00     0.134 C 
HETATM    6  O   UNK N   1      37.117  12.036   6.917  0.00  0.00    -0.297 OA
ENDROOT
BRANCH   1   7
HETATM    7  C   UNK N   1      35.553  14.210   8.337  0.00  0.00     0.040 C 
BRANCH   7   8
HETATM    8  C   UNK N   1      35.275  15.210   9.418  0.00  0.00    -0.030 C 
HETATM    9  C   UNK N   1      34.046  15.677   9.680  0.00  0.00    -0.031 C 
BRANCH   9  10
HETATM   10  C   UNK N   1      32.830  15.231   8.929  0.00  0.00     0.027 C 
BRANCH  10  11
HETATM   11  C   UNK N   1      31.960  16.446   8.653  0.00  0.00     0.013 C 
BRANCH  11  12
HETATM   12  C   UNK N   1      32.779  17.673   8.268  0.00  0.00     0.104 C 
BRANCH  12  13
HETATM   13  C   UNK N   1      33.277  17.587   6.860  0.00  0.00     0.230 C 
HETATM   14  N   UNK N   1      32.482  17.058   5.897  0.00  0.00    -0.255 N 
HETATM   15  H   UNK N   1      31.595  16.714   6.154  0.00  0.00     0.181 HD
HETATM   16  O   UNK N   1      34.404  17.975   6.589  0.00  0.00    -0.273 OA
BRANCH  14  17
HETATM   17  S   UNK N   1      32.968  16.960   4.204  0.00  0.00     0.229 S 
HETATM   18  C   UNK N   1      31.880  16.776   2.767  0.00  0.00     0.186 C 
HETATM   19  O   UNK N   1      32.140  15.668   4.297  0.00  0.00    -0.206 OA
HETATM   20  O   UNK N   1      31.861  18.024   4.164  0.00  0.00    -0.206 OA
ENDBRANCH  14  17
ENDBRANCH  12  13
ENDBRANCH  11  12
ENDBRANCH  10  11
ENDBRANCH   9  10
ENDBRANCH   7   8
ENDBRANCH   1   7
BRANCH   2  21
HETATM   21  C   UNK N   1      36.862  12.143  11.150  0.00  0.00    -0.020 C 
HETATM   22  C   UNK N   1      36.285  12.255  12.354  0.00  0.00     0.003 C 
BRANCH  22  23
HETATM   23  C   UNK N   1      35.665  13.541  12.816  0.00  0.00     0.165 C 
BRANCH  23  24
HETATM   24  C   UNK N   1      35.886  13.778  14.305  0.00  0.00     0.211 C 
BRANCH  24  25
HETATM   25  O   UNK N   1      34.878  13.199  15.046  0.00  0.00    -0.348 OA
BRANCH  25  26
HETATM   26  C   UNK N   1      35.040  12.709  16.297  0.00  0.00     0.068 A 
HETATM   27  C   UNK N   1      35.207  11.330  16.462  0.00  0.00     0.037 A 
HETATM   28  C   UNK N   1      35.375  10.787  17.738  0.00  0.00     0.003 A 
HETATM   29  C   UNK N   1      35.381  11.622  18.858  0.00  0.00     0.000 A 
HETATM   30  C   UNK N   1      35.215  13.002  18.703  0.00  0.00     0.003 A 
HETATM   31  C   UNK N   1      35.044  13.546  17.426  0.00  0.00     0.037 A 
ENDBRANCH  25  26
ENDBRANCH  24  25
ENDBRANCH  23  24
BRANCH  23  32
HETATM   32  O   UNK N   1      34.305  13.567  12.501  0.00  0.00    -0.390 OA
HETATM   33  H   UNK N   1      33.952  14.109  11.778  0.00  0.00     0.210 HD
ENDBRANCH  23  32
ENDBRANCH  22  23
ENDBRANCH   2  21
BRANCH   3  34
HETATM   34  O   UNK N   1      39.316  13.442  10.795  0.00  0.00    -0.394 OA
HETATM   35  H   UNK N   1      39.267  13.982  11.599  0.00  0.00     0.210 HD
ENDBRANCH   3  34
TORSDOF 14
ENDMDL
MODEL 4
REMARK VINA RESULT:      -6.3      1.699      4.224
REMARK  14 active torsions:
REMARK  status: ('A' for Active; 'I' for Inactive)
REMARK    1  A    between atoms: S_2  and  N_5 
REMARK       I    between atoms: N_5  and  C_6 
REMARK    2  A    between atoms: C_6  and  C_8 
REMARK    3  A    between atoms: C_8  and  C_9 
REMARK    4  A    between atoms: C_9  and  C_10 
REMARK    5  A    between atoms: C_10  and  C_11 
REMARK    6  A    between atoms: C_12  and  C_13 
REMARK    7  A    between atoms: C_14  and  C_13 
REMARK    8  A    between atoms: C_15  and  C_21 
REMARK    9  A    between atoms: C_16  and  O_20 
REMARK   10  A    between atoms: C_22  and  C_23 
REMARK   11  A    between atoms: C_23  and  C_24 
REMARK   12  A    between atoms: C_23  and  O_32 
REMARK   13  A    between atoms: C_24  and  O_25 
REMARK   14  A    between atoms: O_25  and  C_26 
ROOT
HETATM    1  C   UNK N   1      27.157  19.234   6.960  0.00  0.00     0.069 C 
HETATM    2  C   UNK N   1      27.611  18.756   5.587  0.00  0.00     0.048 C 
HETATM    3  C   UNK N   1      28.000  20.041   4.846  0.00  0.00     0.133 C 
HETATM    4  C   UNK N   1      27.061  21.130   5.332  0.00  0.00     0.111 C 
HETATM    5  C   UNK N   1      26.761  20.646   6.701  0.00  0.00     0.134 C 
HETATM    6  O   UNK N   1      26.245  21.356   7.549  0.00  0.00    -0.297 OA
ENDROOT
BRANCH   1   7
HETATM    7  C   UNK N   1      28.317  19.179   7.945  0.00  0.00     0.040 C 
BRANCH   7   8
HETATM    8  C   UNK N   1      28.529  17.776   8.429  0.00  0.00    -0.030 C 
HETATM    9  C   UNK N   1      29.718  17.159   8.376  0.00  0.00    -0.031 C 
BRANCH   9  10
HETATM   10  C   UNK N   1      30.952  17.818   7.842  0.00  0.00     0.027 C 
BRANCH  10  11
HETATM   11  C   UNK N   1      32.159  17.232   8.557  0.00  0.00     0.013 C 
BRANCH  11  12
HETATM   12  C   UNK N   1      31.991  15.748   8.862  0.00  0.00     0.104 C 
BRANCH  12  13
HETATM   13  C   UNK N   1      33.285  15.119   9.275  0.00  0.00     0.230 C 
HETATM   14  N   UNK N   1      33.909  15.544  10.401  0.00  0.00    -0.255 N 
HETATM   15  H   UNK N   1      33.508  16.283  10.914  0.00  0.00     0.181 HD
HETATM   16  O   UNK N   1      33.781  14.240   8.585  0.00  0.00    -0.273 OA
BRANCH  14  17
HETATM   17  S   UNK N   1      35.411  14.828  10.988  0.00  0.00     0.229 S 
HETATM   18  C   UNK N   1      36.017  14.814  12.696  0.00  0.00     0.186 C 
HETATM   19  O   UNK N   1      35.594  16.258  11.524  0.00  0.00    -0.206 OA
HETATM   20  O   UNK N   1      34.376  14.268  11.976  0.00  0.00    -0.206 OA
ENDBRANCH  14  17
ENDBRANCH  12  13
ENDBRANCH  11  12
ENDBRANCH  10  11
ENDBRANCH   9  10
ENDBRANCH   7   8
ENDBRANCH   1   7
BRANCH   2  21
HETATM   21  C   UNK N   1      26.469  18.040   4.914  0.00  0.00    -0.020 C 
HETATM   22  C   UNK N   1      26.431  16.703   4.834  0.00  0.00     0.003 C 
BRANCH  22  23
HETATM   23  C   UNK N   1      27.506  15.845   5.434  0.00  0.00     0.165 C 
BRANCH  23  24
HETATM   24  C   UNK N   1      28.428  15.260   4.372  0.00  0.00     0.211 C 
BRANCH  24  25
HETATM   25  O   UNK N   1      29.651  14.928   4.916  0.00  0.00    -0.348 OA
BRANCH  25  26
HETATM   26  C   UNK N   1      30.757  15.701   4.827  0.00  0.00     0.068 A 
HETATM   27  C   UNK N   1      31.973  15.192   5.293  0.00  0.00     0.037 A 
HETATM   28  C   UNK N   1      33.137  15.962   5.220  0.00  0.00     0.003 A 
HETATM   29  C   UNK N   1      33.090  17.248   4.676  0.00  0.00     0.000 A 
HETATM   30  C   UNK N   1      31.879  17.766   4.207  0.00  0.00     0.003 A 
HETATM   31  C   UNK N   1      30.713  16.997   4.283  0.00  0.00     0.037 A 
ENDBRANCH  25  26
ENDBRANCH  24  25
ENDBRANCH  23  24
BRANCH  23  32
HETATM   32  O   UNK N   1      26.943  14.837   6.219  0.00  0.00    -0.390 OA
HETATM   33  H   UNK N   1      27.332  14.561   7.063  0.00  0.00     0.210 HD
ENDBRANCH  23  32
ENDBRANCH  22  23
ENDBRANCH   2  21
BRANCH   3  34
HETATM   34  O   UNK N   1      27.970  19.900   3.456  0.00  0.00    -0.394 OA
HETATM   35  H   UNK N   1      27.241  20.261   2.927  0.00  0.00     0.210 HD
ENDBRANCH   3  34
TORSDOF 14
ENDMDL
MODEL 5
REMARK VINA RESULT:      -6.2     12.172     15.030
REMARK  14 active torsions:
REMARK  status: ('A' for Active; 'I' for Inactive)
REMARK    1  A    between atoms: S_2  and  N_5 
REMARK       I    between atoms: N_5  and  C_6 
REMARK    2  A    between atoms: C_6  and  C_8 
REMARK    3  A    between atoms: C_8  and  C_9 
REMARK    4  A    between atoms: C_9  and  C_10 
REMARK    5  A    between atoms: C_10  and  C_11 
REMARK    6  A    between atoms: C_12  and  C_13 
REMARK    7  A    between atoms: C_14  and  C_13 
REMARK    8  A    between atoms: C_15  and  C_21 
REMARK    9  A    between atoms: C_16  and  O_20 
REMARK   10  A    between atoms: C_22  and  C_23 
REMARK   11  A    between atoms: C_23  and  C_24 
REMARK   12  A    between atoms: C_23  and  O_32 
REMARK   13  A    between atoms: C_24  and  O_25 
REMARK   14  A    between atoms: O_25  and  C_26 
ROOT
HETATM    1  C   UNK N   1      27.187  22.671  -7.946  0.00  0.00     0.069 C 
HETATM    2  C   UNK N   1      25.753  23.154  -7.773  0.00  0.00     0.048 C 
HETATM    3  C   UNK N   1      24.920  21.866  -7.723  0.00  0.00     0.133 C 
HETATM    4  C   UNK N   1      25.599  20.869  -8.645  0.00  0.00     0.111 C 
HETATM    5  C   UNK N   1      27.007  21.325  -8.557  0.00  0.00     0.134 C 
HETATM    6  O   UNK N   1      27.943  20.641  -8.941  0.00  0.00    -0.297 OA
ENDROOT
BRANCH   1   7
HETATM    7  C   UNK N   1      27.869  22.554  -6.591  0.00  0.00     0.040 C 
BRANCH   7   8
HETATM    8  C   UNK N   1      29.275  23.071  -6.664  0.00  0.00    -0.030 C 
HETATM    9  C   UNK N   1      30.325  22.394  -6.180  0.00  0.00    -0.031 C 
BRANCH   9  10
HETATM   10  C   UNK N   1      30.198  21.048  -5.535  0.00  0.00     0.027 C 
BRANCH  10  11
HETATM   11  C   UNK N   1      30.245  21.230  -4.027  0.00  0.00     0.013 C 
BRANCH  11  12
HETATM   12  C   UNK N   1      31.253  22.290  -3.599  0.00  0.00     0.104 C 
BRANCH  12  13
HETATM   13  C   UNK N   1      32.591  21.691  -3.294  0.00  0.00     0.230 C 
HETATM   14  N   UNK N   1      33.493  21.519  -4.291  0.00  0.00    -0.255 N 
HETATM   15  H   UNK N   1      33.236  21.770  -5.209  0.00  0.00     0.181 HD
HETATM   16  O   UNK N   1      32.855  21.343  -2.152  0.00  0.00    -0.273 OA
BRANCH  14  17
HETATM   17  S   UNK N   1      35.108  20.866  -4.015  0.00  0.00     0.229 S 
HETATM   18  C   UNK N   1      36.117  19.921  -5.188  0.00  0.00     0.186 C 
HETATM   19  O   UNK N   1      34.392  19.576  -4.451  0.00  0.00    -0.206 OA
HETATM   20  O   UNK N   1      35.274  21.585  -5.362  0.00  0.00    -0.206 OA
ENDBRANCH  14  17
ENDBRANCH  12  13
ENDBRANCH  11  12
ENDBRANCH  10  11
ENDBRANCH   9  10
ENDBRANCH   7   8
ENDBRANCH   1   7
BRANCH   2  21
HETATM   21  C   UNK N   1      25.380  24.021  -8.947  0.00  0.00    -0.020 C 
HETATM   22  C   UNK N   1      25.713  25.318  -8.993  0.00  0.00     0.003 C 
BRANCH  22  23
HETATM   23  C   UNK N   1      26.499  25.971  -7.893  0.00  0.00     0.165 C 
BRANCH  23  24
HETATM   24  C   UNK N   1      25.595  26.677  -6.889  0.00  0.00     0.211 C 
BRANCH  24  25
HETATM   25  O   UNK N   1      26.288  26.976  -5.735  0.00  0.00    -0.348 OA
BRANCH  25  26
HETATM   26  C   UNK N   1      26.861  26.051  -4.932  0.00  0.00     0.068 A 
HETATM   27  C   UNK N   1      28.235  26.134  -4.684  0.00  0.00     0.037 A 
HETATM   28  C   UNK N   1      28.863  25.196  -3.860  0.00  0.00     0.003 A 
HETATM   29  C   UNK N   1      28.117  24.169  -3.277  0.00  0.00     0.000 A 
HETATM   30  C   UNK N   1      26.743  24.078  -3.518  0.00  0.00     0.003 A 
HETATM   31  C   UNK N   1      26.114  25.015  -4.344  0.00  0.00     0.037 A 
ENDBRANCH  25  26
ENDBRANCH  24  25
ENDBRANCH  23  24
BRANCH  23  32
HETATM   32  O   UNK N   1      27.441  26.853  -8.426  0.00  0.00    -0.390 OA
HETATM   33  H   UNK N   1      27.252  27.405  -9.200  0.00  0.00     0.210 HD
ENDBRANCH  23  32
ENDBRANCH  22  23
ENDBRANCH   2  21
BRANCH   3  34
HETATM   34  O   UNK N   1      23.580  22.069  -8.061  0.00  0.00    -0.394 OA
HETATM   35  H   UNK N   1      23.278  22.020  -8.981  0.00  0.00     0.210 HD
ENDBRANCH   3  34
TORSDOF 14
ENDMDL
MODEL 6
REMARK VINA RESULT:      -6.2     12.178     14.997
REMARK  14 active torsions:
REMARK  status: ('A' for Active; 'I' for Inactive)
REMARK    1  A    between atoms: S_2  and  N_5 
REMARK       I    between atoms: N_5  and  C_6 
REMARK    2  A    between atoms: C_6  and  C_8 
REMARK    3  A    between atoms: C_8  and  C_9 
REMARK    4  A    between atoms: C_9  and  C_10 
REMARK    5  A    between atoms: C_10  and  C_11 
REMARK    6  A    between atoms: C_12  and  C_13 
REMARK    7  A    between atoms: C_14  and  C_13 
REMARK    8  A    between atoms: C_15  and  C_21 
REMARK    9  A    between atoms: C_16  and  O_20 
REMARK   10  A    between atoms: C_22  and  C_23 
REMARK   11  A    between atoms: C_23  and  C_24 
REMARK   12  A    between atoms: C_23  and  O_32 
REMARK   13  A    between atoms: C_24  and  O_25 
REMARK   14  A    between atoms: O_25  and  C_26 
ROOT
HETATM    1  C   UNK N   1      26.244  27.167  -4.472  0.00  0.00     0.069 C 
HETATM    2  C   UNK N   1      26.981  26.871  -5.772  0.00  0.00     0.048 C 
HETATM    3  C   UNK N   1      27.992  28.017  -5.907  0.00  0.00     0.133 C 
HETATM    4  C   UNK N   1      27.335  29.253  -5.318  0.00  0.00     0.111 C 
HETATM    5  C   UNK N   1      26.433  28.636  -4.316  0.00  0.00     0.134 C 
HETATM    6  O   UNK N   1      25.901  29.282  -3.427  0.00  0.00    -0.297 OA
ENDROOT
BRANCH   1   7
HETATM    7  C   UNK N   1      26.898  26.421  -3.317  0.00  0.00     0.040 C 
BRANCH   7   8
HETATM    8  C   UNK N   1      26.694  24.943  -3.463  0.00  0.00    -0.030 C 
HETATM    9  C   UNK N   1      27.700  24.088  -3.693  0.00  0.00    -0.031 C 
BRANCH   9  10
HETATM   10  C   UNK N   1      29.128  24.526  -3.810  0.00  0.00     0.027 C 
BRANCH  10  11
HETATM   11  C   UNK N   1      30.003  23.515  -3.087  0.00  0.00     0.013 C 
BRANCH  11  12
HETATM   12  C   UNK N   1      31.432  23.499  -3.617  0.00  0.00     0.104 C 
BRANCH  12  13
HETATM   13  C   UNK N   1      32.126  22.212  -3.297  0.00  0.00     0.230 C 
HETATM   14  N   UNK N   1      32.915  21.625  -4.230  0.00  0.00    -0.255 N 
HETATM   15  H   UNK N   1      32.994  22.048  -5.116  0.00  0.00     0.181 HD
HETATM   16  O   UNK N   1      31.962  21.688  -2.205  0.00  0.00    -0.273 OA
BRANCH  14  17
HETATM   17  S   UNK N   1      33.807  20.134  -3.924  0.00  0.00     0.229 S 
HETATM   18  C   UNK N   1      35.276  19.543  -4.806  0.00  0.00     0.186 C 
HETATM   19  O   UNK N   1      33.517  19.944  -5.423  0.00  0.00    -0.206 OA
HETATM   20  O   UNK N   1      34.929  21.182  -3.967  0.00  0.00    -0.206 OA
ENDBRANCH  14  17
ENDBRANCH  12  13
ENDBRANCH  11  12
ENDBRANCH  10  11
ENDBRANCH   9  10
ENDBRANCH   7   8
ENDBRANCH   1   7
BRANCH   2  21
HETATM   21  C   UNK N   1      25.990  26.858  -6.906  0.00  0.00    -0.020 C 
HETATM   22  C   UNK N   1      25.651  25.718  -7.526  0.00  0.00     0.003 C 
BRANCH  22  23
HETATM   23  C   UNK N   1      26.215  24.393  -7.106  0.00  0.00     0.165 C 
BRANCH  23  24
HETATM   24  C   UNK N   1      26.936  23.692  -8.251  0.00  0.00     0.211 C 
BRANCH  24  25
HETATM   25  O   UNK N   1      26.899  22.323  -8.086  0.00  0.00    -0.348 OA
BRANCH  25  26
HETATM   26  C   UNK N   1      27.949  21.581  -7.666  0.00  0.00     0.068 A 
HETATM   27  C   UNK N   1      28.767  22.087  -6.650  0.00  0.00     0.037 A 
HETATM   28  C   UNK N   1      29.861  21.350  -6.191  0.00  0.00     0.003 A 
HETATM   29  C   UNK N   1      30.142  20.098  -6.745  0.00  0.00     0.000 A 
HETATM   30  C   UNK N   1      29.331  19.584  -7.760  0.00  0.00     0.003 A 
HETATM   31  C   UNK N   1      28.237  20.322  -8.222  0.00  0.00     0.037 A 
ENDBRANCH  25  26
ENDBRANCH  24  25
ENDBRANCH  23  24
BRANCH  23  32
HETATM   32  O   UNK N   1      25.210  23.582  -6.575  0.00  0.00    -0.390 OA
HETATM   33  H   UNK N   1      24.556  23.136  -7.136  0.00  0.00     0.210 HD
ENDBRANCH  23  32
ENDBRANCH  22  23
ENDBRANCH   2  21
BRANCH   3  34
HETATM   34  O   UNK N   1      28.414  28.220  -7.223  0.00  0.00    -0.394 OA
HETATM   35  H   UNK N   1      28.459  27.489  -7.858  0.00  0.00     0.210 HD
ENDBRANCH   3  34
TORSDOF 14
ENDMDL
MODEL 7
REMARK VINA RESULT:      -6.2     12.173     15.744
REMARK  14 active torsions:
REMARK  status: ('A' for Active; 'I' for Inactive)
REMARK    1  A    between atoms: S_2  and  N_5 
REMARK       I    between atoms: N_5  and  C_6 
REMARK    2  A    between atoms: C_6  and  C_8 
REMARK    3  A    between atoms: C_8  and  C_9 
REMARK    4  A    between atoms: C_9  and  C_10 
REMARK    5  A    between atoms: C_10  and  C_11 
REMARK    6  A    between atoms: C_12  and  C_13 
REMARK    7  A    between atoms: C_14  and  C_13 
REMARK    8  A    between atoms: C_15  and  C_21 
REMARK    9  A    between atoms: C_16  and  O_20 
REMARK   10  A    between atoms: C_22  and  C_23 
REMARK   11  A    between atoms: C_23  and  C_24 
REMARK   12  A    between atoms: C_23  and  O_32 
REMARK   13  A    between atoms: C_24  and  O_25 
REMARK   14  A    between atoms: O_25  and  C_26 
ROOT
HETATM    1  C   UNK N   1      28.399  24.412  -4.228  0.00  0.00     0.069 C 
HETATM    2  C   UNK N   1      29.837  24.096  -3.842  0.00  0.00     0.048 C 
HETATM    3  C   UNK N   1      29.713  23.019  -2.757  0.00  0.00     0.133 C 
HETATM    4  C   UNK N   1      28.449  23.328  -1.975  0.00  0.00     0.111 C 
HETATM    5  C   UNK N   1      27.636  24.001  -3.016  0.00  0.00     0.134 C 
HETATM    6  O   UNK N   1      26.436  24.187  -2.893  0.00  0.00    -0.297 OA
ENDROOT
BRANCH   1   7
HETATM    7  C   UNK N   1      27.981  23.575  -5.429  0.00  0.00     0.040 C 
BRANCH   7   8
HETATM    8  C   UNK N   1      26.521  23.761  -5.717  0.00  0.00    -0.030 C 
HETATM    9  C   UNK N   1      26.044  24.798  -6.419  0.00  0.00    -0.031 C 
BRANCH   9  10
HETATM   10  C   UNK N   1      26.925  25.861  -6.999  0.00  0.00     0.027 C 
BRANCH  10  11
HETATM   11  C   UNK N   1      26.573  27.187  -6.345  0.00  0.00     0.013 C 
BRANCH  11  12
HETATM   12  C   UNK N   1      25.613  27.023  -5.173  0.00  0.00     0.104 C 
BRANCH  12  13
HETATM   13  C   UNK N   1      26.098  27.743  -3.955  0.00  0.00     0.230 C 
HETATM   14  N   UNK N   1      27.321  28.328  -3.963  0.00  0.00    -0.255 N 
HETATM   15  H   UNK N   1      27.881  28.242  -4.769  0.00  0.00     0.181 HD
HETATM   16  O   UNK N   1      25.398  27.784  -2.953  0.00  0.00    -0.273 OA
BRANCH  14  17
HETATM   17  S   UNK N   1      27.954  29.237  -2.589  0.00  0.00     0.229 S 
HETATM   18  C   UNK N   1      29.153  30.595  -2.640  0.00  0.00     0.186 C 
HETATM   19  O   UNK N   1      29.282  28.782  -3.216  0.00  0.00    -0.206 OA
HETATM   20  O   UNK N   1      27.535  30.356  -3.555  0.00  0.00    -0.206 OA
ENDBRANCH  14  17
ENDBRANCH  12  13
ENDBRANCH  11  12
ENDBRANCH  10  11
ENDBRANCH   9  10
ENDBRANCH   7   8
ENDBRANCH   1   7
BRANCH   2  21
HETATM   21  C   UNK N   1      30.493  25.347  -3.321  0.00  0.00    -0.020 C 
HETATM   22  C   UNK N   1      31.408  26.011  -4.043  0.00  0.00     0.003 C 
BRANCH  22  23
HETATM   23  C   UNK N   1      31.806  25.561  -5.417  0.00  0.00     0.165 C 
BRANCH  23  24
HETATM   24  C   UNK N   1      33.185  24.913  -5.428  0.00  0.00     0.211 C 
BRANCH  24  25
HETATM   25  O   UNK N   1      33.155  23.711  -6.103  0.00  0.00    -0.348 OA
BRANCH  25  26
HETATM   26  C   UNK N   1      32.591  22.581  -5.617  0.00  0.00     0.068 A 
HETATM   27  C   UNK N   1      33.155  21.981  -4.486  0.00  0.00     0.037 A 
HETATM   28  C   UNK N   1      32.602  20.813  -3.957  0.00  0.00     0.003 A 
HETATM   29  C   UNK N   1      31.477  20.239  -4.555  0.00  0.00     0.000 A 
HETATM   30  C   UNK N   1      30.906  20.832  -5.685  0.00  0.00     0.003 A 
HETATM   31  C   UNK N   1      31.460  21.999  -6.217  0.00  0.00     0.037 A 
ENDBRANCH  25  26
ENDBRANCH  24  25
ENDBRANCH  23  24
BRANCH  23  32
HETATM   32  O   UNK N   1      31.748  26.629  -6.315  0.00  0.00    -0.390 OA
HETATM   33  H   UNK N   1      32.175  27.480  -6.133  0.00  0.00     0.210 HD
ENDBRANCH  23  32
ENDBRANCH  22  23
ENDBRANCH   2  21
BRANCH   3  34
HETATM   34  O   UNK N   1      30.838  22.942  -1.932  0.00  0.00    -0.394 OA
HETATM   35  H   UNK N   1      31.709  22.703  -2.286  0.00  0.00     0.210 HD
ENDBRANCH   3  34
TORSDOF 14
ENDMDL
MODEL 8
REMARK VINA RESULT:      -6.1      2.598      4.747
REMARK  14 active torsions:
REMARK  status: ('A' for Active; 'I' for Inactive)
REMARK    1  A    between atoms: S_2  and  N_5 
REMARK       I    between atoms: N_5  and  C_6 
REMARK    2  A    between atoms: C_6  and  C_8 
REMARK    3  A    between atoms: C_8  and  C_9 
REMARK    4  A    between atoms: C_9  and  C_10 
REMARK    5  A    between atoms: C_10  and  C_11 
REMARK    6  A    between atoms: C_12  and  C_13 
REMARK    7  A    between atoms: C_14  and  C_13 
REMARK    8  A    between atoms: C_15  and  C_21 
REMARK    9  A    between atoms: C_16  and  O_20 
REMARK   10  A    between atoms: C_22  and  C_23 
REMARK   11  A    between atoms: C_23  and  C_24 
REMARK   12  A    between atoms: C_23  and  O_32 
REMARK   13  A    between atoms: C_24  and  O_25 
REMARK   14  A    between atoms: O_25  and  C_26 
ROOT
HETATM    1  C   UNK N   1      33.434  15.911   7.541  0.00  0.00     0.069 C 
HETATM    2  C   UNK N   1      32.057  16.502   7.274  0.00  0.00     0.048 C 
HETATM    3  C   UNK N   1      31.946  16.536   5.744  0.00  0.00     0.133 C 
HETATM    4  C   UNK N   1      33.340  16.814   5.210  0.00  0.00     0.111 C 
HETATM    5  C   UNK N   1      34.171  16.218   6.283  0.00  0.00     0.134 C 
HETATM    6  O   UNK N   1      35.361  15.986   6.139  0.00  0.00    -0.297 OA
ENDROOT
BRANCH   1   7
HETATM    7  C   UNK N   1      33.331  14.406   7.743  0.00  0.00     0.040 C 
BRANCH   7   8
HETATM    8  C   UNK N   1      33.396  14.066   9.202  0.00  0.00    -0.030 C 
HETATM    9  C   UNK N   1      34.535  13.722   9.819  0.00  0.00    -0.031 C 
BRANCH   9  10
HETATM   10  C   UNK N   1      35.855  13.660   9.115  0.00  0.00     0.027 C 
BRANCH  10  11
HETATM   11  C   UNK N   1      36.873  14.442   9.927  0.00  0.00     0.013 C 
BRANCH  11  12
HETATM   12  C   UNK N   1      37.959  13.549  10.515  0.00  0.00     0.104 C 
BRANCH  12  13
HETATM   13  C   UNK N   1      37.461  12.775  11.695  0.00  0.00     0.230 C 
HETATM   14  N   UNK N   1      36.992  13.436  12.783  0.00  0.00    -0.255 N 
HETATM   15  H   UNK N   1      37.016  14.421  12.783  0.00  0.00     0.181 HD
HETATM   16  O   UNK N   1      37.496  11.553  11.680  0.00  0.00    -0.273 OA
BRANCH  14  17
HETATM   17  S   UNK N   1      36.342  12.606  14.197  0.00  0.00     0.229 S 
HETATM   18  C   UNK N   1      35.212  13.290  15.438  0.00  0.00     0.186 C 
HETATM   19  O   UNK N   1      36.957  13.832  14.892  0.00  0.00    -0.206 OA
HETATM   20  O   UNK N   1      35.080  13.218  13.570  0.00  0.00    -0.206 OA
ENDBRANCH  14  17
ENDBRANCH  12  13
ENDBRANCH  11  12
ENDBRANCH  10  11
ENDBRANCH   9  10
ENDBRANCH   7   8
ENDBRANCH   1   7
BRANCH   2  21
HETATM   21  C   UNK N   1      31.987  17.881   7.875  0.00  0.00    -0.020 C 
HETATM   22  C   UNK N   1      30.991  18.236   8.699  0.00  0.00     0.003 C 
BRANCH  22  23
HETATM   23  C   UNK N   1      29.909  17.273   9.090  0.00  0.00     0.165 C 
BRANCH  23  24
HETATM   24  C   UNK N   1      28.680  17.404   8.198  0.00  0.00     0.211 C 
BRANCH  24  25
HETATM   25  O   UNK N   1      28.353  18.730   8.009  0.00  0.00    -0.348 OA
BRANCH  25  26
HETATM   26  C   UNK N   1      27.921  19.246   6.835  0.00  0.00     0.068 A 
HETATM   27  C   UNK N   1      27.830  18.402   5.723  0.00  0.00     0.037 A 
HETATM   28  C   UNK N   1      27.389  18.899   4.494  0.00  0.00     0.003 A 
HETATM   29  C   UNK N   1      27.032  20.244   4.372  0.00  0.00     0.000 A 
HETATM   30  C   UNK N   1      27.118  21.094   5.478  0.00  0.00     0.003 A 
HETATM   31  C   UNK N   1      27.562  20.599   6.707  0.00  0.00     0.037 A 
ENDBRANCH  25  26
ENDBRANCH  24  25
ENDBRANCH  23  24
BRANCH  23  32
HETATM   32  O   UNK N   1      29.572  17.440  10.435  0.00  0.00    -0.390 OA
HETATM   33  H   UNK N   1      28.953  16.848  10.889  0.00  0.00     0.210 HD
ENDBRANCH  23  32
ENDBRANCH  22  23
ENDBRANCH   2  21
BRANCH   3  34
HETATM   34  O   UNK N   1      31.010  17.466   5.285  0.00  0.00    -0.394 OA
HETATM   35  H   UNK N   1      31.153  18.420   5.389  0.00  0.00     0.210 HD
ENDBRANCH   3  34
TORSDOF 14
ENDMDL
MODEL 9
REMARK VINA RESULT:      -6.1      4.234      8.522
REMARK  14 active torsions:
REMARK  status: ('A' for Active; 'I' for Inactive)
REMARK    1  A    between atoms: S_2  and  N_5 
REMARK       I    between atoms: N_5  and  C_6 
REMARK    2  A    between atoms: C_6  and  C_8 
REMARK    3  A    between atoms: C_8  and  C_9 
REMARK    4  A    between atoms: C_9  and  C_10 
REMARK    5  A    between atoms: C_10  and  C_11 
REMARK    6  A    between atoms: C_12  and  C_13 
REMARK    7  A    between atoms: C_14  and  C_13 
REMARK    8  A    between atoms: C_15  and  C_21 
REMARK    9  A    between atoms: C_16  and  O_20 
REMARK   10  A    between atoms: C_22  and  C_23 
REMARK   11  A    between atoms: C_23  and  C_24 
REMARK   12  A    between atoms: C_23  and  O_32 
REMARK   13  A    between atoms: C_24  and  O_25 
REMARK   14  A    between atoms: O_25  and  C_26 
ROOT
HETATM    1  C   UNK N   1      29.674  18.014   7.057  0.00  0.00     0.069 C 
HETATM    2  C   UNK N   1      30.411  17.295   8.178  0.00  0.00     0.048 C 
HETATM    3  C   UNK N   1      29.345  17.077   9.259  0.00  0.00     0.133 C 
HETATM    4  C   UNK N   1      28.412  18.274   9.200  0.00  0.00     0.111 C 
HETATM    5  C   UNK N   1      28.532  18.649   7.771  0.00  0.00     0.134 C 
HETATM    6  O   UNK N   1      27.747  19.407   7.224  0.00  0.00    -0.297 OA
ENDROOT
BRANCH   1   7
HETATM    7  C   UNK N   1      29.168  17.009   6.031  0.00  0.00     0.040 C 
BRANCH   7   8
HETATM    8  C   UNK N   1      29.279  17.571   4.646  0.00  0.00    -0.030 C 
HETATM    9  C   UNK N   1      28.220  17.746   3.844  0.00  0.00    -0.031 C 
BRANCH   9  10
HETATM   10  C   UNK N   1      26.821  17.413   4.261  0.00  0.00     0.027 C 
BRANCH  10  11
HETATM   11  C   UNK N   1      25.881  18.454   3.676  0.00  0.00     0.013 C 
BRANCH  11  12
HETATM   12  C   UNK N   1      24.983  19.087   4.732  0.00  0.00     0.104 C 
BRANCH  12  13
HETATM   13  C   UNK N   1      23.600  18.516   4.696  0.00  0.00     0.230 C 
HETATM   14  N   UNK N   1      23.038  18.043   5.836  0.00  0.00    -0.255 N 
HETATM   15  H   UNK N   1      23.569  18.061   6.666  0.00  0.00     0.181 HD
HETATM   16  O   UNK N   1      22.992  18.462   3.637  0.00  0.00    -0.273 OA
BRANCH  14  17
HETATM   17  S   UNK N   1      21.398  17.397   5.896  0.00  0.00     0.229 S 
HETATM   18  C   UNK N   1      20.430  17.016   7.380  0.00  0.00     0.186 C 
HETATM   19  O   UNK N   1      22.108  16.348   6.767  0.00  0.00    -0.206 OA
HETATM   20  O   UNK N   1      21.315  18.585   6.866  0.00  0.00    -0.206 OA
ENDBRANCH  14  17
ENDBRANCH  12  13
ENDBRANCH  11  12
ENDBRANCH  10  11
ENDBRANCH   9  10
ENDBRANCH   7   8
ENDBRANCH   1   7
BRANCH   2  21
HETATM   21  C   UNK N   1      31.538  18.167   8.666  0.00  0.00    -0.020 C 
HETATM   22  C   UNK N   1      32.743  18.148   8.079  0.00  0.00     0.003 C 
BRANCH  22  23
HETATM   23  C   UNK N   1      33.028  17.280   6.889  0.00  0.00     0.165 C 
BRANCH  23  24
HETATM   24  C   UNK N   1      33.461  15.877   7.297  0.00  0.00     0.211 C 
BRANCH  24  25
HETATM   25  O   UNK N   1      33.555  15.055   6.194  0.00  0.00    -0.348 OA
BRANCH  25  26
HETATM   26  C   UNK N   1      32.525  14.782   5.361  0.00  0.00     0.068 A 
HETATM   27  C   UNK N   1      32.584  15.248   4.043  0.00  0.00     0.037 A 
HETATM   28  C   UNK N   1      31.540  14.987   3.154  0.00  0.00     0.003 A 
HETATM   29  C   UNK N   1      30.428  14.253   3.577  0.00  0.00     0.000 A 
HETATM   30  C   UNK N   1      30.360  13.783   4.892  0.00  0.00     0.003 A 
HETATM   31  C   UNK N   1      31.404  14.046   5.784  0.00  0.00     0.037 A 
ENDBRANCH  25  26
ENDBRANCH  24  25
ENDBRANCH  23  24
BRANCH  23  32
HETATM   32  O   UNK N   1      33.984  17.880   6.066  0.00  0.00    -0.390 OA
HETATM   33  H   UNK N   1      34.832  17.455   5.866  0.00  0.00     0.210 HD
ENDBRANCH  23  32
ENDBRANCH  22  23
ENDBRANCH   2  21
BRANCH   3  34
HETATM   34  O   UNK N   1      29.887  16.893  10.533  0.00  0.00    -0.394 OA
HETATM   35  H   UNK N   1      30.557  16.212  10.703  0.00  0.00     0.210 HD
ENDBRANCH   3  34
TORSDOF 14
ENDMDL
