REMARK  7 active torsions:
REMARK  status: ('A' for Active; 'I' for Inactive)
REMARK       I    between atoms: N_3  and  C_21 
REMARK    1  A    between atoms: C_7  and  C_17 
REMARK    2  A    between atoms: C_10  and  C_13 
REMARK    3  A    between atoms: C_21  and  C_23 
REMARK    4  A    between atoms: C_23  and  C_24 
REMARK    5  A    between atoms: C_24  and  C_25 
REMARK    6  A    between atoms: C_24  and  N_35 
REMARK    7  A    between atoms: C_25  and  N_26 
ROOT
HETATM    1  C   UNK N   1      -3.583  -3.535  -0.358  0.00  0.00     0.063 C 
HETATM    2  C   UNK N   1      -2.534  -4.282   0.446  0.00  0.00     0.131 C 
HETATM    3  N   UNK N   1      -1.203  -3.973  -0.061  0.00  0.00    -0.346 N 
HETATM    4  C   UNK N   1      -0.850  -2.606  -0.445  0.00  0.00     0.183 C 
HETATM    5  C   UNK N   1      -1.978  -1.624  -0.306  0.00  0.00     0.037 A 
HETATM    6  C   UNK N   1      -3.301  -2.070  -0.232  0.00  0.00    -0.001 A 
HETATM    7  C   UNK N   1      -4.319  -1.121  -0.033  0.00  0.00     0.126 A 
HETATM    8  N   UNK N   1      -3.986   0.194   0.079  0.00  0.00    -0.334 N 
ATOM      9  HN  UNK N   1      -4.721   0.883   0.237  1.00  0.00     0.167 HD
HETATM   10  C   UNK N   1      -2.693   0.610  -0.017  0.00  0.00     0.191 A 
HETATM   11  N   UNK N   1      -1.702  -0.300  -0.212  0.00  0.00    -0.340 N 
ATOM     12  HN  UNK N   1      -0.736   0.019  -0.288  1.00  0.00     0.167 HD
HETATM   13  C   UNK N   1      -0.265  -4.965  -0.129  0.00  0.00     0.222 C 
HETATM   14  O   UNK N   1      -0.552  -6.109   0.187  0.00  0.00    -0.273 OA
ENDROOT
BRANCH  13  15
HETATM   15  C   UNK N   1       1.142  -4.672  -0.571  0.00  0.00     0.129 C 
BRANCH  15  16
HETATM   16  C   UNK N   1       1.802  -3.686   0.386  0.00  0.00     0.100 C 
BRANCH  16  17
HETATM   17  C   UNK N   1       2.996  -2.971  -0.246  0.00  0.00     0.150 C 
BRANCH  17  18
HETATM   18  N   UNK N   1       4.277  -3.561   0.083  0.00  0.00    -0.344 N 
HETATM   19  C   UNK N   1       5.236  -2.771   0.823  0.00  0.00     0.204 C 
HETATM   20  C   UNK N   1       6.569  -2.746   0.065  0.00  0.00     0.260 C 
HETATM   21  C   UNK N   1       7.047  -4.166  -0.321  0.00  0.00     0.090 C 
HETATM   22  F   UNK N   1       6.415  -1.998  -1.089  0.00  0.00    -0.205 F 
HETATM   23  F   UNK N   1       7.529  -2.146   0.856  0.00  0.00    -0.205 F 
HETATM   24  C   UNK N   1       6.032  -5.282  -0.020  0.00  0.00     0.109 C 
HETATM   25  C   UNK N   1       4.651  -4.799  -0.344  0.00  0.00     0.220 C 
HETATM   26  O   UNK N   1       3.905  -5.492  -1.017  0.00  0.00    -0.273 OA
ENDBRANCH  17  18
ENDBRANCH  16  17
BRANCH  16  27
HETATM   27  N   UNK N   1       2.128  -4.308   1.661  0.00  0.00    -0.424 N 
HETATM   28  H   UNK N   1       1.865  -4.724   2.554  0.00  0.00     0.150 HD
HETATM   29  H   UNK N   1       3.147  -4.348   1.661  0.00  0.00     0.150 HD
ENDBRANCH  16  27
ENDBRANCH  15  16
ENDBRANCH  13  15
BRANCH   7  30
HETATM   30  C   UNK N   1      -5.763  -1.532   0.055  0.00  0.00     0.433 C 
HETATM   31  F   UNK N   1      -6.139  -2.167  -1.115  0.00  0.00    -0.165 F 
HETATM   32  F   UNK N   1      -6.572  -0.424   0.237  0.00  0.00    -0.165 F 
HETATM   33  F   UNK N   1      -5.941  -2.393   1.122  0.00  0.00    -0.165 F 
ENDBRANCH   7  30
BRANCH  10  34
HETATM   34  C   UNK N   1      -2.353   2.063   0.101  0.00  0.00     0.449 C 
HETATM   35  F   UNK N   1      -1.852   2.517  -1.104  0.00  0.00    -0.163 F 
HETATM   36  F   UNK N   1      -3.475   2.802   0.431  0.00  0.00    -0.163 F 
HETATM   37  F   UNK N   1      -1.397   2.236   1.085  0.00  0.00    -0.163 F 
ENDBRANCH  10  34
TORSDOF 7
