REMARK  2 active torsions:
REMARK  status: ('A' for Active; 'I' for Inactive)
REMARK    1  A    between atoms: C_3  and  O_19 
REMARK    2  A    between atoms: C_9  and  C_12 
ROOT
HETATM    1  C   UNK N   1       4.699  -0.472   0.000  0.00  0.00     0.071 C 
HETATM    2  C   UNK N   1       3.374   0.211   0.000  0.00  0.00     0.039 A 
HETATM    3  C   UNK N   1       2.177  -0.536   0.000  0.00  0.00     0.097 A 
HETATM    4  C   UNK N   1       0.969   0.168   0.000  0.00  0.00     0.011 A 
HETATM    5  C   UNK N   1       0.952   1.504  -0.000  0.00  0.00     0.002 A 
HETATM    6  C   UNK N   1       2.132   2.245  -0.000  0.00  0.00     0.099 A 
HETATM    7  N   UNK N   1       3.322   1.578  -0.000  0.00  0.00    -0.367 N 
ATOM      8  HN  UNK N   1       4.193   2.110  -0.000  1.00  0.00     0.165 HD
HETATM    9  C   UNK N   1      -0.444   1.933  -0.000  0.00  0.00     0.190 A 
HETATM   10  O   UNK N   1      -1.294   0.794  -0.000  0.00  0.00    -0.372 OA
HETATM   11  C   UNK N   1      -0.425  -0.350   0.000  0.00  0.00     0.211 A 
ENDROOT
BRANCH   9  12
HETATM   12  C   UNK N   1      -0.978   3.340  -0.000  0.00  0.00    -0.025 A 
HETATM   13  C   UNK N   1      -2.359   3.587   0.000  0.00  0.00     0.012 A 
HETATM   14  C   UNK N   1      -2.838   4.906   0.000  0.00  0.00     0.024 A 
HETATM   15  C   UNK N   1      -1.939   5.978   0.000  0.00  0.00     0.034 A 
HETATM   16  C   UNK N   1      -0.565   5.734  -0.000  0.00  0.00     0.024 A 
HETATM   17 Cl   UNK N   1      -2.526   7.629   0.000  0.00  0.00    -0.084 Cl
HETATM   18  C   UNK N   1      -0.088   4.422  -0.000  0.00  0.00     0.012 A 
ENDBRANCH   9  12
BRANCH   3  19
HETATM   19  O   UNK N   1       2.194  -1.881   0.000  0.00  0.00    -0.358 OA
HETATM   20  H   UNK N   1       1.388  -2.360   0.000  0.00  0.00     0.217 HD
ENDBRANCH   3  19
TORSDOF 2
