MODEL 1
REMARK VINA RESULT:      -7.0      0.000      0.000
REMARK  3 active torsions:
REMARK  status: ('A' for Active; 'I' for Inactive)
REMARK    1  A    between atoms: C_4  and  S_19 
REMARK    2  A    between atoms: C_5  and  S_15 
REMARK    3  A    between atoms: C_7  and  C_8 
REMARK       I    between atoms: C_8  and  N_10 
REMARK       I    between atoms: N_10  and  C_11 
REMARK       I    between atoms: C_11  and  N_14 
ROOT
HETATM    1  C   UNK N   1      26.319  20.834   2.962  0.00  0.00     0.049 C 
HETATM    2  C   UNK N   1      25.179  20.064   3.538  0.00  0.00    -0.045 A 
HETATM    3  C   UNK N   1      23.900  20.285   3.012  0.00  0.00     0.032 A 
HETATM    4  C   UNK N   1      22.783  19.597   3.506  0.00  0.00     0.080 A 
HETATM    5  C   UNK N   1      22.952  18.676   4.564  0.00  0.00     0.081 A 
HETATM    6  C   UNK N   1      24.228  18.453   5.071  0.00  0.00     0.042 A 
HETATM    7  C   UNK N   1      25.353  19.117   4.579  0.00  0.00     0.040 A 
ENDROOT
BRANCH   7   8
HETATM    8  C   UNK N   1      26.670  18.763   5.180  0.00  0.00     0.270 C 
HETATM    9  O   UNK N   1      27.563  18.290   4.497  0.00  0.00    -0.267 OA
HETATM   10  N   UNK N   1      26.847  18.959   6.518  0.00  0.00    -0.156 N 
HETATM   11  C   UNK N   1      28.009  18.624   7.268  0.00  0.00     0.672 C 
HETATM   12  H   UNK N   1      26.101  19.372   7.011  0.00  0.00     0.187 HD
HETATM   13  N   UNK N   1      28.042  18.892   8.520  0.00  0.00    -0.235 N 
HETATM   14  N   UNK N   1      29.087  17.927   6.680  0.00  0.00    -0.235 N 
HETATM   15  H   UNK N   1      28.868  18.746   9.036  0.00  0.00     0.174 HD
ATOM     16  HN  UNK N   1      27.210  19.257   8.986  1.00  0.00     0.174 HD
HETATM   17  H   UNK N   1      29.045  17.634   5.740  0.00  0.00     0.174 HD
HETATM   18  H   UNK N   1      29.891  17.733   7.213  0.00  0.00     0.174 HD
ENDBRANCH   7   8
BRANCH   5  19
HETATM   19  S   UNK N   1      21.606  17.759   5.336  0.00  0.00     0.173 S 
HETATM   20  O   UNK N   1      21.013  18.734   6.365  0.00  0.00    -0.223 OA
HETATM   21  O   UNK N   1      22.281  16.809   6.337  0.00  0.00    -0.223 OA
HETATM   22  C   UNK N   1      20.184  16.837   4.687  0.00  0.00     0.167 C 
ENDBRANCH   5  19
BRANCH   4  23
HETATM   23  S   UNK N   1      21.185  19.915   2.745  0.00  0.00     0.173 S 
HETATM   24  O   UNK N   1      20.303  20.561   3.825  0.00  0.00    -0.223 OA
HETATM   25  O   UNK N   1      21.330  21.108   1.788  0.00  0.00    -0.223 OA
HETATM   26  C   UNK N   1      20.132  18.683   1.930  0.00  0.00     0.167 C 
ENDBRANCH   4  23
TORSDOF 3
ENDMDL
MODEL 2
REMARK VINA RESULT:      -6.7      4.820      7.310
REMARK  3 active torsions:
REMARK  status: ('A' for Active; 'I' for Inactive)
REMARK    1  A    between atoms: C_4  and  S_19 
REMARK    2  A    between atoms: C_5  and  S_15 
REMARK    3  A    between atoms: C_7  and  C_8 
REMARK       I    between atoms: C_8  and  N_10 
REMARK       I    between atoms: N_10  and  C_11 
REMARK       I    between atoms: C_11  and  N_14 
ROOT
HETATM    1  C   UNK N   1      20.832  14.564   9.336  0.00  0.00     0.049 C 
HETATM    2  C   UNK N   1      21.114  15.461   8.178  0.00  0.00    -0.045 A 
HETATM    3  C   UNK N   1      22.171  15.122   7.323  0.00  0.00     0.032 A 
HETATM    4  C   UNK N   1      22.493  15.919   6.216  0.00  0.00     0.080 A 
HETATM    5  C   UNK N   1      21.746  17.092   5.970  0.00  0.00     0.081 A 
HETATM    6  C   UNK N   1      20.690  17.414   6.817  0.00  0.00     0.042 A 
HETATM    7  C   UNK N   1      20.345  16.622   7.914  0.00  0.00     0.040 A 
ENDROOT
BRANCH   7   8
HETATM    8  C   UNK N   1      19.170  17.052   8.723  0.00  0.00     0.270 C 
HETATM    9  O   UNK N   1      18.112  16.449   8.661  0.00  0.00    -0.267 OA
HETATM   10  N   UNK N   1      19.298  18.153   9.518  0.00  0.00    -0.156 N 
HETATM   11  C   UNK N   1      18.270  18.740  10.307  0.00  0.00     0.672 C 
HETATM   12  H   UNK N   1      20.185  18.581   9.549  0.00  0.00     0.187 HD
HETATM   13  N   UNK N   1      18.545  19.763  11.029  0.00  0.00    -0.235 N 
HETATM   14  N   UNK N   1      16.939  18.273  10.246  0.00  0.00    -0.235 N 
HETATM   15  H   UNK N   1      17.870  20.129  11.645  0.00  0.00     0.174 HD
ATOM     16  HN  UNK N   1      19.465  20.200  10.964  1.00  0.00     0.174 HD
HETATM   17  H   UNK N   1      16.688  17.545   9.632  0.00  0.00     0.174 HD
HETATM   18  H   UNK N   1      16.253  18.679  10.823  0.00  0.00     0.174 HD
ENDBRANCH   7   8
BRANCH   5  19
HETATM   19  S   UNK N   1      22.075  18.241   4.621  0.00  0.00     0.173 S 
HETATM   20  O   UNK N   1      21.119  19.418   4.871  0.00  0.00    -0.223 OA
HETATM   21  O   UNK N   1      21.348  17.657   3.400  0.00  0.00    -0.223 OA
HETATM   22  C   UNK N   1      23.587  18.996   3.959  0.00  0.00     0.167 C 
ENDBRANCH   5  19
BRANCH   4  23
HETATM   23  S   UNK N   1      23.840  15.387   5.150  0.00  0.00     0.173 S 
HETATM   24  O   UNK N   1      25.033  16.305   5.456  0.00  0.00    -0.223 OA
HETATM   25  O   UNK N   1      24.394  14.061   5.690  0.00  0.00    -0.223 OA
HETATM   26  C   UNK N   1      23.777  15.260   3.341  0.00  0.00     0.167 C 
ENDBRANCH   4  23
TORSDOF 3
ENDMDL
MODEL 3
REMARK VINA RESULT:      -6.6      5.552      9.640
REMARK  3 active torsions:
REMARK  status: ('A' for Active; 'I' for Inactive)
REMARK    1  A    between atoms: C_4  and  S_19 
REMARK    2  A    between atoms: C_5  and  S_15 
REMARK    3  A    between atoms: C_7  and  C_8 
REMARK       I    between atoms: C_8  and  N_10 
REMARK       I    between atoms: N_10  and  C_11 
REMARK       I    between atoms: C_11  and  N_14 
ROOT
HETATM    1  C   UNK N   1      28.921  18.371   9.230  0.00  0.00     0.049 C 
HETATM    2  C   UNK N   1      29.803  17.903   8.123  0.00  0.00    -0.045 A 
HETATM    3  C   UNK N   1      31.166  17.722   8.395  0.00  0.00     0.032 A 
HETATM    4  C   UNK N   1      32.053  17.286   7.402  0.00  0.00     0.080 A 
HETATM    5  C   UNK N   1      31.564  17.039   6.100  0.00  0.00     0.081 A 
HETATM    6  C   UNK N   1      30.208  17.209   5.842  0.00  0.00     0.042 A 
HETATM    7  C   UNK N   1      29.308  17.627   6.824  0.00  0.00     0.040 A 
ENDROOT
BRANCH   7   8
HETATM    8  C   UNK N   1      27.874  17.735   6.433  0.00  0.00     0.270 C 
HETATM    9  O   UNK N   1      27.101  16.811   6.626  0.00  0.00    -0.267 OA
HETATM   10  N   UNK N   1      27.450  18.883   5.831  0.00  0.00    -0.156 N 
HETATM   11  C   UNK N   1      26.140  19.136   5.338  0.00  0.00     0.672 C 
HETATM   12  H   UNK N   1      28.113  19.605   5.728  0.00  0.00     0.187 HD
HETATM   13  N   UNK N   1      25.879  20.277   4.817  0.00  0.00    -0.235 N 
HETATM   14  N   UNK N   1      25.149  18.129   5.333  0.00  0.00    -0.235 N 
HETATM   15  H   UNK N   1      24.957  20.500   4.550  0.00  0.00     0.174 HD
ATOM     16  HN  UNK N   1      26.627  20.957   4.677  1.00  0.00     0.174 HD
HETATM   17  H   UNK N   1      25.354  17.219   5.648  0.00  0.00     0.174 HD
HETATM   18  H   UNK N   1      24.242  18.339   5.013  0.00  0.00     0.174 HD
ENDBRANCH   7   8
BRANCH   5  19
HETATM   19  S   UNK N   1      32.592  16.527   4.710  0.00  0.00     0.173 S 
HETATM   20  O   UNK N   1      33.151  17.838   4.138  0.00  0.00    -0.223 OA
HETATM   21  O   UNK N   1      31.610  16.221   3.568  0.00  0.00    -0.223 OA
HETATM   22  C   UNK N   1      33.933  15.320   4.523  0.00  0.00     0.167 C 
ENDBRANCH   5  19
BRANCH   4  23
HETATM   23  S   UNK N   1      33.778  17.043   7.851  0.00  0.00     0.173 S 
HETATM   24  O   UNK N   1      34.597  18.027   7.002  0.00  0.00    -0.223 OA
HETATM   25  O   UNK N   1      34.010  17.653   9.242  0.00  0.00    -0.223 OA
HETATM   26  C   UNK N   1      34.682  15.472   7.784  0.00  0.00     0.167 C 
ENDBRANCH   4  23
TORSDOF 3
ENDMDL
MODEL 4
REMARK VINA RESULT:      -6.4      6.228      8.490
REMARK  3 active torsions:
REMARK  status: ('A' for Active; 'I' for Inactive)
REMARK    1  A    between atoms: C_4  and  S_19 
REMARK    2  A    between atoms: C_5  and  S_15 
REMARK    3  A    between atoms: C_7  and  C_8 
REMARK       I    between atoms: C_8  and  N_10 
REMARK       I    between atoms: N_10  and  C_11 
REMARK       I    between atoms: C_11  and  N_14 
ROOT
HETATM    1  C   UNK N   1      34.086  16.085   6.150  0.00  0.00     0.049 C 
HETATM    2  C   UNK N   1      32.791  16.608   6.673  0.00  0.00    -0.045 A 
HETATM    3  C   UNK N   1      31.720  16.732   5.779  0.00  0.00     0.032 A 
HETATM    4  C   UNK N   1      30.474  17.216   6.201  0.00  0.00     0.080 A 
HETATM    5  C   UNK N   1      30.304  17.600   7.550  0.00  0.00     0.081 A 
HETATM    6  C   UNK N   1      31.369  17.460   8.433  0.00  0.00     0.042 A 
HETATM    7  C   UNK N   1      32.611  16.964   8.033  0.00  0.00     0.040 A 
ENDROOT
BRANCH   7   8
HETATM    8  C   UNK N   1      33.661  16.827   9.082  0.00  0.00     0.270 C 
HETATM    9  O   UNK N   1      34.521  17.681   9.223  0.00  0.00    -0.267 OA
HETATM   10  N   UNK N   1      33.653  15.711   9.866  0.00  0.00    -0.156 N 
HETATM   11  C   UNK N   1      34.608  15.385  10.870  0.00  0.00     0.672 C 
HETATM   12  H   UNK N   1      32.917  15.071   9.725  0.00  0.00     0.187 HD
HETATM   13  N   UNK N   1      34.457  14.309  11.549  0.00  0.00    -0.235 N 
HETATM   14  N   UNK N   1      35.760  16.176  11.072  0.00  0.00    -0.235 N 
HETATM   15  H   UNK N   1      35.058  14.112  12.303  0.00  0.00     0.174 HD
ATOM     16  HN  UNK N   1      33.712  13.655  11.307  1.00  0.00     0.174 HD
HETATM   17  H   UNK N   1      35.941  16.959  10.502  0.00  0.00     0.174 HD
HETATM   18  H   UNK N   1      36.390  15.944  11.792  0.00  0.00     0.174 HD
ENDBRANCH   7   8
BRANCH   5  19
HETATM   19  S   UNK N   1      28.781  18.288   8.225  0.00  0.00     0.173 S 
HETATM   20  O   UNK N   1      29.114  18.600   9.692  0.00  0.00    -0.223 OA
HETATM   21  O   UNK N   1      27.868  17.081   8.487  0.00  0.00    -0.223 OA
HETATM   22  C   UNK N   1      27.669  19.623   7.700  0.00  0.00     0.167 C 
ENDBRANCH   5  19
BRANCH   4  23
HETATM   23  S   UNK N   1      29.144  17.306   4.994  0.00  0.00     0.173 S 
HETATM   24  O   UNK N   1      29.691  16.704   3.690  0.00  0.00    -0.223 OA
HETATM   25  O   UNK N   1      28.095  16.240   5.345  0.00  0.00    -0.223 OA
HETATM   26  C   UNK N   1      28.256  18.808   4.500  0.00  0.00     0.167 C 
ENDBRANCH   4  23
TORSDOF 3
ENDMDL
MODEL 5
REMARK VINA RESULT:      -6.3      6.422      9.448
REMARK  3 active torsions:
REMARK  status: ('A' for Active; 'I' for Inactive)
REMARK    1  A    between atoms: C_4  and  S_19 
REMARK    2  A    between atoms: C_5  and  S_15 
REMARK    3  A    between atoms: C_7  and  C_8 
REMARK       I    between atoms: C_8  and  N_10 
REMARK       I    between atoms: N_10  and  C_11 
REMARK       I    between atoms: C_11  and  N_14 
ROOT
HETATM    1  C   UNK N   1      27.556  16.062   5.761  0.00  0.00     0.049 C 
HETATM    2  C   UNK N   1      28.980  16.336   6.110  0.00  0.00    -0.045 A 
HETATM    3  C   UNK N   1      29.954  15.430   5.668  0.00  0.00     0.032 A 
HETATM    4  C   UNK N   1      31.311  15.624   5.960  0.00  0.00     0.080 A 
HETATM    5  C   UNK N   1      31.699  16.745   6.727  0.00  0.00     0.081 A 
HETATM    6  C   UNK N   1      30.727  17.645   7.151  0.00  0.00     0.042 A 
HETATM    7  C   UNK N   1      29.373  17.476   6.854  0.00  0.00     0.040 A 
ENDROOT
BRANCH   7   8
HETATM    8  C   UNK N   1      28.434  18.530   7.332  0.00  0.00     0.270 C 
HETATM    9  O   UNK N   1      27.997  18.510   8.471  0.00  0.00    -0.267 OA
HETATM   10  N   UNK N   1      28.054  19.505   6.458  0.00  0.00    -0.156 N 
HETATM   11  C   UNK N   1      27.123  20.549   6.720  0.00  0.00     0.672 C 
HETATM   12  H   UNK N   1      28.462  19.485   5.562  0.00  0.00     0.187 HD
HETATM   13  N   UNK N   1      26.882  21.414   5.806  0.00  0.00    -0.235 N 
HETATM   14  N   UNK N   1      26.398  20.601   7.932  0.00  0.00    -0.235 N 
HETATM   15  H   UNK N   1      26.307  22.190   5.999  0.00  0.00     0.174 HD
ATOM     16  HN  UNK N   1      27.285  21.298   4.876  1.00  0.00     0.174 HD
HETATM   17  H   UNK N   1      26.504  19.896   8.612  0.00  0.00     0.174 HD
HETATM   18  H   UNK N   1      25.782  21.349   8.099  0.00  0.00     0.174 HD
ENDBRANCH   7   8
BRANCH   5  19
HETATM   19  S   UNK N   1      33.395  17.096   7.226  0.00  0.00     0.173 S 
HETATM   20  O   UNK N   1      33.282  18.314   8.155  0.00  0.00    -0.223 OA
HETATM   21  O   UNK N   1      34.030  17.823   6.031  0.00  0.00    -0.223 OA
HETATM   22  C   UNK N   1      34.727  16.087   7.933  0.00  0.00     0.167 C 
ENDBRANCH   5  19
BRANCH   4  23
HETATM   23  S   UNK N   1      32.496  14.433   5.319  0.00  0.00     0.173 S 
HETATM   24  O   UNK N   1      32.924  13.554   6.505  0.00  0.00    -0.223 OA
HETATM   25  O   UNK N   1      31.736  13.387   4.490  0.00  0.00    -0.223 OA
HETATM   26  C   UNK N   1      34.027  14.829   4.430  0.00  0.00     0.167 C 
ENDBRANCH   4  23
TORSDOF 3
ENDMDL
MODEL 6
REMARK VINA RESULT:      -6.0     16.587     19.391
REMARK  3 active torsions:
REMARK  status: ('A' for Active; 'I' for Inactive)
REMARK    1  A    between atoms: C_4  and  S_19 
REMARK    2  A    between atoms: C_5  and  S_15 
REMARK    3  A    between atoms: C_7  and  C_8 
REMARK       I    between atoms: C_8  and  N_10 
REMARK       I    between atoms: N_10  and  C_11 
REMARK       I    between atoms: C_11  and  N_14 
ROOT
HETATM    1  C   UNK N   1      35.170  14.249  17.974  0.00  0.00     0.049 C 
HETATM    2  C   UNK N   1      35.435  12.808  17.698  0.00  0.00    -0.045 A 
HETATM    3  C   UNK N   1      35.162  11.881  18.713  0.00  0.00     0.032 A 
HETATM    4  C   UNK N   1      35.388  10.510  18.524  0.00  0.00     0.080 A 
HETATM    5  C   UNK N   1      35.915  10.061  17.293  0.00  0.00     0.081 A 
HETATM    6  C   UNK N   1      36.172  10.987  16.287  0.00  0.00     0.042 A 
HETATM    7  C   UNK N   1      35.936  12.353  16.453  0.00  0.00     0.040 A 
ENDROOT
BRANCH   7   8
HETATM    8  C   UNK N   1      36.216  13.240  15.288  0.00  0.00     0.270 C 
HETATM    9  O   UNK N   1      37.119  14.058  15.326  0.00  0.00    -0.267 OA
HETATM   10  N   UNK N   1      35.421  13.131  14.185  0.00  0.00    -0.156 N 
HETATM   11  C   UNK N   1      35.502  13.932  13.012  0.00  0.00     0.672 C 
HETATM   12  H   UNK N   1      34.727  12.432  14.201  0.00  0.00     0.187 HD
HETATM   13  N   UNK N   1      34.701  13.697  12.039  0.00  0.00    -0.235 N 
HETATM   14  N   UNK N   1      36.385  15.032  12.932  0.00  0.00    -0.235 N 
HETATM   15  H   UNK N   1      34.800  14.184  11.189  0.00  0.00     0.174 HD
ATOM     16  HN  UNK N   1      33.959  13.005  12.146  1.00  0.00     0.174 HD
HETATM   17  H   UNK N   1      36.946  15.284  13.701  0.00  0.00     0.174 HD
HETATM   18  H   UNK N   1      36.441  15.552  12.099  0.00  0.00     0.174 HD
ENDBRANCH   7   8
BRANCH   5  19
HETATM   19  S   UNK N   1      36.308   8.341  16.924  0.00  0.00     0.173 S 
HETATM   20  O   UNK N   1      37.714   8.131  17.506  0.00  0.00    -0.223 OA
HETATM   21  O   UNK N   1      36.708   8.323  15.441  0.00  0.00    -0.223 OA
HETATM   22  C   UNK N   1      35.443   6.771  17.205  0.00  0.00     0.167 C 
ENDBRANCH   5  19
BRANCH   4  23
HETATM   23  S   UNK N   1      34.971   9.388  19.866  0.00  0.00     0.173 S 
HETATM   24  O   UNK N   1      34.441  10.256  21.018  0.00  0.00    -0.223 OA
HETATM   25  O   UNK N   1      33.680   8.643  19.496  0.00  0.00    -0.223 OA
HETATM   26  C   UNK N   1      36.094   8.190  20.637  0.00  0.00     0.167 C 
ENDBRANCH   4  23
TORSDOF 3
ENDMDL
MODEL 7
REMARK VINA RESULT:      -6.0      2.020      3.260
REMARK  3 active torsions:
REMARK  status: ('A' for Active; 'I' for Inactive)
REMARK    1  A    between atoms: C_4  and  S_19 
REMARK    2  A    between atoms: C_5  and  S_15 
REMARK    3  A    between atoms: C_7  and  C_8 
REMARK       I    between atoms: C_8  and  N_10 
REMARK       I    between atoms: N_10  and  C_11 
REMARK       I    between atoms: C_11  and  N_14 
ROOT
HETATM    1  C   UNK N   1      25.129  15.198   4.440  0.00  0.00     0.049 C 
HETATM    2  C   UNK N   1      24.293  16.376   4.070  0.00  0.00    -0.045 A 
HETATM    3  C   UNK N   1      22.976  16.146   3.652  0.00  0.00     0.032 A 
HETATM    4  C   UNK N   1      22.134  17.206   3.288  0.00  0.00     0.080 A 
HETATM    5  C   UNK N   1      22.630  18.527   3.332  0.00  0.00     0.081 A 
HETATM    6  C   UNK N   1      23.935  18.747   3.761  0.00  0.00     0.042 A 
HETATM    7  C   UNK N   1      24.781  17.705   4.143  0.00  0.00     0.040 A 
ENDROOT
BRANCH   7   8
HETATM    8  C   UNK N   1      26.144  18.073   4.620  0.00  0.00     0.270 C 
HETATM    9  O   UNK N   1      27.116  17.956   3.892  0.00  0.00    -0.267 OA
HETATM   10  N   UNK N   1      26.283  18.520   5.901  0.00  0.00    -0.156 N 
HETATM   11  C   UNK N   1      27.509  18.856   6.542  0.00  0.00     0.672 C 
HETATM   12  H   UNK N   1      25.460  18.621   6.432  0.00  0.00     0.187 HD
HETATM   13  N   UNK N   1      27.483  19.290   7.747  0.00  0.00    -0.235 N 
HETATM   14  N   UNK N   1      28.753  18.640   5.909  0.00  0.00    -0.235 N 
HETATM   15  H   UNK N   1      28.311  19.608   8.176  0.00  0.00     0.174 HD
ATOM     16  HN  UNK N   1      26.604  19.307   8.265  1.00  0.00     0.174 HD
HETATM   17  H   UNK N   1      28.799  18.225   5.018  0.00  0.00     0.174 HD
HETATM   18  H   UNK N   1      29.583  18.908   6.364  0.00  0.00     0.174 HD
ENDBRANCH   7   8
BRANCH   5  19
HETATM   19  S   UNK N   1      21.686  19.983   2.844  0.00  0.00     0.173 S 
HETATM   20  O   UNK N   1      22.659  21.157   3.031  0.00  0.00    -0.223 OA
HETATM   21  O   UNK N   1      20.773  20.297   4.040  0.00  0.00    -0.223 OA
HETATM   22  C   UNK N   1      20.710  20.409   1.375  0.00  0.00     0.167 C 
ENDBRANCH   5  19
BRANCH   4  23
HETATM   23  S   UNK N   1      20.446  16.821   2.801  0.00  0.00     0.173 S 
HETATM   24  O   UNK N   1      20.220  15.337   3.130  0.00  0.00    -0.223 OA
HETATM   25  O   UNK N   1      19.487  17.456   3.818  0.00  0.00    -0.223 OA
HETATM   26  C   UNK N   1      19.735  17.066   1.150  0.00  0.00     0.167 C 
ENDBRANCH   4  23
TORSDOF 3
ENDMDL
MODEL 8
REMARK VINA RESULT:      -5.9     10.855     12.385
REMARK  3 active torsions:
REMARK  status: ('A' for Active; 'I' for Inactive)
REMARK    1  A    between atoms: C_4  and  S_19 
REMARK    2  A    between atoms: C_5  and  S_15 
REMARK    3  A    between atoms: C_7  and  C_8 
REMARK       I    between atoms: C_8  and  N_10 
REMARK       I    between atoms: N_10  and  C_11 
REMARK       I    between atoms: C_11  and  N_14 
ROOT
HETATM    1  C   UNK N   1      32.675  25.388  -4.714  0.00  0.00     0.049 C 
HETATM    2  C   UNK N   1      31.194  25.319  -4.547  0.00  0.00    -0.045 A 
HETATM    3  C   UNK N   1      30.418  26.339  -5.113  0.00  0.00     0.032 A 
HETATM    4  C   UNK N   1      29.021  26.338  -4.994  0.00  0.00     0.080 A 
HETATM    5  C   UNK N   1      28.390  25.297  -4.278  0.00  0.00     0.081 A 
HETATM    6  C   UNK N   1      29.168  24.282  -3.731  0.00  0.00     0.042 A 
HETATM    7  C   UNK N   1      30.558  24.258  -3.855  0.00  0.00     0.040 A 
ENDROOT
BRANCH   7   8
HETATM    8  C   UNK N   1      31.276  23.096  -3.258  0.00  0.00     0.270 C 
HETATM    9  O   UNK N   1      31.231  22.881  -2.058  0.00  0.00    -0.267 OA
HETATM   10  N   UNK N   1      32.006  22.292  -4.082  0.00  0.00    -0.156 N 
HETATM   11  C   UNK N   1      32.801  21.182  -3.681  0.00  0.00     0.672 C 
HETATM   12  H   UNK N   1      31.981  22.498  -5.045  0.00  0.00     0.187 HD
HETATM   13  N   UNK N   1      33.414  20.498  -4.574  0.00  0.00    -0.235 N 
HETATM   14  N   UNK N   1      32.994  20.871  -2.317  0.00  0.00    -0.235 N 
HETATM   15  H   UNK N   1      33.897  19.677  -4.324  0.00  0.00     0.174 HD
ATOM     16  HN  UNK N   1      33.403  20.805  -5.548  1.00  0.00     0.174 HD
HETATM   17  H   UNK N   1      32.604  21.437  -1.611  0.00  0.00     0.174 HD
HETATM   18  H   UNK N   1      33.525  20.081  -2.068  0.00  0.00     0.174 HD
ENDBRANCH   7   8
BRANCH   5  19
HETATM   19  S   UNK N   1      26.613  25.191  -3.997  0.00  0.00     0.173 S 
HETATM   20  O   UNK N   1      26.328  26.244  -2.914  0.00  0.00    -0.223 OA
HETATM   21  O   UNK N   1      26.412  23.949  -3.115  0.00  0.00    -0.223 OA
HETATM   22  C   UNK N   1      25.166  25.239  -5.091  0.00  0.00     0.167 C 
ENDBRANCH   5  19
BRANCH   4  23
HETATM   23  S   UNK N   1      28.101  27.666  -5.784  0.00  0.00     0.173 S 
HETATM   24  O   UNK N   1      29.133  28.550  -6.502  0.00  0.00    -0.223 OA
HETATM   25  O   UNK N   1      27.366  27.091  -7.005  0.00  0.00    -0.223 OA
HETATM   26  C   UNK N   1      26.970  28.816  -4.954  0.00  0.00     0.167 C 
ENDBRANCH   4  23
TORSDOF 3
ENDMDL
MODEL 9
REMARK VINA RESULT:      -5.9     11.545     15.282
REMARK  3 active torsions:
REMARK  status: ('A' for Active; 'I' for Inactive)
REMARK    1  A    between atoms: C_4  and  S_19 
REMARK    2  A    between atoms: C_5  and  S_15 
REMARK    3  A    between atoms: C_7  and  C_8 
REMARK       I    between atoms: C_8  and  N_10 
REMARK       I    between atoms: N_10  and  C_11 
REMARK       I    between atoms: C_11  and  N_14 
ROOT
HETATM    1  C   UNK N   1      35.832  16.385  11.243  0.00  0.00     0.049 C 
HETATM    2  C   UNK N   1      35.494  15.022  11.744  0.00  0.00    -0.045 A 
HETATM    3  C   UNK N   1      36.078  14.597  12.945  0.00  0.00     0.032 A 
HETATM    4  C   UNK N   1      35.806  13.328  13.474  0.00  0.00     0.080 A 
HETATM    5  C   UNK N   1      34.939  12.459  12.775  0.00  0.00     0.081 A 
HETATM    6  C   UNK N   1      34.354  12.895  11.590  0.00  0.00     0.042 A 
HETATM    7  C   UNK N   1      34.601  14.162  11.058  0.00  0.00     0.040 A 
ENDROOT
BRANCH   7   8
HETATM    8  C   UNK N   1      33.884  14.525   9.803  0.00  0.00     0.270 C 
HETATM    9  O   UNK N   1      34.254  14.095   8.723  0.00  0.00    -0.267 OA
HETATM   10  N   UNK N   1      32.818  15.372   9.887  0.00  0.00    -0.156 N 
HETATM   11  C   UNK N   1      32.058  15.873   8.793  0.00  0.00     0.672 C 
HETATM   12  H   UNK N   1      32.549  15.663  10.788  0.00  0.00     0.187 HD
HETATM   13  N   UNK N   1      31.062  16.644   9.027  0.00  0.00    -0.235 N 
HETATM   14  N   UNK N   1      32.431  15.607   7.456  0.00  0.00    -0.235 N 
HETATM   15  H   UNK N   1      30.474  16.930   8.290  0.00  0.00     0.174 HD
ATOM     16  HN  UNK N   1      30.877  16.963   9.978  1.00  0.00     0.174 HD
HETATM   17  H   UNK N   1      33.244  15.090   7.253  0.00  0.00     0.174 HD
HETATM   18  H   UNK N   1      31.871  15.943   6.719  0.00  0.00     0.174 HD
ENDBRANCH   7   8
BRANCH   5  19
HETATM   19  S   UNK N   1      34.539  10.783  13.303  0.00  0.00     0.173 S 
HETATM   20  O   UNK N   1      33.755  10.183  12.125  0.00  0.00    -0.223 OA
HETATM   21  O   UNK N   1      33.352  10.932  14.268  0.00  0.00    -0.223 OA
HETATM   22  C   UNK N   1      35.522   9.409  13.964  0.00  0.00     0.167 C 
ENDBRANCH   5  19
BRANCH   4  23
HETATM   23  S   UNK N   1      36.569  12.880  15.041  0.00  0.00     0.173 S 
HETATM   24  O   UNK N   1      37.704  11.899  14.713  0.00  0.00    -0.223 OA
HETATM   25  O   UNK N   1      37.399  14.073  15.537  0.00  0.00    -0.223 OA
HETATM   26  C   UNK N   1      35.713  12.173  16.475  0.00  0.00     0.167 C 
ENDBRANCH   4  23
TORSDOF 3
ENDMDL
