MODEL 1
REMARK VINA RESULT:      -7.2      0.000      0.000
REMARK  9 active torsions:
REMARK  status: ('A' for Active; 'I' for Inactive)
REMARK    1  A    between atoms: C_2  and  C_3 
REMARK    2  A    between atoms: C_3  and  N_4 
REMARK    3  A    between atoms: N_9  and  C_12 
REMARK    4  A    between atoms: C_12  and  C_13 
REMARK    5  A    between atoms: C_16  and  C_19 
REMARK    6  A    between atoms: C_22  and  C_27 
REMARK    7  A    between atoms: C_27  and  C_28 
REMARK    8  A    between atoms: C_28  and  C_29 
REMARK    9  A    between atoms: C_29  and  O_31 
ROOT
HETATM    1  N   UNK N   1      22.777  18.150   4.364  0.00  0.00    -0.283 N 
HETATM    2  C   UNK N   1      23.241  16.977   4.858  0.00  0.00     0.145 A 
HETATM    3  C   UNK N   1      24.549  16.658   4.881  0.00  0.00     0.147 A 
HETATM    4  C   UNK N   1      25.497  17.537   4.389  0.00  0.00     0.282 A 
HETATM    5  O   UNK N   1      26.685  17.259   4.437  0.00  0.00    -0.265 OA
HETATM    6  N   UNK N   1      25.061  18.754   3.883  0.00  0.00    -0.264 N 
HETATM    7  C   UNK N   1      23.700  19.060   3.872  0.00  0.00     0.333 A 
HETATM    8  O   UNK N   1      23.320  20.142   3.452  0.00  0.00    -0.246 OA
HETATM    9  N   UNK N   1      24.717  15.478   5.504  0.00  0.00    -0.338 N 
HETATM   10  C   UNK N   1      23.449  15.098   5.826  0.00  0.00     0.092 A 
HETATM   11  N   UNK N   1      22.524  16.020   5.457  0.00  0.00    -0.329 N 
ATOM     12  HN  UNK N   1      21.514  15.990   5.602  1.00  0.00     0.168 HD
HETATM   13  H   UNK N   1      25.559  15.001   5.684  0.00  0.00     0.167 HD
ENDROOT
BRANCH  10  14
HETATM   14  C   UNK N   1      23.155  14.111   6.911  0.00  0.00     0.018 C 
HETATM   15  C   UNK N   1      22.165  14.680   7.946  0.00  0.00     0.018 C 
HETATM   16  C   UNK N   1      22.041  13.733   9.161  0.00  0.00     0.011 C 
HETATM   17  C   UNK N   1      22.892  12.458   8.956  0.00  0.00    -0.040 C 
HETATM   18  C   UNK N   1      22.439  11.784   7.640  0.00  0.00     0.011 C 
HETATM   19  C   UNK N   1      24.352  12.888   8.785  0.00  0.00     0.011 C 
HETATM   20  C   UNK N   1      22.610  12.751   6.429  0.00  0.00     0.018 C 
HETATM   21  C   UNK N   1      24.501  13.866   7.615  0.00  0.00     0.018 C 
BRANCH  17  22
HETATM   22  C   UNK N   1      22.866  11.485  10.142  0.00  0.00     0.020 C 
BRANCH  22  23
HETATM   23  C   UNK N   1      22.426  12.067  11.482  0.00  0.00     0.110 C 
BRANCH  23  24
HETATM   24  C   UNK N   1      23.515  12.007  12.493  0.00  0.00     0.139 C 
HETATM   25  O   UNK N   1      23.243  11.824  13.668  0.00  0.00    -0.650 OA
BRANCH  24  26
HETATM   26  O   UNK N   1      24.796  12.183  12.119  0.00  0.00    -0.776 OA
HETATM   27  H   UNK N   1      25.047  12.310  11.225  0.00  0.00     0.167 HD
ENDBRANCH  24  26
ENDBRANCH  23  24
ENDBRANCH  22  23
ENDBRANCH  17  22
ENDBRANCH  10  14
BRANCH   1  28
HETATM   28  C   UNK N   1      21.350  18.470   4.418  0.00  0.00     0.135 C 
BRANCH  28  29
HETATM   29  C   UNK N   1      20.644  18.011   3.154  0.00  0.00     0.016 C 
HETATM   30  C   UNK N   1      19.580  19.022   2.780  0.00  0.00     0.006 C 
ENDBRANCH  28  29
ENDBRANCH   1  28
BRANCH   6  31
HETATM   31  C   UNK N   1      26.024  19.757   3.420  0.00  0.00     0.137 C 
BRANCH  31  32
HETATM   32  C   UNK N   1      26.451  20.680   4.545  0.00  0.00     0.016 C 
HETATM   33  C   UNK N   1      27.874  20.342   4.939  0.00  0.00     0.006 C 
ENDBRANCH  31  32
ENDBRANCH   6  31
TORSDOF 9
ENDMDL
MODEL 2
REMARK VINA RESULT:      -7.1     10.018     14.152
REMARK  9 active torsions:
REMARK  status: ('A' for Active; 'I' for Inactive)
REMARK    1  A    between atoms: C_2  and  C_3 
REMARK    2  A    between atoms: C_3  and  N_4 
REMARK    3  A    between atoms: N_9  and  C_12 
REMARK    4  A    between atoms: C_12  and  C_13 
REMARK    5  A    between atoms: C_16  and  C_19 
REMARK    6  A    between atoms: C_22  and  C_27 
REMARK    7  A    between atoms: C_27  and  C_28 
REMARK    8  A    between atoms: C_28  and  C_29 
REMARK    9  A    between atoms: C_29  and  O_31 
ROOT
HETATM    1  N   UNK N   1      35.091  11.792  11.472  0.00  0.00    -0.283 N 
HETATM    2  C   UNK N   1      34.736  13.065  11.167  0.00  0.00     0.145 A 
HETATM    3  C   UNK N   1      35.083  14.123  11.923  0.00  0.00     0.147 A 
HETATM    4  C   UNK N   1      35.834  13.951  13.073  0.00  0.00     0.282 A 
HETATM    5  O   UNK N   1      36.172  14.915  13.742  0.00  0.00    -0.265 OA
HETATM    6  N   UNK N   1      36.225  12.664  13.413  0.00  0.00    -0.264 N 
HETATM    7  C   UNK N   1      35.854  11.585  12.610  0.00  0.00     0.333 A 
HETATM    8  O   UNK N   1      36.222  10.455  12.896  0.00  0.00    -0.246 OA
HETATM    9  N   UNK N   1      34.669  15.257  11.332  0.00  0.00    -0.338 N 
HETATM   10  C   UNK N   1      34.039  14.825  10.205  0.00  0.00     0.092 A 
HETATM   11  N   UNK N   1      34.089  13.474  10.071  0.00  0.00    -0.329 N 
ATOM     12  HN  UNK N   1      33.718  12.904   9.311  1.00  0.00     0.168 HD
HETATM   13  H   UNK N   1      34.793  16.183  11.642  0.00  0.00     0.167 HD
ENDROOT
BRANCH  10  14
HETATM   14  C   UNK N   1      33.824  15.704   9.014  0.00  0.00     0.018 C 
HETATM   15  C   UNK N   1      32.327  15.838   8.667  0.00  0.00     0.018 C 
HETATM   16  C   UNK N   1      32.143  16.571   7.319  0.00  0.00     0.011 C 
HETATM   17  C   UNK N   1      33.508  17.015   6.742  0.00  0.00    -0.040 C 
HETATM   18  C   UNK N   1      34.210  17.901   7.798  0.00  0.00     0.011 C 
HETATM   19  C   UNK N   1      34.363  15.763   6.536  0.00  0.00     0.011 C 
HETATM   20  C   UNK N   1      34.413  17.124   9.133  0.00  0.00     0.018 C 
HETATM   21  C   UNK N   1      34.527  14.989   7.847  0.00  0.00     0.018 C 
BRANCH  17  22
HETATM   22  C   UNK N   1      33.418  17.707   5.375  0.00  0.00     0.020 C 
BRANCH  22  23
HETATM   23  C   UNK N   1      32.163  17.423   4.556  0.00  0.00     0.110 C 
BRANCH  23  24
HETATM   24  C   UNK N   1      32.494  16.878   3.212  0.00  0.00     0.139 C 
HETATM   25  O   UNK N   1      33.422  16.097   3.085  0.00  0.00    -0.650 OA
BRANCH  24  26
HETATM   26  O   UNK N   1      31.789  17.266   2.133  0.00  0.00    -0.776 OA
HETATM   27  H   UNK N   1      31.534  16.670   1.456  0.00  0.00     0.167 HD
ENDBRANCH  24  26
ENDBRANCH  23  24
ENDBRANCH  22  23
ENDBRANCH  17  22
ENDBRANCH  10  14
BRANCH   1  28
HETATM   28  C   UNK N   1      34.738  10.686  10.582  0.00  0.00     0.135 C 
BRANCH  28  29
HETATM   29  C   UNK N   1      33.414  10.063  10.991  0.00  0.00     0.016 C 
HETATM   30  C   UNK N   1      32.484  10.035   9.796  0.00  0.00     0.006 C 
ENDBRANCH  28  29
ENDBRANCH   1  28
BRANCH   6  31
HETATM   31  C   UNK N   1      37.087  12.429  14.574  0.00  0.00     0.137 C 
BRANCH  31  32
HETATM   32  C   UNK N   1      36.281  12.317  15.853  0.00  0.00     0.016 C 
HETATM   33  C   UNK N   1      36.364  10.891  16.358  0.00  0.00     0.006 C 
ENDBRANCH  31  32
ENDBRANCH   6  31
TORSDOF 9
ENDMDL
MODEL 3
REMARK VINA RESULT:      -7.0     14.418     16.607
REMARK  9 active torsions:
REMARK  status: ('A' for Active; 'I' for Inactive)
REMARK    1  A    between atoms: C_2  and  C_3 
REMARK    2  A    between atoms: C_3  and  N_4 
REMARK    3  A    between atoms: N_9  and  C_12 
REMARK    4  A    between atoms: C_12  and  C_13 
REMARK    5  A    between atoms: C_16  and  C_19 
REMARK    6  A    between atoms: C_22  and  C_27 
REMARK    7  A    between atoms: C_27  and  C_28 
REMARK    8  A    between atoms: C_28  and  C_29 
REMARK    9  A    between atoms: C_29  and  O_31 
ROOT
HETATM    1  N   UNK N   1      31.285  20.703  -6.076  0.00  0.00    -0.283 N 
HETATM    2  C   UNK N   1      30.520  21.520  -5.312  0.00  0.00     0.145 A 
HETATM    3  C   UNK N   1      30.844  21.858  -4.050  0.00  0.00     0.147 A 
HETATM    4  C   UNK N   1      32.001  21.374  -3.466  0.00  0.00     0.282 A 
HETATM    5  O   UNK N   1      32.309  21.705  -2.332  0.00  0.00    -0.265 OA
HETATM    6  N   UNK N   1      32.816  20.542  -4.220  0.00  0.00    -0.264 N 
HETATM    7  C   UNK N   1      32.458  20.208  -5.527  0.00  0.00     0.333 A 
HETATM    8  O   UNK N   1      33.190  19.498  -6.199  0.00  0.00    -0.246 OA
HETATM    9  N   UNK N   1      29.951  22.744  -3.574  0.00  0.00    -0.338 N 
HETATM   10  C   UNK N   1      29.067  22.895  -4.600  0.00  0.00     0.092 A 
HETATM   11  N   UNK N   1      29.412  22.166  -5.692  0.00  0.00    -0.329 N 
ATOM     12  HN  UNK N   1      28.937  22.121  -6.593  1.00  0.00     0.168 HD
HETATM   13  H   UNK N   1      29.939  23.179  -2.692  0.00  0.00     0.167 HD
ENDROOT
BRANCH  10  14
HETATM   14  C   UNK N   1      28.181  24.094  -4.730  0.00  0.00     0.018 C 
HETATM   15  C   UNK N   1      27.318  24.030  -6.006  0.00  0.00     0.018 C 
HETATM   16  C   UNK N   1      26.574  25.365  -6.229  0.00  0.00     0.011 C 
HETATM   17  C   UNK N   1      26.856  26.353  -5.073  0.00  0.00    -0.040 C 
HETATM   18  C   UNK N   1      26.449  25.671  -3.747  0.00  0.00     0.011 C 
HETATM   19  C   UNK N   1      28.365  26.607  -5.027  0.00  0.00     0.011 C 
HETATM   20  C   UNK N   1      27.242  24.347  -3.533  0.00  0.00     0.018 C 
HETATM   21  C   UNK N   1      29.135  25.294  -4.852  0.00  0.00     0.018 C 
BRANCH  17  22
HETATM   22  C   UNK N   1      26.193  27.727  -5.243  0.00  0.00     0.020 C 
BRANCH  22  23
HETATM   23  C   UNK N   1      25.503  28.300  -4.010  0.00  0.00     0.110 C 
BRANCH  23  24
HETATM   24  C   UNK N   1      26.314  29.372  -3.372  0.00  0.00     0.139 C 
HETATM   25  O   UNK N   1      27.155  29.081  -2.538  0.00  0.00    -0.650 OA
BRANCH  24  26
HETATM   26  O   UNK N   1      26.103  30.662  -3.692  0.00  0.00    -0.776 OA
HETATM   27  H   UNK N   1      26.500  31.068  -4.438  0.00  0.00     0.167 HD
ENDBRANCH  24  26
ENDBRANCH  23  24
ENDBRANCH  22  23
ENDBRANCH  17  22
ENDBRANCH  10  14
BRANCH   1  28
HETATM   28  C   UNK N   1      30.915  20.415  -7.462  0.00  0.00     0.135 C 
BRANCH  28  29
HETATM   29  C   UNK N   1      29.956  19.239  -7.534  0.00  0.00     0.016 C 
HETATM   30  C   UNK N   1      28.636  19.705  -8.113  0.00  0.00     0.006 C 
ENDBRANCH  28  29
ENDBRANCH   1  28
BRANCH   6  31
HETATM   31  C   UNK N   1      34.093  20.063  -3.684  0.00  0.00     0.137 C 
BRANCH  31  32
HETATM   32  C   UNK N   1      35.206  21.066  -3.912  0.00  0.00     0.016 C 
HETATM   33  C   UNK N   1      36.281  20.417  -4.758  0.00  0.00     0.006 C 
ENDBRANCH  31  32
ENDBRANCH   6  31
TORSDOF 9
ENDMDL
MODEL 4
REMARK VINA RESULT:      -6.9     11.495     13.702
REMARK  9 active torsions:
REMARK  status: ('A' for Active; 'I' for Inactive)
REMARK    1  A    between atoms: C_2  and  C_3 
REMARK    2  A    between atoms: C_3  and  N_4 
REMARK    3  A    between atoms: N_9  and  C_12 
REMARK    4  A    between atoms: C_12  and  C_13 
REMARK    5  A    between atoms: C_16  and  C_19 
REMARK    6  A    between atoms: C_22  and  C_27 
REMARK    7  A    between atoms: C_27  and  C_28 
REMARK    8  A    between atoms: C_28  and  C_29 
REMARK    9  A    between atoms: C_29  and  O_31 
ROOT
HETATM    1  N   UNK N   1      34.976  13.393   9.417  0.00  0.00    -0.283 N 
HETATM    2  C   UNK N   1      35.389  13.569  10.697  0.00  0.00     0.145 A 
HETATM    3  C   UNK N   1      35.553  14.784  11.253  0.00  0.00     0.147 A 
HETATM    4  C   UNK N   1      35.301  15.933  10.523  0.00  0.00     0.282 A 
HETATM    5  O   UNK N   1      35.422  17.033  11.037  0.00  0.00    -0.265 OA
HETATM    6  N   UNK N   1      34.866  15.793   9.212  0.00  0.00    -0.264 N 
HETATM    7  C   UNK N   1      34.703  14.522   8.661  0.00  0.00     0.333 A 
HETATM    8  O   UNK N   1      34.294  14.400   7.516  0.00  0.00    -0.246 OA
HETATM    9  N   UNK N   1      35.883  14.649  12.549  0.00  0.00    -0.338 N 
HETATM   10  C   UNK N   1      35.934  13.300  12.731  0.00  0.00     0.092 A 
HETATM   11  N   UNK N   1      35.609  12.614  11.606  0.00  0.00    -0.329 N 
ATOM     12  HN  UNK N   1      35.548  11.603  11.482  1.00  0.00     0.168 HD
HETATM   13  H   UNK N   1      36.049  15.359  13.210  0.00  0.00     0.167 HD
ENDROOT
BRANCH  10  14
HETATM   14  C   UNK N   1      35.804  12.664  14.079  0.00  0.00     0.018 C 
HETATM   15  C   UNK N   1      37.005  11.751  14.397  0.00  0.00     0.018 C 
HETATM   16  C   UNK N   1      36.751  10.945  15.690  0.00  0.00     0.011 C 
HETATM   17  C   UNK N   1      35.397  11.337  16.327  0.00  0.00    -0.040 C 
HETATM   18  C   UNK N   1      35.409  12.862  16.581  0.00  0.00     0.011 C 
HETATM   19  C   UNK N   1      34.293  11.039  15.310  0.00  0.00     0.011 C 
HETATM   20  C   UNK N   1      35.632  13.648  15.254  0.00  0.00     0.018 C 
HETATM   21  C   UNK N   1      34.542  11.789  13.997  0.00  0.00     0.018 C 
BRANCH  17  22
HETATM   22  C   UNK N   1      35.044  10.543  17.592  0.00  0.00     0.020 C 
BRANCH  22  23
HETATM   23  C   UNK N   1      35.998  10.695  18.773  0.00  0.00     0.110 C 
BRANCH  23  24
HETATM   24  C   UNK N   1      35.340  11.357  19.932  0.00  0.00     0.139 C 
HETATM   25  O   UNK N   1      34.561  10.728  20.627  0.00  0.00    -0.650 OA
BRANCH  24  26
HETATM   26  O   UNK N   1      35.583  12.654  20.196  0.00  0.00    -0.776 OA
HETATM   27  H   UNK N   1      35.425  13.036  21.037  0.00  0.00     0.167 HD
ENDBRANCH  24  26
ENDBRANCH  23  24
ENDBRANCH  22  23
ENDBRANCH  17  22
ENDBRANCH  10  14
BRANCH   1  28
HETATM   28  C   UNK N   1      34.758  12.049   8.883  0.00  0.00     0.135 C 
BRANCH  28  29
HETATM   29  C   UNK N   1      33.311  11.623   9.060  0.00  0.00     0.016 C 
HETATM   30  C   UNK N   1      33.253  10.416   9.973  0.00  0.00     0.006 C 
ENDBRANCH  28  29
ENDBRANCH   1  28
BRANCH   6  31
HETATM   31  C   UNK N   1      34.508  16.970   8.416  0.00  0.00     0.137 C 
BRANCH  31  32
HETATM   32  C   UNK N   1      33.049  17.340   8.595  0.00  0.00     0.016 C 
HETATM   33  C   UNK N   1      32.366  17.295   7.244  0.00  0.00     0.006 C 
ENDBRANCH  31  32
ENDBRANCH   6  31
TORSDOF 9
ENDMDL
MODEL 5
REMARK VINA RESULT:      -6.8      8.352     10.335
REMARK  9 active torsions:
REMARK  status: ('A' for Active; 'I' for Inactive)
REMARK    1  A    between atoms: C_2  and  C_3 
REMARK    2  A    between atoms: C_3  and  N_4 
REMARK    3  A    between atoms: N_9  and  C_12 
REMARK    4  A    between atoms: C_12  and  C_13 
REMARK    5  A    between atoms: C_16  and  C_19 
REMARK    6  A    between atoms: C_22  and  C_27 
REMARK    7  A    between atoms: C_27  and  C_28 
REMARK    8  A    between atoms: C_28  and  C_29 
REMARK    9  A    between atoms: C_29  and  O_31 
ROOT
HETATM    1  N   UNK N   1      30.726  16.881   5.802  0.00  0.00    -0.283 N 
HETATM    2  C   UNK N   1      31.523  16.936   6.898  0.00  0.00     0.145 A 
HETATM    3  C   UNK N   1      31.160  17.555   8.036  0.00  0.00     0.147 A 
HETATM    4  C   UNK N   1      29.928  18.178   8.138  0.00  0.00     0.282 A 
HETATM    5  O   UNK N   1      29.589  18.714   9.181  0.00  0.00    -0.265 OA
HETATM    6  N   UNK N   1      29.081  18.135   7.040  0.00  0.00    -0.264 N 
HETATM    7  C   UNK N   1      29.481  17.485   5.872  0.00  0.00     0.333 A 
HETATM    8  O   UNK N   1      28.723  17.425   4.916  0.00  0.00    -0.246 OA
HETATM    9  N   UNK N   1      32.106  17.372   8.973  0.00  0.00    -0.338 N 
HETATM   10  C   UNK N   1      33.060  16.639   8.333  0.00  0.00     0.092 A 
HETATM   11  N   UNK N   1      32.709  16.338   7.056  0.00  0.00    -0.329 N 
ATOM     12  HN  UNK N   1      33.229  15.785   6.375  1.00  0.00     0.168 HD
HETATM   13  H   UNK N   1      32.110  17.693   9.904  0.00  0.00     0.167 HD
ENDROOT
BRANCH  10  14
HETATM   14  C   UNK N   1      34.065  15.808   9.065  0.00  0.00     0.018 C 
HETATM   15  C   UNK N   1      33.388  14.774   9.987  0.00  0.00     0.018 C 
HETATM   16  C   UNK N   1      34.433  14.077  10.886  0.00  0.00     0.011 C 
HETATM   17  C   UNK N   1      35.861  14.569  10.555  0.00  0.00    -0.040 C 
HETATM   18  C   UNK N   1      36.121  14.315   9.051  0.00  0.00     0.011 C 
HETATM   19  C   UNK N   1      35.906  16.081  10.790  0.00  0.00     0.011 C 
HETATM   20  C   UNK N   1      35.073  15.059   8.170  0.00  0.00     0.018 C 
HETATM   21  C   UNK N   1      34.848  16.798   9.945  0.00  0.00     0.018 C 
BRANCH  17  22
HETATM   22  C   UNK N   1      36.958  13.962  11.441  0.00  0.00     0.020 C 
BRANCH  22  23
HETATM   23  C   UNK N   1      36.489  13.018  12.543  0.00  0.00     0.110 C 
BRANCH  23  24
HETATM   24  C   UNK N   1      36.412  13.703  13.861  0.00  0.00     0.139 C 
HETATM   25  O   UNK N   1      35.921  13.127  14.817  0.00  0.00    -0.650 OA
BRANCH  24  26
HETATM   26  O   UNK N   1      36.858  14.966  13.993  0.00  0.00    -0.776 OA
HETATM   27  H   UNK N   1      36.308  15.668  14.282  0.00  0.00     0.167 HD
ENDBRANCH  24  26
ENDBRANCH  23  24
ENDBRANCH  22  23
ENDBRANCH  17  22
ENDBRANCH  10  14
BRANCH   1  28
HETATM   28  C   UNK N   1      31.147  16.144   4.610  0.00  0.00     0.135 C 
BRANCH  28  29
HETATM   29  C   UNK N   1      31.852  17.060   3.625  0.00  0.00     0.016 C 
HETATM   30  C   UNK N   1      33.202  16.472   3.273  0.00  0.00     0.006 C 
ENDBRANCH  28  29
ENDBRANCH   1  28
BRANCH   6  31
HETATM   31  C   UNK N   1      27.734  18.708   7.115  0.00  0.00     0.137 C 
BRANCH  31  32
HETATM   32  C   UNK N   1      27.732  20.177   6.740  0.00  0.00     0.016 C 
HETATM   33  C   UNK N   1      26.866  20.365   5.512  0.00  0.00     0.006 C 
ENDBRANCH  31  32
ENDBRANCH   6  31
TORSDOF 9
ENDMDL
MODEL 6
REMARK VINA RESULT:      -6.6      5.644      8.449
REMARK  9 active torsions:
REMARK  status: ('A' for Active; 'I' for Inactive)
REMARK    1  A    between atoms: C_2  and  C_3 
REMARK    2  A    between atoms: C_3  and  N_4 
REMARK    3  A    between atoms: N_9  and  C_12 
REMARK    4  A    between atoms: C_12  and  C_13 
REMARK    5  A    between atoms: C_16  and  C_19 
REMARK    6  A    between atoms: C_22  and  C_27 
REMARK    7  A    between atoms: C_27  and  C_28 
REMARK    8  A    between atoms: C_28  and  C_29 
REMARK    9  A    between atoms: C_29  and  O_31 
ROOT
HETATM    1  N   UNK N   1      27.050  18.463   4.506  0.00  0.00    -0.283 N 
HETATM    2  C   UNK N   1      27.907  17.712   5.241  0.00  0.00     0.145 A 
HETATM    3  C   UNK N   1      27.831  16.370   5.309  0.00  0.00     0.147 A 
HETATM    4  C   UNK N   1      26.850  15.683   4.614  0.00  0.00     0.282 A 
HETATM    5  O   UNK N   1      26.800  14.464   4.653  0.00  0.00    -0.265 OA
HETATM    6  N   UNK N   1      25.961  16.417   3.842  0.00  0.00    -0.264 N 
HETATM    7  C   UNK N   1      26.063  17.807   3.787  0.00  0.00     0.333 A 
HETATM    8  O   UNK N   1      25.296  18.450   3.086  0.00  0.00    -0.246 OA
HETATM    9  N   UNK N   1      28.856  15.893   6.036  0.00  0.00    -0.338 N 
HETATM   10  C   UNK N   1      29.529  17.014   6.420  0.00  0.00     0.092 A 
HETATM   11  N   UNK N   1      28.973  18.147   5.920  0.00  0.00    -0.329 N 
ATOM     12  HN  UNK N   1      29.294  19.109   6.036  1.00  0.00     0.168 HD
HETATM   13  H   UNK N   1      29.069  14.955   6.244  0.00  0.00     0.167 HD
ENDROOT
BRANCH  10  14
HETATM   14  C   UNK N   1      30.964  16.987   6.840  0.00  0.00     0.018 C 
HETATM   15  C   UNK N   1      31.904  17.396   5.688  0.00  0.00     0.018 C 
HETATM   16  C   UNK N   1      33.380  17.158   6.077  0.00  0.00     0.011 C 
HETATM   17  C   UNK N   1      33.491  16.643   7.531  0.00  0.00    -0.040 C 
HETATM   18  C   UNK N   1      32.800  17.670   8.459  0.00  0.00     0.011 C 
HETATM   19  C   UNK N   1      32.716  15.328   7.626  0.00  0.00     0.011 C 
HETATM   20  C   UNK N   1      31.305  17.861   8.064  0.00  0.00     0.018 C 
HETATM   21  C   UNK N   1      31.256  15.521   7.202  0.00  0.00     0.018 C 
BRANCH  17  22
HETATM   22  C   UNK N   1      34.926  16.332   7.981  0.00  0.00     0.020 C 
BRANCH  22  23
HETATM   23  C   UNK N   1      35.068  15.444   9.213  0.00  0.00     0.110 C 
BRANCH  23  24
HETATM   24  C   UNK N   1      35.680  16.177  10.354  0.00  0.00     0.139 C 
HETATM   25  O   UNK N   1      36.842  15.968  10.656  0.00  0.00    -0.650 OA
BRANCH  24  26
HETATM   26  O   UNK N   1      34.945  17.049  11.069  0.00  0.00    -0.776 OA
HETATM   27  H   UNK N   1      34.174  16.795  11.537  0.00  0.00     0.167 HD
ENDBRANCH  24  26
ENDBRANCH  23  24
ENDBRANCH  22  23
ENDBRANCH  17  22
ENDBRANCH  10  14
BRANCH   1  28
HETATM   28  C   UNK N   1      27.216  19.914   4.421  0.00  0.00     0.135 C 
BRANCH  28  29
HETATM   29  C   UNK N   1      26.416  20.616   5.505  0.00  0.00     0.016 C 
HETATM   30  C   UNK N   1      27.335  21.522   6.297  0.00  0.00     0.006 C 
ENDBRANCH  28  29
ENDBRANCH   1  28
BRANCH   6  31
HETATM   31  C   UNK N   1      24.951  15.741   3.022  0.00  0.00     0.137 C 
BRANCH  31  32
HETATM   32  C   UNK N   1      23.732  15.362   3.840  0.00  0.00     0.016 C 
HETATM   33  C   UNK N   1      22.589  16.281   3.462  0.00  0.00     0.006 C 
ENDBRANCH  31  32
ENDBRANCH   6  31
TORSDOF 9
ENDMDL
MODEL 7
REMARK VINA RESULT:      -6.6      3.876      7.458
REMARK  9 active torsions:
REMARK  status: ('A' for Active; 'I' for Inactive)
REMARK    1  A    between atoms: C_2  and  C_3 
REMARK    2  A    between atoms: C_3  and  N_4 
REMARK    3  A    between atoms: N_9  and  C_12 
REMARK    4  A    between atoms: C_12  and  C_13 
REMARK    5  A    between atoms: C_16  and  C_19 
REMARK    6  A    between atoms: C_22  and  C_27 
REMARK    7  A    between atoms: C_27  and  C_28 
REMARK    8  A    between atoms: C_28  and  C_29 
REMARK    9  A    between atoms: C_29  and  O_31 
ROOT
HETATM    1  N   UNK N   1      23.582  16.288   5.650  0.00  0.00    -0.283 N 
HETATM    2  C   UNK N   1      24.815  16.751   5.329  0.00  0.00     0.145 A 
HETATM    3  C   UNK N   1      25.014  17.901   4.659  0.00  0.00     0.147 A 
HETATM    4  C   UNK N   1      23.941  18.679   4.261  0.00  0.00     0.282 A 
HETATM    5  O   UNK N   1      24.123  19.737   3.679  0.00  0.00    -0.265 OA
HETATM    6  N   UNK N   1      22.663  18.244   4.581  0.00  0.00    -0.264 N 
HETATM    7  C   UNK N   1      22.485  17.048   5.277  0.00  0.00     0.333 A 
HETATM    8  O   UNK N   1      21.360  16.680   5.582  0.00  0.00    -0.246 OA
HETATM    9  N   UNK N   1      26.332  18.147   4.560  0.00  0.00    -0.338 N 
HETATM   10  C   UNK N   1      26.908  17.078   5.177  0.00  0.00     0.092 A 
HETATM   11  N   UNK N   1      25.988  16.214   5.680  0.00  0.00    -0.329 N 
ATOM     12  HN  UNK N   1      26.154  15.355   6.204  1.00  0.00     0.168 HD
HETATM   13  H   UNK N   1      26.776  18.918   4.139  0.00  0.00     0.167 HD
ENDROOT
BRANCH  10  14
HETATM   14  C   UNK N   1      28.300  17.116   5.723  0.00  0.00     0.018 C 
HETATM   15  C   UNK N   1      29.246  17.930   4.818  0.00  0.00     0.018 C 
HETATM   16  C   UNK N   1      30.711  17.780   5.284  0.00  0.00     0.011 C 
HETATM   17  C   UNK N   1      30.797  16.914   6.562  0.00  0.00    -0.040 C 
HETATM   18  C   UNK N   1      29.903  17.562   7.644  0.00  0.00     0.011 C 
HETATM   19  C   UNK N   1      30.217  15.535   6.238  0.00  0.00     0.011 C 
HETATM   20  C   UNK N   1      28.426  17.667   7.158  0.00  0.00     0.018 C 
HETATM   21  C   UNK N   1      28.777  15.654   5.728  0.00  0.00     0.018 C 
BRANCH  17  22
HETATM   22  C   UNK N   1      32.227  16.672   7.064  0.00  0.00     0.020 C 
BRANCH  22  23
HETATM   23  C   UNK N   1      32.799  17.727   8.006  0.00  0.00     0.110 C 
BRANCH  23  24
HETATM   24  C   UNK N   1      34.120  18.227   7.539  0.00  0.00     0.139 C 
HETATM   25  O   UNK N   1      34.562  17.857   6.465  0.00  0.00    -0.650 OA
BRANCH  24  26
HETATM   26  O   UNK N   1      34.838  19.063   8.311  0.00  0.00    -0.776 OA
HETATM   27  H   UNK N   1      34.488  19.461   9.085  0.00  0.00     0.167 HD
ENDBRANCH  24  26
ENDBRANCH  23  24
ENDBRANCH  22  23
ENDBRANCH  17  22
ENDBRANCH  10  14
BRANCH   1  28
HETATM   28  C   UNK N   1      23.427  15.061   6.431  0.00  0.00     0.135 C 
BRANCH  28  29
HETATM   29  C   UNK N   1      23.318  13.849   5.522  0.00  0.00     0.016 C 
HETATM   30  C   UNK N   1      21.976  13.182   5.736  0.00  0.00     0.006 C 
ENDBRANCH  28  29
ENDBRANCH   1  28
BRANCH   6  31
HETATM   31  C   UNK N   1      21.492  19.063   4.256  0.00  0.00     0.137 C 
BRANCH  31  32
HETATM   32  C   UNK N   1      20.996  18.793   2.849  0.00  0.00     0.016 C 
HETATM   33  C   UNK N   1      20.769  20.117   2.150  0.00  0.00     0.006 C 
ENDBRANCH  31  32
ENDBRANCH   6  31
TORSDOF 9
ENDMDL
MODEL 8
REMARK VINA RESULT:      -6.5      4.946      7.860
REMARK  9 active torsions:
REMARK  status: ('A' for Active; 'I' for Inactive)
REMARK    1  A    between atoms: C_2  and  C_3 
REMARK    2  A    between atoms: C_3  and  N_4 
REMARK    3  A    between atoms: N_9  and  C_12 
REMARK    4  A    between atoms: C_12  and  C_13 
REMARK    5  A    between atoms: C_16  and  C_19 
REMARK    6  A    between atoms: C_22  and  C_27 
REMARK    7  A    between atoms: C_27  and  C_28 
REMARK    8  A    between atoms: C_28  and  C_29 
REMARK    9  A    between atoms: C_29  and  O_31 
ROOT
HETATM    1  N   UNK N   1      24.678  17.057   4.379  0.00  0.00    -0.283 N 
HETATM    2  C   UNK N   1      25.837  16.439   4.717  0.00  0.00     0.145 A 
HETATM    3  C   UNK N   1      26.117  15.169   4.373  0.00  0.00     0.147 A 
HETATM    4  C   UNK N   1      25.211  14.421   3.641  0.00  0.00     0.282 A 
HETATM    5  O   UNK N   1      25.478  13.278   3.304  0.00  0.00    -0.265 OA
HETATM    6  N   UNK N   1      24.017  15.022   3.267  0.00  0.00    -0.264 N 
HETATM    7  C   UNK N   1      23.752  16.341   3.636  0.00  0.00     0.333 A 
HETATM    8  O   UNK N   1      22.713  16.878   3.283  0.00  0.00    -0.246 OA
HETATM    9  N   UNK N   1      27.364  14.856   4.766  0.00  0.00    -0.338 N 
HETATM   10  C   UNK N   1      27.802  15.989   5.383  0.00  0.00     0.092 A 
HETATM   11  N   UNK N   1      26.883  16.988   5.344  0.00  0.00    -0.329 N 
ATOM     12  HN  UNK N   1      26.970  17.936   5.708  1.00  0.00     0.168 HD
HETATM   13  H   UNK N   1      27.846  14.008   4.639  0.00  0.00     0.167 HD
ENDROOT
BRANCH  10  14
HETATM   14  C   UNK N   1      29.254  16.293   5.572  0.00  0.00     0.018 C 
HETATM   15  C   UNK N   1      30.097  15.007   5.684  0.00  0.00     0.018 C 
HETATM   16  C   UNK N   1      31.551  15.340   6.089  0.00  0.00     0.011 C 
HETATM   17  C   UNK N   1      31.756  16.869   6.196  0.00  0.00    -0.040 C 
HETATM   18  C   UNK N   1      31.366  17.503   4.841  0.00  0.00     0.011 C 
HETATM   19  C   UNK N   1      30.792  17.401   7.259  0.00  0.00     0.011 C 
HETATM   20  C   UNK N   1      29.885  17.180   4.479  0.00  0.00     0.018 C 
HETATM   21  C   UNK N   1      29.343  17.046   6.910  0.00  0.00     0.018 C 
BRANCH  17  22
HETATM   22  C   UNK N   1      33.164  17.285   6.645  0.00  0.00     0.020 C 
BRANCH  22  23
HETATM   23  C   UNK N   1      33.247  18.124   7.915  0.00  0.00     0.110 C 
BRANCH  23  24
HETATM   24  C   UNK N   1      34.632  18.170   8.457  0.00  0.00     0.139 C 
HETATM   25  O   UNK N   1      35.289  19.192   8.358  0.00  0.00    -0.650 OA
BRANCH  24  26
HETATM   26  O   UNK N   1      35.169  17.078   9.032  0.00  0.00    -0.776 OA
HETATM   27  H   UNK N   1      35.898  16.619   8.660  0.00  0.00     0.167 HD
ENDBRANCH  24  26
ENDBRANCH  23  24
ENDBRANCH  22  23
ENDBRANCH  17  22
ENDBRANCH  10  14
BRANCH   1  28
HETATM   28  C   UNK N   1      24.451  18.459   4.729  0.00  0.00     0.135 C 
BRANCH  28  29
HETATM   29  C   UNK N   1      25.079  19.384   3.701  0.00  0.00     0.016 C 
HETATM   30  C   UNK N   1      24.016  20.309   3.145  0.00  0.00     0.006 C 
ENDBRANCH  28  29
ENDBRANCH   1  28
BRANCH   6  31
HETATM   31  C   UNK N   1      23.054  14.307   2.425  0.00  0.00     0.137 C 
BRANCH  31  32
HETATM   32  C   UNK N   1      23.373  14.470   0.952  0.00  0.00     0.016 C 
HETATM   33  C   UNK N   1      23.522  13.097   0.332  0.00  0.00     0.006 C 
ENDBRANCH  31  32
ENDBRANCH   6  31
TORSDOF 9
ENDMDL
MODEL 9
REMARK VINA RESULT:      -6.4      5.431      8.024
REMARK  9 active torsions:
REMARK  status: ('A' for Active; 'I' for Inactive)
REMARK    1  A    between atoms: C_2  and  C_3 
REMARK    2  A    between atoms: C_3  and  N_4 
REMARK    3  A    between atoms: N_9  and  C_12 
REMARK    4  A    between atoms: C_12  and  C_13 
REMARK    5  A    between atoms: C_16  and  C_19 
REMARK    6  A    between atoms: C_22  and  C_27 
REMARK    7  A    between atoms: C_27  and  C_28 
REMARK    8  A    between atoms: C_28  and  C_29 
REMARK    9  A    between atoms: C_29  and  O_31 
ROOT
HETATM    1  N   UNK N   1      26.703  16.681   3.890  0.00  0.00    -0.283 N 
HETATM    2  C   UNK N   1      27.948  17.135   4.175  0.00  0.00     0.145 A 
HETATM    3  C   UNK N   1      28.214  18.428   4.440  0.00  0.00     0.147 A 
HETATM    4  C   UNK N   1      27.201  19.371   4.433  0.00  0.00     0.282 A 
HETATM    5  O   UNK N   1      27.437  20.538   4.702  0.00  0.00    -0.265 OA
HETATM    6  N   UNK N   1      25.910  18.943   4.154  0.00  0.00    -0.264 N 
HETATM    7  C   UNK N   1      25.662  17.596   3.884  0.00  0.00     0.333 A 
HETATM    8  O   UNK N   1      24.522  17.217   3.667  0.00  0.00    -0.246 OA
HETATM    9  N   UNK N   1      29.509  18.567   4.771  0.00  0.00    -0.338 N 
HETATM   10  C   UNK N   1      30.008  17.304   4.664  0.00  0.00     0.092 A 
HETATM   11  N   UNK N   1      29.055  16.399   4.319  0.00  0.00    -0.329 N 
ATOM     12  HN  UNK N   1      29.160  15.392   4.199  1.00  0.00     0.168 HD
HETATM   13  H   UNK N   1      29.986  19.389   5.029  0.00  0.00     0.167 HD
ENDROOT
BRANCH  10  14
HETATM   14  C   UNK N   1      31.258  16.869   5.361  0.00  0.00     0.018 C 
HETATM   15  C   UNK N   1      31.348  15.334   5.468  0.00  0.00     0.018 C 
HETATM   16  C   UNK N   1      32.530  14.917   6.371  0.00  0.00     0.011 C 
HETATM   17  C   UNK N   1      33.321  16.157   6.851  0.00  0.00    -0.040 C 
HETATM   18  C   UNK N   1      33.786  16.943   5.603  0.00  0.00     0.011 C 
HETATM   19  C   UNK N   1      32.362  17.053   7.639  0.00  0.00     0.011 C 
HETATM   20  C   UNK N   1      32.570  17.379   4.732  0.00  0.00     0.018 C 
HETATM   21  C   UNK N   1      31.153  17.446   6.784  0.00  0.00     0.018 C 
BRANCH  17  22
HETATM   22  C   UNK N   1      34.485  15.834   7.797  0.00  0.00     0.020 C 
BRANCH  22  23
HETATM   23  C   UNK N   1      34.198  14.816   8.897  0.00  0.00     0.110 C 
BRANCH  23  24
HETATM   24  C   UNK N   1      34.312  15.420  10.251  0.00  0.00     0.139 C 
HETATM   25  O   UNK N   1      34.940  16.454  10.403  0.00  0.00    -0.650 OA
BRANCH  24  26
HETATM   26  O   UNK N   1      33.747  14.814  11.311  0.00  0.00    -0.776 OA
HETATM   27  H   UNK N   1      33.200  15.270  11.921  0.00  0.00     0.167 HD
ENDBRANCH  24  26
ENDBRANCH  23  24
ENDBRANCH  22  23
ENDBRANCH  17  22
ENDBRANCH  10  14
BRANCH   1  28
HETATM   28  C   UNK N   1      26.463  15.256   3.667  0.00  0.00     0.135 C 
BRANCH  28  29
HETATM   29  C   UNK N   1      26.593  14.907   2.194  0.00  0.00     0.016 C 
HETATM   30  C   UNK N   1      25.242  14.483   1.658  0.00  0.00     0.006 C 
ENDBRANCH  28  29
ENDBRANCH   1  28
BRANCH   6  31
HETATM   31  C   UNK N   1      24.785  19.880   4.209  0.00  0.00     0.137 C 
BRANCH  31  32
HETATM   32  C   UNK N   1      24.465  20.447   2.841  0.00  0.00     0.016 C 
HETATM   33  C   UNK N   1      22.961  20.498   2.674  0.00  0.00     0.006 C 
ENDBRANCH  31  32
ENDBRANCH   6  31
TORSDOF 9
ENDMDL
