MODEL 1
REMARK VINA RESULT:      -7.9      0.000      0.000
REMARK  6 active torsions:
REMARK  status: ('A' for Active; 'I' for Inactive)
REMARK    1  A    between atoms: C_2  and  N_3 
REMARK    2  A    between atoms: C_4  and  C_27 
REMARK    3  A    between atoms: C_10  and  N_18 
REMARK    4  A    between atoms: N_18  and  C_19 
REMARK       I    between atoms: C_27  and  N_29 
REMARK    5  A    between atoms: N_29  and  C_30 
REMARK    6  A    between atoms: N_29  and  C_33 
ROOT
HETATM    1  N   UNK N   1      29.293  17.671   7.625  0.00  0.00    -0.328 N 
HETATM    2  C   UNK N   1      28.809  17.436   6.367  0.00  0.00     0.105 A 
HETATM    3  C   UNK N   1      29.842  17.007   5.532  0.00  0.00     0.053 A 
HETATM    4  C   UNK N   1      30.960  17.004   6.311  0.00  0.00     0.040 A 
HETATM    5  C   UNK N   1      30.616  17.415   7.568  0.00  0.00     0.122 A 
HETATM    6  N   UNK N   1      31.539  17.534   8.578  0.00  0.00    -0.326 N 
ATOM      7  HN  UNK N   1      31.250  17.835   9.510  1.00  0.00     0.169 HD
HETATM    8  C   UNK N   1      32.864  17.239   8.316  0.00  0.00     0.138 A 
HETATM    9  C   UNK N   1      33.201  16.773   7.016  0.00  0.00     0.106 A 
HETATM   10  C   UNK N   1      32.264  16.668   6.044  0.00  0.00     0.080 A 
HETATM   11  N   UNK N   1      32.838  16.215   4.923  0.00  0.00    -0.345 N 
HETATM   12  C   UNK N   1      34.142  16.035   5.232  0.00  0.00     0.183 A 
HETATM   13  N   UNK N   1      34.392  16.370   6.526  0.00  0.00    -0.347 N 
ATOM     14  HN  UNK N   1      35.284  16.327   7.017  1.00  0.00     0.167 HD
HETATM   15  C   UNK N   1      32.211  15.955   3.639  0.00  0.00     0.157 C 
ENDROOT
BRANCH   8  16
HETATM   16  N   UNK N   1      33.846  17.389   9.336  0.00  0.00    -0.326 N 
HETATM   17  H   UNK N   1      34.220  18.283   9.506  0.00  0.00     0.169 HD
BRANCH  16  18
HETATM   18  C   UNK N   1      34.305  16.294  10.118  0.00  0.00     0.123 A 
HETATM   19  C   UNK N   1      34.087  14.955   9.836  0.00  0.00     0.076 A 
HETATM   20  C   UNK N   1      34.775  14.302  10.845  0.00  0.00     0.028 A 
HETATM   21  N   UNK N   1      35.337  15.209  11.664  0.00  0.00    -0.299 N 
HETATM   22  C   UNK N   1      34.900  12.825  11.000  0.00  0.00     0.070 C 
HETATM   23  N   UNK N   1      35.052  16.422  11.234  0.00  0.00    -0.283 N 
HETATM   24  C   UNK N   1      36.156  14.943  12.835  0.00  0.00     0.177 C 
ATOM     25  HN  UNK N   1      35.344  17.299  11.667  1.00  0.00     0.188 HD
ENDBRANCH  16  18
ENDBRANCH   8  16
BRANCH   1  26
HETATM   26  C   UNK N   1      28.543  18.109   8.798  0.00  0.00     0.126 C 
HETATM   27  C   UNK N   1      27.880  16.932   9.487  0.00  0.00     0.027 C 
ENDBRANCH   1  26
BRANCH   2  28
HETATM   28  C   UNK N   1      27.379  17.597   5.935  0.00  0.00     0.271 C 
HETATM   29  O   UNK N   1      26.617  16.655   6.107  0.00  0.00    -0.266 OA
HETATM   30  N   UNK N   1      26.901  18.762   5.360  0.00  0.00    -0.337 N 
BRANCH  30  31
HETATM   31  C   UNK N   1      25.490  18.839   4.955  0.00  0.00     0.088 A 
HETATM   32  C   UNK N   1      25.329  19.172   3.473  0.00  0.00     0.027 A 
HETATM   33  C   UNK N   1      25.158  17.753   3.933  0.00  0.00     0.027 A 
ENDBRANCH  30  31
BRANCH  30  34
HETATM   34  C   UNK N   1      27.764  19.951   5.308  0.00  0.00     0.088 A 
HETATM   35  C   UNK N   1      26.952  21.231   5.322  0.00  0.00     0.027 A 
HETATM   36  C   UNK N   1      27.750  20.830   6.548  0.00  0.00     0.027 A 
ENDBRANCH  30  34
ENDBRANCH   2  28
TORSDOF 6
ENDMDL
MODEL 2
REMARK VINA RESULT:      -7.2      3.698      6.229
REMARK  6 active torsions:
REMARK  status: ('A' for Active; 'I' for Inactive)
REMARK    1  A    between atoms: C_2  and  N_3 
REMARK    2  A    between atoms: C_4  and  C_27 
REMARK    3  A    between atoms: C_10  and  N_18 
REMARK    4  A    between atoms: N_18  and  C_19 
REMARK       I    between atoms: C_27  and  N_29 
REMARK    5  A    between atoms: N_29  and  C_30 
REMARK    6  A    between atoms: N_29  and  C_33 
ROOT
HETATM    1  N   UNK N   1      34.233  16.015   8.606  0.00  0.00    -0.328 N 
HETATM    2  C   UNK N   1      34.632  15.740   7.326  0.00  0.00     0.105 A 
HETATM    3  C   UNK N   1      35.771  14.934   7.345  0.00  0.00     0.053 A 
HETATM    4  C   UNK N   1      36.058  14.742   8.663  0.00  0.00     0.040 A 
HETATM    5  C   UNK N   1      35.127  15.407   9.411  0.00  0.00     0.122 A 
HETATM    6  N   UNK N   1      35.163  15.418  10.785  0.00  0.00    -0.326 N 
ATOM      7  HN  UNK N   1      34.450  15.916  11.317  1.00  0.00     0.169 HD
HETATM    8  C   UNK N   1      36.180  14.743  11.435  0.00  0.00     0.138 A 
HETATM    9  C   UNK N   1      37.116  14.022  10.646  0.00  0.00     0.106 A 
HETATM   10  C   UNK N   1      37.050  14.033   9.294  0.00  0.00     0.080 A 
HETATM   11  N   UNK N   1      38.042  13.287   8.795  0.00  0.00    -0.345 N 
HETATM   12  C   UNK N   1      38.710  12.809   9.870  0.00  0.00     0.183 A 
HETATM   13  N   UNK N   1      38.154  13.248  11.030  0.00  0.00    -0.347 N 
ATOM     14  HN  UNK N   1      38.453  13.038  11.981  1.00  0.00     0.167 HD
HETATM   15  C   UNK N   1      38.350  13.023   7.401  0.00  0.00     0.157 C 
ENDROOT
BRANCH   8  16
HETATM   16  N   UNK N   1      36.260  14.769  12.857  0.00  0.00    -0.326 N 
HETATM   17  H   UNK N   1      36.740  15.511  13.291  0.00  0.00     0.169 HD
BRANCH  16  18
HETATM   18  C   UNK N   1      35.673  13.762  13.671  0.00  0.00     0.123 A 
HETATM   19  C   UNK N   1      34.887  12.716  13.217  0.00  0.00     0.076 A 
HETATM   20  C   UNK N   1      34.620  11.996  14.370  0.00  0.00     0.028 A 
HETATM   21  N   UNK N   1      35.201  12.602  15.421  0.00  0.00    -0.299 N 
HETATM   22  C   UNK N   1      33.831  10.735  14.446  0.00  0.00     0.070 C 
HETATM   23  N   UNK N   1      35.838  13.679  15.007  0.00  0.00    -0.283 N 
HETATM   24  C   UNK N   1      35.178  12.164  16.806  0.00  0.00     0.177 C 
ATOM     25  HN  UNK N   1      36.362  14.331  15.592  1.00  0.00     0.188 HD
ENDBRANCH  16  18
ENDBRANCH   8  16
BRANCH   1  26
HETATM   26  C   UNK N   1      33.079  16.803   9.026  0.00  0.00     0.126 C 
HETATM   27  C   UNK N   1      31.813  15.968   8.993  0.00  0.00     0.027 C 
ENDBRANCH   1  26
BRANCH   2  28
HETATM   28  C   UNK N   1      33.949  16.215   6.074  0.00  0.00     0.271 C 
HETATM   29  O   UNK N   1      34.328  17.267   5.577  0.00  0.00    -0.266 OA
HETATM   30  N   UNK N   1      32.923  15.508   5.471  0.00  0.00    -0.337 N 
BRANCH  30  31
HETATM   31  C   UNK N   1      32.300  16.044   4.252  0.00  0.00     0.088 A 
HETATM   32  C   UNK N   1      30.845  16.453   4.476  0.00  0.00     0.027 A 
HETATM   33  C   UNK N   1      31.911  17.509   4.439  0.00  0.00     0.027 A 
ENDBRANCH  30  31
BRANCH  30  34
HETATM   34  C   UNK N   1      32.581  14.166   5.963  0.00  0.00     0.088 A 
HETATM   35  C   UNK N   1      31.930  13.325   4.883  0.00  0.00     0.027 A 
HETATM   36  C   UNK N   1      33.347  13.017   5.327  0.00  0.00     0.027 A 
ENDBRANCH  30  34
ENDBRANCH   2  28
TORSDOF 6
ENDMDL
MODEL 3
REMARK VINA RESULT:      -7.0      9.416     12.935
REMARK  6 active torsions:
REMARK  status: ('A' for Active; 'I' for Inactive)
REMARK    1  A    between atoms: C_2  and  N_3 
REMARK    2  A    between atoms: C_4  and  C_27 
REMARK    3  A    between atoms: C_10  and  N_18 
REMARK    4  A    between atoms: N_18  and  C_19 
REMARK       I    between atoms: C_27  and  N_29 
REMARK    5  A    between atoms: N_29  and  C_30 
REMARK    6  A    between atoms: N_29  and  C_33 
ROOT
HETATM    1  N   UNK N   1      20.650  14.825   7.280  0.00  0.00    -0.328 N 
HETATM    2  C   UNK N   1      20.877  13.483   7.416  0.00  0.00     0.105 A 
HETATM    3  C   UNK N   1      20.627  12.833   6.207  0.00  0.00     0.053 A 
HETATM    4  C   UNK N   1      20.230  13.811   5.345  0.00  0.00     0.040 A 
HETATM    5  C   UNK N   1      20.241  15.006   6.009  0.00  0.00     0.122 A 
HETATM    6  N   UNK N   1      19.867  16.182   5.405  0.00  0.00    -0.326 N 
ATOM      7  HN  UNK N   1      19.893  17.060   5.924  1.00  0.00     0.169 HD
HETATM    8  C   UNK N   1      19.456  16.159   4.085  0.00  0.00     0.138 A 
HETATM    9  C   UNK N   1      19.490  14.916   3.395  0.00  0.00     0.106 A 
HETATM   10  C   UNK N   1      19.864  13.776   4.022  0.00  0.00     0.080 A 
HETATM   11  N   UNK N   1      19.804  12.756   3.159  0.00  0.00    -0.345 N 
HETATM   12  C   UNK N   1      19.396  13.296   1.988  0.00  0.00     0.183 A 
HETATM   13  N   UNK N   1      19.198  14.636   2.107  0.00  0.00    -0.347 N 
ATOM     14  HN  UNK N   1      18.896  15.287   1.383  1.00  0.00     0.167 HD
HETATM   15  C   UNK N   1      20.116  11.358   3.402  0.00  0.00     0.157 C 
ENDROOT
BRANCH   8  16
HETATM   16  N   UNK N   1      19.030  17.359   3.447  0.00  0.00    -0.326 N 
HETATM   17  H   UNK N   1      18.067  17.502   3.301  0.00  0.00     0.169 HD
BRANCH  16  18
HETATM   18  C   UNK N   1      19.945  18.357   3.014  0.00  0.00     0.123 A 
HETATM   19  C   UNK N   1      21.160  18.649   3.611  0.00  0.00     0.076 A 
HETATM   20  C   UNK N   1      21.687  19.635   2.792  0.00  0.00     0.028 A 
HETATM   21  N   UNK N   1      20.820  19.903   1.800  0.00  0.00    -0.299 N 
HETATM   22  C   UNK N   1      23.014  20.289   2.960  0.00  0.00     0.070 C 
HETATM   23  N   UNK N   1      19.755  19.136   1.929  0.00  0.00    -0.283 N 
HETATM   24  C   UNK N   1      20.994  20.860   0.720  0.00  0.00     0.177 C 
ATOM     25  HN  UNK N   1      18.937  19.132   1.319  1.00  0.00     0.188 HD
ENDBRANCH  16  18
ENDBRANCH   8  16
BRANCH   1  26
HETATM   26  C   UNK N   1      20.814  15.861   8.295  0.00  0.00     0.126 C 
HETATM   27  C   UNK N   1      19.481  16.215   8.927  0.00  0.00     0.027 C 
ENDBRANCH   1  26
BRANCH   2  28
HETATM   28  C   UNK N   1      21.341  12.795   8.669  0.00  0.00     0.271 C 
HETATM   29  O   UNK N   1      20.616  12.848   9.654  0.00  0.00    -0.266 OA
HETATM   30  N   UNK N   1      22.541  12.109   8.743  0.00  0.00    -0.337 N 
BRANCH  30  31
HETATM   31  C   UNK N   1      22.928  11.469  10.008  0.00  0.00     0.088 A 
HETATM   32  C   UNK N   1      24.146  12.134  10.646  0.00  0.00     0.027 A 
HETATM   33  C   UNK N   1      22.776  12.441  11.177  0.00  0.00     0.027 A 
ENDBRANCH  30  31
BRANCH  30  34
HETATM   34  C   UNK N   1      23.329  11.897   7.521  0.00  0.00     0.088 A 
HETATM   35  C   UNK N   1      24.195  10.657   7.624  0.00  0.00     0.027 A 
HETATM   36  C   UNK N   1      22.979  10.655   6.718  0.00  0.00     0.027 A 
ENDBRANCH  30  34
ENDBRANCH   2  28
TORSDOF 6
ENDMDL
MODEL 4
REMARK VINA RESULT:      -7.0      3.554     10.269
REMARK  6 active torsions:
REMARK  status: ('A' for Active; 'I' for Inactive)
REMARK    1  A    between atoms: C_2  and  N_3 
REMARK    2  A    between atoms: C_4  and  C_27 
REMARK    3  A    between atoms: C_10  and  N_18 
REMARK    4  A    between atoms: N_18  and  C_19 
REMARK       I    between atoms: C_27  and  N_29 
REMARK    5  A    between atoms: N_29  and  C_30 
REMARK    6  A    between atoms: N_29  and  C_33 
ROOT
HETATM    1  N   UNK N   1      26.866  18.106   5.560  0.00  0.00    -0.328 N 
HETATM    2  C   UNK N   1      27.727  17.076   5.825  0.00  0.00     0.105 A 
HETATM    3  C   UNK N   1      27.019  15.879   5.933  0.00  0.00     0.053 A 
HETATM    4  C   UNK N   1      25.711  16.213   5.742  0.00  0.00     0.040 A 
HETATM    5  C   UNK N   1      25.634  17.560   5.527  0.00  0.00     0.122 A 
HETATM    6  N   UNK N   1      24.436  18.202   5.322  0.00  0.00    -0.326 N 
ATOM      7  HN  UNK N   1      24.410  19.208   5.156  1.00  0.00     0.169 HD
HETATM    8  C   UNK N   1      23.267  17.464   5.343  0.00  0.00     0.138 A 
HETATM    9  C   UNK N   1      23.365  16.058   5.526  0.00  0.00     0.106 A 
HETATM   10  C   UNK N   1      24.564  15.460   5.725  0.00  0.00     0.080 A 
HETATM   11  N   UNK N   1      24.381  14.142   5.875  0.00  0.00    -0.345 N 
HETATM   12  C   UNK N   1      23.049  13.946   5.752  0.00  0.00     0.183 A 
HETATM   13  N   UNK N   1      22.397  15.118   5.531  0.00  0.00    -0.347 N 
ATOM     14  HN  UNK N   1      21.396  15.257   5.398  1.00  0.00     0.167 HD
HETATM   15  C   UNK N   1      25.386  13.121   6.110  0.00  0.00     0.157 C 
ENDROOT
BRANCH   8  16
HETATM   16  N   UNK N   1      22.010  18.111   5.168  0.00  0.00    -0.326 N 
HETATM   17  H   UNK N   1      21.483  18.345   5.966  0.00  0.00     0.169 HD
BRANCH  16  18
HETATM   18  C   UNK N   1      21.489  18.430   3.884  0.00  0.00     0.123 A 
HETATM   19  C   UNK N   1      21.485  19.689   3.308  0.00  0.00     0.076 A 
HETATM   20  C   UNK N   1      20.936  19.463   2.056  0.00  0.00     0.028 A 
HETATM   21  N   UNK N   1      20.628  18.160   1.931  0.00  0.00    -0.299 N 
HETATM   22  C   UNK N   1      20.731  20.490   0.996  0.00  0.00     0.070 C 
HETATM   23  N   UNK N   1      20.955  17.525   3.039  0.00  0.00    -0.283 N 
HETATM   24  C   UNK N   1      20.048  17.505   0.771  0.00  0.00     0.177 C 
ATOM     25  HN  UNK N   1      20.828  16.530   3.223  1.00  0.00     0.188 HD
ENDBRANCH  16  18
ENDBRANCH   8  16
BRANCH   1  26
HETATM   26  C   UNK N   1      27.200  19.512   5.353  0.00  0.00     0.126 C 
HETATM   27  C   UNK N   1      27.316  19.828   3.874  0.00  0.00     0.027 C 
ENDBRANCH   1  26
BRANCH   2  28
HETATM   28  C   UNK N   1      29.218  17.196   5.968  0.00  0.00     0.271 C 
HETATM   29  O   UNK N   1      29.890  17.256   4.947  0.00  0.00    -0.266 OA
HETATM   30  N   UNK N   1      29.847  17.245   7.200  0.00  0.00    -0.337 N 
BRANCH  30  31
HETATM   31  C   UNK N   1      31.311  17.354   7.257  0.00  0.00     0.088 A 
HETATM   32  C   UNK N   1      31.948  16.214   8.050  0.00  0.00     0.027 A 
HETATM   33  C   UNK N   1      31.972  16.171   6.550  0.00  0.00     0.027 A 
ENDBRANCH  30  31
BRANCH  30  34
HETATM   34  C   UNK N   1      29.038  17.346   8.423  0.00  0.00     0.088 A 
HETATM   35  C   UNK N   1      29.708  18.217   9.466  0.00  0.00     0.027 A 
HETATM   36  C   UNK N   1      28.482  18.726   8.732  0.00  0.00     0.027 A 
ENDBRANCH  30  34
ENDBRANCH   2  28
TORSDOF 6
ENDMDL
MODEL 5
REMARK VINA RESULT:      -7.0      3.101      5.526
REMARK  6 active torsions:
REMARK  status: ('A' for Active; 'I' for Inactive)
REMARK    1  A    between atoms: C_2  and  N_3 
REMARK    2  A    between atoms: C_4  and  C_27 
REMARK    3  A    between atoms: C_10  and  N_18 
REMARK    4  A    between atoms: N_18  and  C_19 
REMARK       I    between atoms: C_27  and  N_29 
REMARK    5  A    between atoms: N_29  and  C_30 
REMARK    6  A    between atoms: N_29  and  C_33 
ROOT
HETATM    1  N   UNK N   1      25.877  19.315   4.996  0.00  0.00    -0.328 N 
HETATM    2  C   UNK N   1      25.180  19.057   3.847  0.00  0.00     0.105 A 
HETATM    3  C   UNK N   1      25.555  17.815   3.331  0.00  0.00     0.053 A 
HETATM    4  C   UNK N   1      26.503  17.338   4.187  0.00  0.00     0.040 A 
HETATM    5  C   UNK N   1      26.693  18.257   5.181  0.00  0.00     0.122 A 
HETATM    6  N   UNK N   1      27.607  18.068   6.188  0.00  0.00    -0.326 N 
ATOM      7  HN  UNK N   1      27.721  18.768   6.921  1.00  0.00     0.169 HD
HETATM    8  C   UNK N   1      28.370  16.914   6.195  0.00  0.00     0.138 A 
HETATM    9  C   UNK N   1      28.132  15.949   5.179  0.00  0.00     0.106 A 
HETATM   10  C   UNK N   1      27.222  16.170   4.201  0.00  0.00     0.080 A 
HETATM   11  N   UNK N   1      27.196  15.117   3.375  0.00  0.00    -0.345 N 
HETATM   12  C   UNK N   1      28.100  14.244   3.873  0.00  0.00     0.183 A 
HETATM   13  N   UNK N   1      28.692  14.735   4.995  0.00  0.00    -0.347 N 
ATOM     14  HN  UNK N   1      29.403  14.284   5.570  1.00  0.00     0.167 HD
HETATM   15  C   UNK N   1      26.373  14.927   2.194  0.00  0.00     0.157 C 
ENDROOT
BRANCH   8  16
HETATM   16  N   UNK N   1      29.350  16.711   7.208  0.00  0.00    -0.326 N 
HETATM   17  H   UNK N   1      29.074  16.297   8.058  0.00  0.00     0.169 HD
BRANCH  16  18
HETATM   18  C   UNK N   1      30.711  17.084   7.038  0.00  0.00     0.123 A 
HETATM   19  C   UNK N   1      31.542  17.573   8.032  0.00  0.00     0.076 A 
HETATM   20  C   UNK N   1      32.757  17.723   7.384  0.00  0.00     0.028 A 
HETATM   21  N   UNK N   1      32.626  17.360   6.096  0.00  0.00    -0.299 N 
HETATM   22  C   UNK N   1      34.026  18.192   8.009  0.00  0.00     0.070 C 
HETATM   23  N   UNK N   1      31.384  16.976   5.874  0.00  0.00    -0.283 N 
HETATM   24  C   UNK N   1      33.663  17.352   5.078  0.00  0.00     0.177 C 
ATOM     25  HN  UNK N   1      31.003  16.655   4.984  1.00  0.00     0.188 HD
ENDBRANCH  16  18
ENDBRANCH   8  16
BRANCH   1  26
HETATM   26  C   UNK N   1      25.769  20.490   5.855  0.00  0.00     0.126 C 
HETATM   27  C   UNK N   1      26.991  21.378   5.712  0.00  0.00     0.027 C 
ENDBRANCH   1  26
BRANCH   2  28
HETATM   28  C   UNK N   1      24.152  19.959   3.225  0.00  0.00     0.271 C 
HETATM   29  O   UNK N   1      24.546  20.926   2.588  0.00  0.00    -0.266 OA
HETATM   30  N   UNK N   1      22.791  19.730   3.343  0.00  0.00    -0.337 N 
BRANCH  30  31
HETATM   31  C   UNK N   1      21.847  20.663   2.713  0.00  0.00     0.088 A 
HETATM   32  C   UNK N   1      21.414  20.200   1.323  0.00  0.00     0.027 A 
HETATM   33  C   UNK N   1      20.491  19.997   2.489  0.00  0.00     0.027 A 
ENDBRANCH  30  31
BRANCH  30  34
HETATM   34  C   UNK N   1      22.317  18.482   3.958  0.00  0.00     0.088 A 
HETATM   35  C   UNK N   1      22.671  18.417   5.430  0.00  0.00     0.027 A 
HETATM   36  C   UNK N   1      21.230  18.638   5.009  0.00  0.00     0.027 A 
ENDBRANCH  30  34
ENDBRANCH   2  28
TORSDOF 6
ENDMDL
MODEL 6
REMARK VINA RESULT:      -6.9     12.447     16.650
REMARK  6 active torsions:
REMARK  status: ('A' for Active; 'I' for Inactive)
REMARK    1  A    between atoms: C_2  and  N_3 
REMARK    2  A    between atoms: C_4  and  C_27 
REMARK    3  A    between atoms: C_10  and  N_18 
REMARK    4  A    between atoms: N_18  and  C_19 
REMARK       I    between atoms: C_27  and  N_29 
REMARK    5  A    between atoms: N_29  and  C_30 
REMARK    6  A    between atoms: N_29  and  C_33 
ROOT
HETATM    1  N   UNK N   1      29.823  22.986  -4.540  0.00  0.00    -0.328 N 
HETATM    2  C   UNK N   1      30.235  21.913  -5.282  0.00  0.00     0.105 A 
HETATM    3  C   UNK N   1      29.338  21.683  -6.326  0.00  0.00     0.053 A 
HETATM    4  C   UNK N   1      28.370  22.632  -6.188  0.00  0.00     0.040 A 
HETATM    5  C   UNK N   1      28.671  23.405  -5.102  0.00  0.00     0.122 A 
HETATM    6  N   UNK N   1      27.865  24.439  -4.693  0.00  0.00    -0.326 N 
ATOM      7  HN  UNK N   1      28.119  25.005  -3.883  1.00  0.00     0.169 HD
HETATM    8  C   UNK N   1      26.704  24.705  -5.396  0.00  0.00     0.138 A 
HETATM    9  C   UNK N   1      26.425  23.920  -6.548  0.00  0.00     0.106 A 
HETATM   10  C   UNK N   1      27.243  22.907  -6.921  0.00  0.00     0.080 A 
HETATM   11  N   UNK N   1      26.755  22.328  -8.025  0.00  0.00    -0.345 N 
HETATM   12  C   UNK N   1      25.629  23.014  -8.326  0.00  0.00     0.183 A 
HETATM   13  N   UNK N   1      25.404  24.009  -7.426  0.00  0.00    -0.347 N 
ATOM     14  HN  UNK N   1      24.633  24.676  -7.418  1.00  0.00     0.167 HD
HETATM   15  C   UNK N   1      27.306  21.208  -8.766  0.00  0.00     0.157 C 
ENDROOT
BRANCH   8  16
HETATM   16  N   UNK N   1      25.833  25.748  -4.971  0.00  0.00    -0.326 N 
HETATM   17  H   UNK N   1      24.918  25.518  -4.692  0.00  0.00     0.169 HD
BRANCH  16  18
HETATM   18  C   UNK N   1      26.238  27.111  -4.937  0.00  0.00     0.123 A 
HETATM   19  C   UNK N   1      25.789  28.061  -4.033  0.00  0.00     0.076 A 
HETATM   20  C   UNK N   1      26.515  29.190  -4.375  0.00  0.00     0.028 A 
HETATM   21  N   UNK N   1      27.315  28.910  -5.419  0.00  0.00    -0.299 N 
HETATM   22  C   UNK N   1      26.447  30.511  -3.688  0.00  0.00     0.070 C 
HETATM   23  N   UNK N   1      27.149  27.650  -5.771  0.00  0.00    -0.283 N 
HETATM   24  C   UNK N   1      28.248  29.811  -6.074  0.00  0.00     0.177 C 
ATOM     25  HN  UNK N   1      27.625  27.171  -6.536  1.00  0.00     0.188 HD
ENDBRANCH  16  18
ENDBRANCH   8  16
BRANCH   1  26
HETATM   26  C   UNK N   1      30.485  23.568  -3.378  0.00  0.00     0.126 C 
HETATM   27  C   UNK N   1      29.981  22.935  -2.095  0.00  0.00     0.027 C 
ENDBRANCH   1  26
BRANCH   2  28
HETATM   28  C   UNK N   1      31.473  21.099  -5.032  0.00  0.00     0.271 C 
HETATM   29  O   UNK N   1      31.353  20.039  -4.432  0.00  0.00    -0.266 OA
HETATM   30  N   UNK N   1      32.728  21.500  -5.459  0.00  0.00    -0.337 N 
BRANCH  30  31
HETATM   31  C   UNK N   1      33.892  20.652  -5.169  0.00  0.00     0.088 A 
HETATM   32  C   UNK N   1      34.906  21.349  -4.262  0.00  0.00     0.027 A 
HETATM   33  C   UNK N   1      33.971  20.329  -3.678  0.00  0.00     0.027 A 
ENDBRANCH  30  31
BRANCH  30  34
HETATM   34  C   UNK N   1      32.854  22.680  -6.326  0.00  0.00     0.088 A 
HETATM   35  C   UNK N   1      34.067  22.581  -7.229  0.00  0.00     0.027 A 
HETATM   36  C   UNK N   1      32.677  22.425  -7.815  0.00  0.00     0.027 A 
ENDBRANCH  30  34
ENDBRANCH   2  28
TORSDOF 6
ENDMDL
MODEL 7
REMARK VINA RESULT:      -6.9      3.538      9.443
REMARK  6 active torsions:
REMARK  status: ('A' for Active; 'I' for Inactive)
REMARK    1  A    between atoms: C_2  and  N_3 
REMARK    2  A    between atoms: C_4  and  C_27 
REMARK    3  A    between atoms: C_10  and  N_18 
REMARK    4  A    between atoms: N_18  and  C_19 
REMARK       I    between atoms: C_27  and  N_29 
REMARK    5  A    between atoms: N_29  and  C_30 
REMARK    6  A    between atoms: N_29  and  C_33 
ROOT
HETATM    1  N   UNK N   1      28.734  16.415   3.994  0.00  0.00    -0.328 N 
HETATM    2  C   UNK N   1      29.525  16.078   5.059  0.00  0.00     0.105 A 
HETATM    3  C   UNK N   1      29.289  16.949   6.123  0.00  0.00     0.053 A 
HETATM    4  C   UNK N   1      28.349  17.827   5.670  0.00  0.00     0.040 A 
HETATM    5  C   UNK N   1      28.031  17.498   4.383  0.00  0.00     0.122 A 
HETATM    6  N   UNK N   1      27.121  18.217   3.647  0.00  0.00    -0.326 N 
ATOM      7  HN  UNK N   1      26.897  17.942   2.690  1.00  0.00     0.169 HD
HETATM    8  C   UNK N   1      26.512  19.317   4.221  0.00  0.00     0.138 A 
HETATM    9  C   UNK N   1      26.821  19.623   5.574  0.00  0.00     0.106 A 
HETATM   10  C   UNK N   1      27.724  18.892   6.270  0.00  0.00     0.080 A 
HETATM   11  N   UNK N   1      27.835  19.387   7.507  0.00  0.00    -0.345 N 
HETATM   12  C   UNK N   1      26.975  20.429   7.559  0.00  0.00     0.183 A 
HETATM   13  N   UNK N   1      26.331  20.595   6.373  0.00  0.00    -0.347 N 
ATOM     14  HN  UNK N   1      25.631  21.297   6.139  1.00  0.00     0.167 HD
HETATM   15  C   UNK N   1      28.685  18.916   8.587  0.00  0.00     0.157 C 
ENDROOT
BRANCH   8  16
HETATM   16  N   UNK N   1      25.592  20.101   3.467  0.00  0.00    -0.326 N 
HETATM   17  H   UNK N   1      25.934  20.863   2.947  0.00  0.00     0.169 HD
BRANCH  16  18
HETATM   18  C   UNK N   1      24.199  19.821   3.438  0.00  0.00     0.123 A 
HETATM   19  C   UNK N   1      23.572  18.785   4.110  0.00  0.00     0.076 A 
HETATM   20  C   UNK N   1      22.232  18.978   3.812  0.00  0.00     0.028 A 
HETATM   21  N   UNK N   1      22.103  20.047   3.007  0.00  0.00    -0.299 N 
HETATM   22  C   UNK N   1      21.100  18.153   4.316  0.00  0.00     0.070 C 
HETATM   23  N   UNK N   1      23.293  20.563   2.768  0.00  0.00    -0.283 N 
HETATM   24  C   UNK N   1      20.867  20.599   2.476  0.00  0.00     0.177 C 
ATOM     25  HN  UNK N   1      23.492  21.375   2.184  1.00  0.00     0.188 HD
ENDBRANCH  16  18
ENDBRANCH   8  16
BRANCH   1  26
HETATM   26  C   UNK N   1      28.657  15.748   2.699  0.00  0.00     0.126 C 
HETATM   27  C   UNK N   1      27.545  14.716   2.686  0.00  0.00     0.027 C 
ENDBRANCH   1  26
BRANCH   2  28
HETATM   28  C   UNK N   1      30.499  14.934   5.099  0.00  0.00     0.271 C 
HETATM   29  O   UNK N   1      30.059  13.812   5.311  0.00  0.00    -0.266 OA
HETATM   30  N   UNK N   1      31.859  15.106   4.899  0.00  0.00    -0.337 N 
BRANCH  30  31
HETATM   31  C   UNK N   1      32.748  13.938   4.963  0.00  0.00     0.088 A 
HETATM   32  C   UNK N   1      33.952  14.174   5.873  0.00  0.00     0.027 A 
HETATM   33  C   UNK N   1      32.793  13.364   6.378  0.00  0.00     0.027 A 
ENDBRANCH  30  31
BRANCH  30  34
HETATM   34  C   UNK N   1      32.368  16.417   4.475  0.00  0.00     0.088 A 
HETATM   35  C   UNK N   1      33.438  16.282   3.410  0.00  0.00     0.027 A 
HETATM   36  C   UNK N   1      32.065  16.808   3.038  0.00  0.00     0.027 A 
ENDBRANCH  30  34
ENDBRANCH   2  28
TORSDOF 6
ENDMDL
MODEL 8
REMARK VINA RESULT:      -6.8      3.560     10.210
REMARK  6 active torsions:
REMARK  status: ('A' for Active; 'I' for Inactive)
REMARK    1  A    between atoms: C_2  and  N_3 
REMARK    2  A    between atoms: C_4  and  C_27 
REMARK    3  A    between atoms: C_10  and  N_18 
REMARK    4  A    between atoms: N_18  and  C_19 
REMARK       I    between atoms: C_27  and  N_29 
REMARK    5  A    between atoms: N_29  and  C_30 
REMARK    6  A    between atoms: N_29  and  C_33 
ROOT
HETATM    1  N   UNK N   1      26.441  16.203   5.924  0.00  0.00    -0.328 N 
HETATM    2  C   UNK N   1      27.605  16.884   5.690  0.00  0.00     0.105 A 
HETATM    3  C   UNK N   1      27.341  18.040   4.954  0.00  0.00     0.053 A 
HETATM    4  C   UNK N   1      25.995  18.032   4.737  0.00  0.00     0.040 A 
HETATM    5  C   UNK N   1      25.468  16.914   5.320  0.00  0.00     0.122 A 
HETATM    6  N   UNK N   1      24.128  16.617   5.254  0.00  0.00    -0.326 N 
ATOM      7  HN  UNK N   1      23.762  15.779   5.707  1.00  0.00     0.169 HD
HETATM    8  C   UNK N   1      23.284  17.469   4.568  0.00  0.00     0.138 A 
HETATM    9  C   UNK N   1      23.839  18.649   4.002  0.00  0.00     0.106 A 
HETATM   10  C   UNK N   1      25.165  18.910   4.086  0.00  0.00     0.080 A 
HETATM   11  N   UNK N   1      25.428  20.070   3.473  0.00  0.00    -0.345 N 
HETATM   12  C   UNK N   1      24.234  20.519   3.021  0.00  0.00     0.183 A 
HETATM   13  N   UNK N   1      23.232  19.657   3.340  0.00  0.00    -0.347 N 
ATOM     14  HN  UNK N   1      22.240  19.751   3.126  1.00  0.00     0.167 HD
HETATM   15  C   UNK N   1      26.712  20.731   3.321  0.00  0.00     0.157 C 
ENDROOT
BRANCH   8  16
HETATM   16  N   UNK N   1      21.897  17.164   4.454  0.00  0.00    -0.326 N 
HETATM   17  H   UNK N   1      21.309  17.341   5.223  0.00  0.00     0.169 HD
BRANCH  16  18
HETATM   18  C   UNK N   1      21.332  16.614   3.271  0.00  0.00     0.123 A 
HETATM   19  C   UNK N   1      20.535  17.296   2.368  0.00  0.00     0.076 A 
HETATM   20  C   UNK N   1      20.298  16.355   1.379  0.00  0.00     0.028 A 
HETATM   21  N   UNK N   1      20.907  15.201   1.705  0.00  0.00    -0.299 N 
HETATM   22  C   UNK N   1      19.512  16.577   0.134  0.00  0.00     0.070 C 
HETATM   23  N   UNK N   1      21.533  15.347   2.857  0.00  0.00    -0.283 N 
HETATM   24  C   UNK N   1      20.921  13.970   0.934  0.00  0.00     0.177 C 
ATOM     25  HN  UNK N   1      22.072  14.631   3.344  1.00  0.00     0.188 HD
ENDBRANCH  16  18
ENDBRANCH   8  16
BRANCH   1  26
HETATM   26  C   UNK N   1      26.274  14.961   6.672  0.00  0.00     0.126 C 
HETATM   27  C   UNK N   1      26.328  13.761   5.746  0.00  0.00     0.027 C 
ENDBRANCH   1  26
BRANCH   2  28
HETATM   28  C   UNK N   1      28.971  16.471   6.159  0.00  0.00     0.271 C 
HETATM   29  O   UNK N   1      29.563  15.611   5.520  0.00  0.00    -0.266 OA
HETATM   30  N   UNK N   1      29.577  17.028   7.273  0.00  0.00    -0.337 N 
BRANCH  30  31
HETATM   31  C   UNK N   1      30.912  16.564   7.674  0.00  0.00     0.088 A 
HETATM   32  C   UNK N   1      32.018  17.149   6.796  0.00  0.00     0.027 A 
HETATM   33  C   UNK N   1      31.771  17.731   8.158  0.00  0.00     0.027 A 
ENDBRANCH  30  31
BRANCH  30  34
HETATM   34  C   UNK N   1      28.948  18.176   7.941  0.00  0.00     0.088 A 
HETATM   35  C   UNK N   1      27.849  17.737   8.888  0.00  0.00     0.027 A 
HETATM   36  C   UNK N   1      29.159  18.260   9.444  0.00  0.00     0.027 A 
ENDBRANCH  30  34
ENDBRANCH   2  28
TORSDOF 6
ENDMDL
MODEL 9
REMARK VINA RESULT:      -6.6      4.482      8.119
REMARK  6 active torsions:
REMARK  status: ('A' for Active; 'I' for Inactive)
REMARK    1  A    between atoms: C_2  and  N_3 
REMARK    2  A    between atoms: C_4  and  C_27 
REMARK    3  A    between atoms: C_10  and  N_18 
REMARK    4  A    between atoms: N_18  and  C_19 
REMARK       I    between atoms: C_27  and  N_29 
REMARK    5  A    between atoms: N_29  and  C_30 
REMARK    6  A    between atoms: N_29  and  C_33 
ROOT
HETATM    1  N   UNK N   1      28.093  16.675   6.286  0.00  0.00    -0.328 N 
HETATM    2  C   UNK N   1      29.196  16.208   5.625  0.00  0.00     0.105 A 
HETATM    3  C   UNK N   1      28.941  14.936   5.111  0.00  0.00     0.053 A 
HETATM    4  C   UNK N   1      27.666  14.641   5.490  0.00  0.00     0.040 A 
HETATM    5  C   UNK N   1      27.170  15.695   6.205  0.00  0.00     0.122 A 
HETATM    6  N   UNK N   1      25.905  15.685   6.742  0.00  0.00    -0.326 N 
ATOM      7  HN  UNK N   1      25.559  16.491   7.264  1.00  0.00     0.169 HD
HETATM    8  C   UNK N   1      25.108  14.570   6.564  0.00  0.00     0.138 A 
HETATM    9  C   UNK N   1      25.621  13.498   5.783  0.00  0.00     0.106 A 
HETATM   10  C   UNK N   1      26.873  13.542   5.269  0.00  0.00     0.080 A 
HETATM   11  N   UNK N   1      27.111  12.416   4.586  0.00  0.00    -0.345 N 
HETATM   12  C   UNK N   1      25.975  11.688   4.683  0.00  0.00     0.183 A 
HETATM   13  N   UNK N   1      25.035  12.339   5.418  0.00  0.00    -0.347 N 
ATOM     14  HN  UNK N   1      24.093  12.021   5.643  1.00  0.00     0.167 HD
HETATM   15  C   UNK N   1      28.319  12.039   3.875  0.00  0.00     0.157 C 
ENDROOT
BRANCH   8  16
HETATM   16  N   UNK N   1      23.807  14.521   7.141  0.00  0.00    -0.326 N 
HETATM   17  H   UNK N   1      23.077  15.017   6.706  0.00  0.00     0.169 HD
BRANCH  16  18
HETATM   18  C   UNK N   1      23.525  13.783   8.323  0.00  0.00     0.123 A 
HETATM   19  C   UNK N   1      24.471  13.235   9.174  0.00  0.00     0.076 A 
HETATM   20  C   UNK N   1      23.704  12.683  10.187  0.00  0.00     0.028 A 
HETATM   21  N   UNK N   1      22.401  12.886   9.923  0.00  0.00    -0.299 N 
HETATM   22  C   UNK N   1      24.227  11.989  11.396  0.00  0.00     0.070 C 
HETATM   23  N   UNK N   1      22.282  13.548   8.789  0.00  0.00    -0.283 N 
HETATM   24  C   UNK N   1      21.268  12.479  10.738  0.00  0.00     0.177 C 
ATOM     25  HN  UNK N   1      21.408  13.832   8.345  1.00  0.00     0.188 HD
ENDBRANCH  16  18
ENDBRANCH   8  16
BRANCH   1  26
HETATM   26  C   UNK N   1      27.934  17.966   6.947  0.00  0.00     0.126 C 
HETATM   27  C   UNK N   1      27.503  19.031   5.957  0.00  0.00     0.027 C 
ENDBRANCH   1  26
BRANCH   2  28
HETATM   28  C   UNK N   1      30.494  16.947   5.456  0.00  0.00     0.271 C 
HETATM   29  O   UNK N   1      30.585  17.742   4.530  0.00  0.00    -0.266 OA
HETATM   30  N   UNK N   1      31.571  16.765   6.306  0.00  0.00    -0.337 N 
BRANCH  30  31
HETATM   31  C   UNK N   1      32.810  17.520   6.069  0.00  0.00     0.088 A 
HETATM   32  C   UNK N   1      33.961  16.621   5.620  0.00  0.00     0.027 A 
HETATM   33  C   UNK N   1      33.223  17.439   4.600  0.00  0.00     0.027 A 
ENDBRANCH  30  31
BRANCH  30  34
HETATM   34  C   UNK N   1      31.410  15.946   7.515  0.00  0.00     0.088 A 
HETATM   35  C   UNK N   1      32.413  16.326   8.585  0.00  0.00     0.027 A 
HETATM   36  C   UNK N   1      30.951  16.691   8.758  0.00  0.00     0.027 A 
ENDBRANCH  30  34
ENDBRANCH   2  28
TORSDOF 6
ENDMDL
