REMARK  8 active torsions:
REMARK  status: ('A' for Active; 'I' for Inactive)
REMARK    1  A    between atoms: C_4  and  C_7 
REMARK       I    between atoms: C_7  and  N_9 
REMARK    2  A    between atoms: C_12  and  C_15 
REMARK    3  A    between atoms: C_15  and  C_16 
REMARK    4  A    between atoms: C_16  and  C_17 
REMARK    5  A    between atoms: C_17  and  C_18 
REMARK    6  A    between atoms: C_18  and  N_19 
REMARK       I    between atoms: N_19  and  C_20 
REMARK    7  A    between atoms: C_20  and  C_22 
REMARK    8  A    between atoms: C_23  and  C_24 
ROOT
HETATM    1  C   UNK N   1       3.372  -7.695   0.080  0.00  0.00     0.002 C 
ENDROOT
BRANCH   1   2
HETATM    2  C   UNK N   1       2.366  -7.015  -0.837  0.00  0.00     0.005 C 
BRANCH   2   3
HETATM    3  C   UNK N   1       1.575  -5.999  -0.037  0.00  0.00    -0.012 C 
HETATM    4  C   UNK N   1       1.727  -4.587  -0.611  0.00  0.00     0.024 C 
HETATM    5  C   UNK N   1       0.931  -3.602   0.249  0.00  0.00     0.126 C 
HETATM    6  N   UNK N   1      -0.441  -4.064   0.352  0.00  0.00    -0.348 N 
HETATM    7  C   UNK N   1      -1.477  -3.234  -0.003  0.00  0.00     0.253 C 
HETATM    8  C   UNK N   1      -0.649  -5.403   0.859  0.00  0.00     0.126 C 
HETATM    9  O   UNK N   1      -1.230  -2.084  -0.337  0.00  0.00    -0.267 OA
HETATM   10  C   UNK N   1       0.108  -6.401  -0.002  0.00  0.00     0.024 C 
BRANCH   7  11
HETATM   11  C   UNK N   1      -2.914  -3.671   0.002  0.00  0.00     0.032 A 
HETATM   12  C   UNK N   1      -3.924  -2.709  -0.170  0.00  0.00     0.017 A 
HETATM   13  C   UNK N   1      -5.271  -3.085  -0.190  0.00  0.00     0.001 A 
HETATM   14  C   UNK N   1      -5.625  -4.430  -0.059  0.00  0.00     0.000 A 
HETATM   15  C   UNK N   1      -4.633  -5.398   0.097  0.00  0.00     0.001 A 
HETATM   16  C   UNK N   1      -3.290  -5.018   0.130  0.00  0.00     0.017 A 
ENDBRANCH   7  11
ENDBRANCH   2   3
ENDBRANCH   1   2
BRANCH   1  17
HETATM   17  C   UNK N   1       4.743  -7.039  -0.017  0.00  0.00     0.020 C 
BRANCH  17  18
HETATM   18  C   UNK N   1       4.672  -5.571   0.363  0.00  0.00     0.123 C 
BRANCH  18  19
HETATM   19  N   UNK N   1       5.959  -4.956   0.185  0.00  0.00    -0.358 N 
HETATM   20  C   UNK N   1       6.102  -3.618   0.077  0.00  0.00     0.241 C 
HETATM   21  O   UNK N   1       5.115  -2.896   0.099  0.00  0.00    -0.269 OA
HETATM   22  H   UNK N   1       6.759  -5.527   0.141  0.00  0.00     0.162 HD
BRANCH  20  23
HETATM   23  C   UNK N   1       7.433  -2.981  -0.062  0.00  0.00     0.075 C 
HETATM   24  C   UNK N   1       8.682  -3.493  -0.100  0.00  0.00     0.018 C 
BRANCH  24  25
HETATM   25  C   UNK N   1       9.209  -4.878  -0.049  0.00  0.00    -0.021 A 
HETATM   26  C   UNK N   1      10.596  -5.045  -0.032  0.00  0.00     0.014 A 
HETATM   27  C   UNK N   1      11.153  -6.323   0.008  0.00  0.00     0.018 A 
HETATM   28  C   UNK N   1      10.308  -7.433   0.028  0.00  0.00     0.087 A 
HETATM   29  N   UNK N   1       8.960  -7.262   0.007  0.00  0.00    -0.374 N 
HETATM   30  C   UNK N   1       8.404  -6.021  -0.032  0.00  0.00     0.099 A 
ATOM     31  HN  UNK N   1       8.352  -8.081   0.021  1.00  0.00     0.164 HD
ENDBRANCH  24  25
ENDBRANCH  20  23
ENDBRANCH  18  19
ENDBRANCH  17  18
ENDBRANCH   1  17
TORSDOF 8
