REMARK  6 active torsions:
REMARK  status: ('A' for Active; 'I' for Inactive)
REMARK    1  A    between atoms: C_3  and  C_2 
REMARK    2  A    between atoms: N_10  and  C_2 
REMARK    3  A    between atoms: N_11  and  C_3 
REMARK    4  A    between atoms: N_12  and  C_6 
REMARK    5  A    between atoms: S_17  and  N_7 
REMARK    6  A    between atoms: S_17  and  N_10 
ROOT
HETATM    1  C   UNK N   1       0.256  -2.300  -0.158  0.00  0.00     0.089 C 
HETATM    2  C   UNK N   1       2.461   0.483   0.392  0.00  0.00     0.144 A 
HETATM    3  C   UNK N   1       0.931  -0.980   0.001  0.00  0.00     0.081 A 
HETATM    4  C   UNK N   1       1.294   1.130   0.030  0.00  0.00     0.193 A 
HETATM    5  N   UNK N   1       2.221  -0.848   0.374  0.00  0.00    -0.352 N 
ATOM      6  HN  UNK N   1       2.878  -1.596   0.595  1.00  0.00     0.166 HD
HETATM    7  N   UNK N   1       0.339   0.210  -0.217  0.00  0.00    -0.315 N 
ENDROOT
BRANCH   7   8
HETATM    8  C   UNK N   1      -1.029   0.402  -0.687  0.00  0.00     0.152 C 
BRANCH   8   9
HETATM    9  C   UNK N   1      -1.932   1.028   0.362  0.00  0.00     0.154 C 
BRANCH   9  10
HETATM   10  N   UNK N   1      -3.297   1.009  -0.155  0.00  0.00    -0.301 N 
HETATM   11  H   UNK N   1      -3.657   1.596  -0.908  0.00  0.00     0.173 HD
BRANCH  10  12
HETATM   12  S   UNK N   1      -4.226  -0.205   0.746  0.00  0.00     0.312 S 
HETATM   13  O   UNK N   1      -3.641  -0.951  -0.465  0.00  0.00    -0.183 OA
HETATM   14  O   UNK N   1      -5.228   0.819   0.189  0.00  0.00    -0.183 OA
BRANCH  12  15
HETATM   15  N   UNK N   1      -5.520  -1.077  -0.076  0.00  0.00    -0.312 N 
HETATM   16  H   UNK N   1      -6.331  -0.681  -0.551  0.00  0.00     0.170 HD
HETATM   17  H   UNK N   1      -5.449  -2.094  -0.076  0.00  0.00     0.170 HD
ENDBRANCH  12  15
ENDBRANCH  10  12
ENDBRANCH   9  10
ENDBRANCH   8   9
ENDBRANCH   7   8
BRANCH   4  18
HETATM   18  N   UNK N   1       1.141   2.540  -0.084  0.00  0.00    -0.096 N 
HETATM   19  O   UNK N   1       0.082   3.018  -0.351  0.00  0.00    -0.530 OA
HETATM   20  O   UNK N   1       2.079   3.257   0.099  0.00  0.00    -0.530 OA
ENDBRANCH   4  18
TORSDOF 6
