MODEL 1
REMARK VINA RESULT:      -9.2      0.000      0.000
REMARK  11 active torsions:
REMARK  status: ('A' for Active; 'I' for Inactive)
REMARK    1  A    between atoms: C_2  and  O_4 
REMARK    2  A    between atoms: O_4  and  C_5 
REMARK    3  A    between atoms: C_8  and  C_11 
REMARK    4  A    between atoms: C_23  and  O_26 
REMARK    5  A    between atoms: C_27  and  O_26 
REMARK    6  A    between atoms: C_33  and  C_57 
REMARK    7  A    between atoms: C_43  and  N_48 
REMARK       I    between atoms: N_48  and  C_49 
REMARK    8  A    between atoms: C_49  and  O_51 
REMARK    9  A    between atoms: O_51  and  C_52 
REMARK       I    between atoms: C_57  and  N_59 
REMARK   10  A    between atoms: N_59  and  S_60 
REMARK   11  A    between atoms: S_60  and  C_63 
ROOT
HETATM    1  C   UNK N   1      25.844  12.744   3.699  0.00  0.00     0.151 C 
HETATM    2  C   UNK N   1      26.009  14.126   3.083  0.00  0.00     0.069 C 
HETATM    3  C   UNK N   1      27.517  14.211   2.878  0.00  0.00     0.181 C 
HETATM    4  C   UNK N   1      28.033  15.528   3.417  0.00  0.00     0.241 C 
HETATM    5  O   UNK N   1      27.914  16.557   2.771  0.00  0.00    -0.271 OA
HETATM    6  N   UNK N   1      28.702  15.516   4.599  0.00  0.00    -0.341 N 
HETATM    7  C   UNK N   1      29.548  16.557   5.109  0.00  0.00     0.122 A 
HETATM    8  C   UNK N   1      30.848  15.848   5.444  0.00  0.00     0.053 A 
HETATM    9  C   UNK N   1      30.821  16.695   4.224  0.00  0.00     0.048 A 
HETATM   10  C   UNK N   1      31.914  17.706   4.389  0.00  0.00    -0.023 C 
HETATM   11  C   UNK N   1      33.219  17.355   4.414  0.00  0.00    -0.030 C 
HETATM   12  C   UNK N   1      33.724  15.924   4.414  0.00  0.00     0.027 C 
HETATM   13  C   UNK N   1      33.182  15.066   3.270  0.00  0.00     0.004 C 
HETATM   14  C   UNK N   1      33.173  13.576   3.634  0.00  0.00     0.000 C 
HETATM   15  C   UNK N   1      32.247  13.286   4.817  0.00  0.00     0.002 C 
HETATM   16  C   UNK N   1      31.599  11.905   4.718  0.00  0.00     0.035 C 
HETATM   17  C   UNK N   1      30.062  11.991   4.757  0.00  0.00     0.179 C 
HETATM   18  C   UNK N   1      29.414  12.858   3.687  0.00  0.00     0.243 C 
HETATM   19  O   UNK N   1      30.133  13.402   2.860  0.00  0.00    -0.271 OA
HETATM   20  N   UNK N   1      28.070  13.139   3.687  0.00  0.00    -0.334 N 
HETATM   21  C   UNK N   1      27.096  12.470   4.501  0.00  0.00     0.159 C 
HETATM   22  H   UNK N   1      28.596  14.715   5.160  0.00  0.00     0.163 HD
ENDROOT
BRANCH   1  23
HETATM   23  O   UNK N   1      24.644  12.474   4.328  0.00  0.00    -0.326 OA
BRANCH  23  24
HETATM   24  C   UNK N   1      23.882  13.318   5.064  0.00  0.00     0.181 A 
HETATM   25  C   UNK N   1      23.615  13.005   6.384  0.00  0.00     0.154 A 
HETATM   26  O   UNK N   1      24.010  11.970   7.102  0.00  0.00    -0.303 OA
HETATM   27  C   UNK N   1      22.821  13.819   7.130  0.00  0.00     0.085 A 
HETATM   28  C   UNK N   1      23.484  12.105   8.307  0.00  0.00     0.088 A 
HETATM   29  C   UNK N   1      23.617  11.258   9.402  0.00  0.00     0.038 A 
HETATM   30  C   UNK N   1      22.730  13.256   8.371  0.00  0.00     0.028 A 
HETATM   31  C   UNK N   1      22.952  11.619  10.590  0.00  0.00     0.003 A 
HETATM   32  C   UNK N   1      22.179  12.804  10.652  0.00  0.00     0.001 A 
HETATM   33  C   UNK N   1      22.060  13.641   9.526  0.00  0.00     0.017 A 
HETATM   34  N   UNK N   1      22.263  14.937   6.631  0.00  0.00    -0.339 N 
HETATM   35  C   UNK N   1      22.516  15.272   5.326  0.00  0.00     0.118 A 
ATOM     36  HN  UNK N   1      21.664  15.525   7.212  1.00  0.00     0.167 HD
HETATM   37  N   UNK N   1      23.327  14.466   4.548  0.00  0.00    -0.320 N 
ATOM     38  HN  UNK N   1      23.515  14.724   3.580  1.00  0.00     0.169 HD
BRANCH  35  39
HETATM   39  C   UNK N   1      21.844  16.456   4.758  0.00  0.00     0.008 A 
HETATM   40  C   UNK N   1      21.713  17.651   5.479  0.00  0.00     0.018 A 
HETATM   41  C   UNK N   1      21.130  18.773   4.873  0.00  0.00     0.038 A 
HETATM   42  C   UNK N   1      20.700  18.720   3.539  0.00  0.00     0.069 A 
HETATM   43  C   UNK N   1      20.826  17.518   2.828  0.00  0.00     0.038 A 
HETATM   44  C   UNK N   1      21.382  16.398   3.436  0.00  0.00     0.018 A 
BRANCH  42  45
HETATM   45  O   UNK N   1      20.199  19.838   2.955  0.00  0.00    -0.347 OA
BRANCH  45  46
HETATM   46  C   UNK N   1      20.956  20.789   2.290  0.00  0.00     0.120 C 
HETATM   47  C   UNK N   1      20.745  20.643   0.798  0.00  0.00     0.040 C 
HETATM   48  C   UNK N   1      22.441  20.652   2.586  0.00  0.00     0.040 C 
ENDBRANCH  45  46
ENDBRANCH  42  45
ENDBRANCH  35  39
ENDBRANCH  23  24
ENDBRANCH   1  23
BRANCH  17  49
HETATM   49  N   UNK N   1      29.394  10.726   5.007  0.00  0.00    -0.324 N 
HETATM   50  C   UNK N   1      29.401   9.585   4.261  0.00  0.00     0.361 C 
HETATM   51  O   UNK N   1      28.647   8.682   4.581  0.00  0.00    -0.238 OA
HETATM   52  H   UNK N   1      28.860  10.687   5.831  0.00  0.00     0.165 HD
BRANCH  50  53
HETATM   53  O   UNK N   1      30.179   9.414   3.164  0.00  0.00    -0.299 OA
BRANCH  53  54
HETATM   54  C   UNK N   1      29.699   9.498   1.881  0.00  0.00     0.133 C 
HETATM   55  C   UNK N   1      30.498  10.467   1.052  0.00  0.00     0.032 C 
HETATM   56  C   UNK N   1      29.545  10.851  -0.064  0.00  0.00     0.002 C 
HETATM   57  C   UNK N   1      28.141  10.680   0.501  0.00  0.00     0.002 C 
HETATM   58  C   UNK N   1      28.308  10.082   1.884  0.00  0.00     0.032 C 
ENDBRANCH  53  54
ENDBRANCH  50  53
ENDBRANCH  17  49
BRANCH   7  59
HETATM   59  C   UNK N   1      29.110  17.014   6.490  0.00  0.00     0.260 C 
HETATM   60  O   UNK N   1      29.481  16.361   7.457  0.00  0.00    -0.270 OA
HETATM   61  N   UNK N   1      28.288  18.065   6.718  0.00  0.00    -0.252 N 
HETATM   62  H   UNK N   1      28.085  18.262   7.661  0.00  0.00     0.181 HD
BRANCH  61  63
HETATM   63  S   UNK N   1      27.544  19.116   5.531  0.00  0.00     0.241 S 
HETATM   64  O   UNK N   1      27.370  20.456   6.254  0.00  0.00    -0.205 OA
HETATM   65  O   UNK N   1      28.638  19.367   4.480  0.00  0.00    -0.205 OA
BRANCH  63  66
HETATM   66  C   UNK N   1      25.994  18.406   4.907  0.00  0.00     0.079 A 
HETATM   67  C   UNK N   1      25.566  18.815   3.519  0.00  0.00     0.028 A 
HETATM   68  C   UNK N   1      24.873  19.403   4.740  0.00  0.00     0.028 A 
HETATM   69  C   UNK N   1      25.537  17.044   5.393  0.00  0.00     0.034 C 
ENDBRANCH  63  66
ENDBRANCH  61  63
ENDBRANCH   7  59
TORSDOF 11
ENDMDL
MODEL 2
REMARK VINA RESULT:      -9.1      4.134     10.324
REMARK  11 active torsions:
REMARK  status: ('A' for Active; 'I' for Inactive)
REMARK    1  A    between atoms: C_2  and  O_4 
REMARK    2  A    between atoms: O_4  and  C_5 
REMARK    3  A    between atoms: C_8  and  C_11 
REMARK    4  A    between atoms: C_23  and  O_26 
REMARK    5  A    between atoms: C_27  and  O_26 
REMARK    6  A    between atoms: C_33  and  C_57 
REMARK    7  A    between atoms: C_43  and  N_48 
REMARK       I    between atoms: N_48  and  C_49 
REMARK    8  A    between atoms: C_49  and  O_51 
REMARK    9  A    between atoms: O_51  and  C_52 
REMARK       I    between atoms: C_57  and  N_59 
REMARK   10  A    between atoms: N_59  and  S_60 
REMARK   11  A    between atoms: S_60  and  C_63 
ROOT
HETATM    1  C   UNK N   1      24.624  14.261   1.607  0.00  0.00     0.151 C 
HETATM    2  C   UNK N   1      24.769  12.746   1.560  0.00  0.00     0.069 C 
HETATM    3  C   UNK N   1      23.406  12.307   1.039  0.00  0.00     0.181 C 
HETATM    4  C   UNK N   1      22.864  11.190   1.905  0.00  0.00     0.241 C 
HETATM    5  O   UNK N   1      23.257  10.043   1.764  0.00  0.00    -0.271 OA
HETATM    6  N   UNK N   1      21.870  11.486   2.782  0.00  0.00    -0.341 N 
HETATM    7  C   UNK N   1      21.000  10.548   3.432  0.00  0.00     0.122 A 
HETATM    8  C   UNK N   1      19.606  11.065   3.131  0.00  0.00     0.053 A 
HETATM    9  C   UNK N   1      20.069   9.866   2.387  0.00  0.00     0.048 A 
HETATM   10  C   UNK N   1      19.067   8.787   2.659  0.00  0.00    -0.023 C 
HETATM   11  C   UNK N   1      17.791   8.867   2.221  0.00  0.00    -0.030 C 
HETATM   12  C   UNK N   1      17.191  10.081   1.537  0.00  0.00     0.027 C 
HETATM   13  C   UNK N   1      17.979  10.570   0.320  0.00  0.00     0.004 C 
HETATM   14  C   UNK N   1      17.753  12.066   0.063  0.00  0.00     0.000 C 
HETATM   15  C   UNK N   1      18.251  12.924   1.227  0.00  0.00     0.002 C 
HETATM   16  C   UNK N   1      18.780  14.280   0.759  0.00  0.00     0.035 C 
HETATM   17  C   UNK N   1      20.235  14.511   1.207  0.00  0.00     0.179 C 
HETATM   18  C   UNK N   1      21.246  13.465   0.758  0.00  0.00     0.243 C 
HETATM   19  O   UNK N   1      20.859  12.538   0.060  0.00  0.00    -0.271 OA
HETATM   20  N   UNK N   1      22.546  13.467   1.200  0.00  0.00    -0.334 N 
HETATM   21  C   UNK N   1      23.170  14.552   1.901  0.00  0.00     0.159 C 
HETATM   22  H   UNK N   1      21.735  12.437   2.993  0.00  0.00     0.163 HD
ENDROOT
BRANCH   1  23
HETATM   23  O   UNK N   1      25.550  14.960   2.355  0.00  0.00    -0.326 OA
BRANCH  23  24
HETATM   24  C   UNK N   1      25.461  15.331   3.655  0.00  0.00     0.181 A 
HETATM   25  C   UNK N   1      26.006  16.539   4.049  0.00  0.00     0.154 A 
HETATM   26  O   UNK N   1      26.623  17.460   3.331  0.00  0.00    -0.303 OA
HETATM   27  C   UNK N   1      25.961  16.913   5.355  0.00  0.00     0.085 A 
HETATM   28  C   UNK N   1      26.976  18.429   4.157  0.00  0.00     0.088 A 
HETATM   29  C   UNK N   1      27.654  19.606   3.860  0.00  0.00     0.038 A 
HETATM   30  C   UNK N   1      26.578  18.129   5.441  0.00  0.00     0.028 A 
HETATM   31  C   UNK N   1      27.920  20.492   4.923  0.00  0.00     0.003 A 
HETATM   32  C   UNK N   1      27.507  20.180   6.241  0.00  0.00     0.001 A 
HETATM   33  C   UNK N   1      26.825  18.978   6.513  0.00  0.00     0.017 A 
HETATM   34  N   UNK N   1      25.406  16.141   6.308  0.00  0.00    -0.339 N 
HETATM   35  C   UNK N   1      24.855  14.941   5.942  0.00  0.00     0.118 A 
ATOM     36  HN  UNK N   1      25.394  16.444   7.282  1.00  0.00     0.167 HD
HETATM   37  N   UNK N   1      24.880  14.541   4.619  0.00  0.00    -0.320 N 
ATOM     38  HN  UNK N   1      24.464  13.648   4.354  1.00  0.00     0.169 HD
BRANCH  35  39
HETATM   39  C   UNK N   1      24.315  14.062   6.996  0.00  0.00     0.008 A 
HETATM   40  C   UNK N   1      25.088  13.660   8.094  0.00  0.00     0.018 A 
HETATM   41  C   UNK N   1      24.511  12.882   9.109  0.00  0.00     0.038 A 
HETATM   42  C   UNK N   1      23.156  12.524   9.049  0.00  0.00     0.069 A 
HETATM   43  C   UNK N   1      22.392  12.922   7.943  0.00  0.00     0.038 A 
HETATM   44  C   UNK N   1      22.970  13.673   6.924  0.00  0.00     0.018 A 
BRANCH  42  45
HETATM   45  O   UNK N   1      22.605  11.826  10.074  0.00  0.00    -0.347 OA
BRANCH  45  46
HETATM   46  C   UNK N   1      22.186  12.382  11.273  0.00  0.00     0.120 C 
HETATM   47  C   UNK N   1      23.024  11.822  12.403  0.00  0.00     0.040 C 
HETATM   48  C   UNK N   1      20.723  12.090  11.562  0.00  0.00     0.040 C 
ENDBRANCH  45  46
ENDBRANCH  42  45
ENDBRANCH  35  39
ENDBRANCH  23  24
ENDBRANCH   1  23
BRANCH  17  49
HETATM   49  N   UNK N   1      20.688  15.886   1.099  0.00  0.00    -0.324 N 
HETATM   50  C   UNK N   1      20.417  16.949   1.907  0.00  0.00     0.361 C 
HETATM   51  O   UNK N   1      20.781  18.056   1.547  0.00  0.00    -0.238 OA
HETATM   52  H   UNK N   1      21.272  16.078   0.332  0.00  0.00     0.165 HD
BRANCH  50  53
HETATM   53  O   UNK N   1      19.736  16.845   3.075  0.00  0.00    -0.299 OA
BRANCH  53  54
HETATM   54  C   UNK N   1      20.291  16.353   4.229  0.00  0.00     0.133 C 
HETATM   55  C   UNK N   1      19.244  15.793   5.154  0.00  0.00     0.032 C 
HETATM   56  C   UNK N   1      19.912  15.834   6.515  0.00  0.00     0.002 C 
HETATM   57  C   UNK N   1      20.929  16.967   6.453  0.00  0.00     0.002 C 
HETATM   58  C   UNK N   1      20.917  17.471   5.023  0.00  0.00     0.032 C 
ENDBRANCH  53  54
ENDBRANCH  50  53
ENDBRANCH  17  49
BRANCH   7  59
HETATM   59  C   UNK N   1      21.038  10.698   4.944  0.00  0.00     0.260 C 
HETATM   60  O   UNK N   1      20.363  11.585   5.451  0.00  0.00    -0.270 OA
HETATM   61  N   UNK N   1      21.813   9.950   5.763  0.00  0.00    -0.252 N 
HETATM   62  H   UNK N   1      21.741  10.142   6.726  0.00  0.00     0.181 HD
BRANCH  61  63
HETATM   63  S   UNK N   1      22.930   8.680   5.310  0.00  0.00     0.241 S 
HETATM   64  O   UNK N   1      22.916   7.709   6.496  0.00  0.00    -0.205 OA
HETATM   65  O   UNK N   1      22.233   7.925   4.166  0.00  0.00    -0.205 OA
BRANCH  63  66
HETATM   66  C   UNK N   1      24.571   9.356   4.928  0.00  0.00     0.079 A 
HETATM   67  C   UNK N   1      25.391   8.618   3.898  0.00  0.00     0.028 A 
HETATM   68  C   UNK N   1      25.724   8.490   5.378  0.00  0.00     0.028 A 
HETATM   69  C   UNK N   1      24.828  10.843   5.072  0.00  0.00     0.034 C 
ENDBRANCH  63  66
ENDBRANCH  61  63
ENDBRANCH   7  59
TORSDOF 11
ENDMDL
MODEL 3
REMARK VINA RESULT:      -9.0      3.054      8.954
REMARK  11 active torsions:
REMARK  status: ('A' for Active; 'I' for Inactive)
REMARK    1  A    between atoms: C_2  and  O_4 
REMARK    2  A    between atoms: O_4  and  C_5 
REMARK    3  A    between atoms: C_8  and  C_11 
REMARK    4  A    between atoms: C_23  and  O_26 
REMARK    5  A    between atoms: C_27  and  O_26 
REMARK    6  A    between atoms: C_33  and  C_57 
REMARK    7  A    between atoms: C_43  and  N_48 
REMARK       I    between atoms: N_48  and  C_49 
REMARK    8  A    between atoms: C_49  and  O_51 
REMARK    9  A    between atoms: O_51  and  C_52 
REMARK       I    between atoms: C_57  and  N_59 
REMARK   10  A    between atoms: N_59  and  S_60 
REMARK   11  A    between atoms: S_60  and  C_63 
ROOT
HETATM    1  C   UNK N   1      25.747  14.309   6.259  0.00  0.00     0.151 C 
HETATM    2  C   UNK N   1      24.421  13.767   6.776  0.00  0.00     0.069 C 
HETATM    3  C   UNK N   1      24.022  12.788   5.679  0.00  0.00     0.181 C 
HETATM    4  C   UNK N   1      22.582  13.028   5.279  0.00  0.00     0.241 C 
HETATM    5  O   UNK N   1      21.665  12.596   5.960  0.00  0.00    -0.271 OA
HETATM    6  N   UNK N   1      22.342  13.661   4.102  0.00  0.00    -0.341 N 
HETATM    7  C   UNK N   1      21.099  13.685   3.385  0.00  0.00     0.122 A 
HETATM    8  C   UNK N   1      21.470  13.234   1.985  0.00  0.00     0.053 A 
HETATM    9  C   UNK N   1      20.759  12.262   2.854  0.00  0.00     0.048 A 
HETATM   10  C   UNK N   1      19.520  11.861   2.114  0.00  0.00    -0.023 C 
HETATM   11  C   UNK N   1      19.570  11.164   0.957  0.00  0.00    -0.030 C 
HETATM   12  C   UNK N   1      20.847  10.824   0.212  0.00  0.00     0.027 C 
HETATM   13  C   UNK N   1      21.900  10.111   1.063  0.00  0.00     0.004 C 
HETATM   14  C   UNK N   1      23.318  10.352   0.528  0.00  0.00     0.000 C 
HETATM   15  C   UNK N   1      23.702  11.831   0.583  0.00  0.00     0.002 C 
HETATM   16  C   UNK N   1      25.196  12.030   0.840  0.00  0.00     0.035 C 
HETATM   17  C   UNK N   1      25.450  12.894   2.089  0.00  0.00     0.179 C 
HETATM   18  C   UNK N   1      24.845  12.383   3.389  0.00  0.00     0.243 C 
HETATM   19  O   UNK N   1      24.228  11.327   3.372  0.00  0.00    -0.271 OA
HETATM   20  N   UNK N   1      24.871  13.120   4.548  0.00  0.00    -0.334 N 
HETATM   21  C   UNK N   1      25.666  14.297   4.750  0.00  0.00     0.159 C 
HETATM   22  H   UNK N   1      23.095  14.153   3.703  0.00  0.00     0.163 HD
ENDROOT
BRANCH   1  23
HETATM   23  O   UNK N   1      26.221  15.470   6.837  0.00  0.00    -0.326 OA
BRANCH  23  24
HETATM   24  C   UNK N   1      27.069  16.380   6.299  0.00  0.00     0.181 A 
HETATM   25  C   UNK N   1      26.555  17.396   5.513  0.00  0.00     0.154 A 
HETATM   26  O   UNK N   1      25.303  17.659   5.188  0.00  0.00    -0.303 OA
HETATM   27  C   UNK N   1      27.391  18.297   4.933  0.00  0.00     0.085 A 
HETATM   28  C   UNK N   1      25.317  18.724   4.406  0.00  0.00     0.088 A 
HETATM   29  C   UNK N   1      24.236  19.369   3.813  0.00  0.00     0.038 A 
HETATM   30  C   UNK N   1      26.610  19.161   4.220  0.00  0.00     0.028 A 
HETATM   31  C   UNK N   1      24.509  20.495   3.012  0.00  0.00     0.003 A 
HETATM   32  C   UNK N   1      25.839  20.941   2.824  0.00  0.00     0.001 A 
HETATM   33  C   UNK N   1      26.914  20.267   3.434  0.00  0.00     0.017 A 
HETATM   34  N   UNK N   1      28.727  18.242   5.083  0.00  0.00    -0.339 N 
HETATM   35  C   UNK N   1      29.261  17.247   5.860  0.00  0.00     0.118 A 
ATOM     36  HN  UNK N   1      29.331  18.928   4.628  1.00  0.00     0.167 HD
HETATM   37  N   UNK N   1      28.432  16.323   6.468  0.00  0.00    -0.320 N 
ATOM     38  HN  UNK N   1      28.836  15.589   7.049  1.00  0.00     0.169 HD
BRANCH  35  39
HETATM   39  C   UNK N   1      30.728  17.142   5.963  0.00  0.00     0.008 A 
HETATM   40  C   UNK N   1      31.366  16.818   7.168  0.00  0.00     0.018 A 
HETATM   41  C   UNK N   1      32.759  16.660   7.203  0.00  0.00     0.038 A 
HETATM   42  C   UNK N   1      33.521  16.796   6.033  0.00  0.00     0.069 A 
HETATM   43  C   UNK N   1      32.877  17.131   4.834  0.00  0.00     0.038 A 
HETATM   44  C   UNK N   1      31.498  17.312   4.803  0.00  0.00     0.018 A 
BRANCH  42  45
HETATM   45  O   UNK N   1      34.859  16.574   6.079  0.00  0.00    -0.347 OA
BRANCH  45  46
HETATM   46  C   UNK N   1      35.453  15.322   6.066  0.00  0.00     0.120 C 
HETATM   47  C   UNK N   1      34.867  14.503   4.935  0.00  0.00     0.040 C 
HETATM   48  C   UNK N   1      35.241  14.572   7.370  0.00  0.00     0.040 C 
ENDBRANCH  45  46
ENDBRANCH  42  45
ENDBRANCH  35  39
ENDBRANCH  23  24
ENDBRANCH   1  23
BRANCH  17  49
HETATM   49  N   UNK N   1      26.805  13.403   2.204  0.00  0.00    -0.324 N 
HETATM   50  C   UNK N   1      27.965  12.725   2.434  0.00  0.00     0.361 C 
HETATM   51  O   UNK N   1      28.979  13.369   2.642  0.00  0.00    -0.238 OA
HETATM   52  H   UNK N   1      26.900  14.376   2.101  0.00  0.00     0.165 HD
BRANCH  50  53
HETATM   53  O   UNK N   1      28.043  11.371   2.476  0.00  0.00    -0.299 OA
BRANCH  53  54
HETATM   54  C   UNK N   1      28.903  10.643   1.692  0.00  0.00     0.133 C 
HETATM   55  C   UNK N   1      28.668  10.899   0.227  0.00  0.00     0.032 C 
HETATM   56  C   UNK N   1      29.248   9.671  -0.446  0.00  0.00     0.002 C 
HETATM   57  C   UNK N   1      29.147   8.542   0.572  0.00  0.00     0.002 C 
HETATM   58  C   UNK N   1      28.629   9.169   1.852  0.00  0.00     0.032 C 
ENDBRANCH  53  54
ENDBRANCH  50  53
ENDBRANCH  17  49
BRANCH   7  59
HETATM   59  C   UNK N   1      20.633  15.105   3.112  0.00  0.00     0.260 C 
HETATM   60  O   UNK N   1      20.998  15.641   2.074  0.00  0.00    -0.270 OA
HETATM   61  N   UNK N   1      19.885  15.838   3.970  0.00  0.00    -0.252 N 
HETATM   62  H   UNK N   1      19.644  16.745   3.671  0.00  0.00     0.181 HD
BRANCH  61  63
HETATM   63  S   UNK N   1      19.297  15.362   5.549  0.00  0.00     0.241 S 
HETATM   64  O   UNK N   1      17.941  16.062   5.685  0.00  0.00    -0.205 OA
HETATM   65  O   UNK N   1      18.965  13.867   5.417  0.00  0.00    -0.205 OA
BRANCH  63  66
HETATM   66  C   UNK N   1      20.487  15.797   6.850  0.00  0.00     0.079 A 
HETATM   67  C   UNK N   1      20.424  14.998   8.128  0.00  0.00     0.028 A 
HETATM   68  C   UNK N   1      19.869  16.414   8.081  0.00  0.00     0.028 A 
HETATM   69  C   UNK N   1      21.832  16.388   6.477  0.00  0.00     0.034 C 
ENDBRANCH  63  66
ENDBRANCH  61  63
ENDBRANCH   7  59
TORSDOF 11
ENDMDL
MODEL 4
REMARK VINA RESULT:      -9.0      5.159      8.992
REMARK  11 active torsions:
REMARK  status: ('A' for Active; 'I' for Inactive)
REMARK    1  A    between atoms: C_2  and  O_4 
REMARK    2  A    between atoms: O_4  and  C_5 
REMARK    3  A    between atoms: C_8  and  C_11 
REMARK    4  A    between atoms: C_23  and  O_26 
REMARK    5  A    between atoms: C_27  and  O_26 
REMARK    6  A    between atoms: C_33  and  C_57 
REMARK    7  A    between atoms: C_43  and  N_48 
REMARK       I    between atoms: N_48  and  C_49 
REMARK    8  A    between atoms: C_49  and  O_51 
REMARK    9  A    between atoms: O_51  and  C_52 
REMARK       I    between atoms: C_57  and  N_59 
REMARK   10  A    between atoms: N_59  and  S_60 
REMARK   11  A    between atoms: S_60  and  C_63 
ROOT
HETATM    1  C   UNK N   1      31.913  16.472   7.082  0.00  0.00     0.151 C 
HETATM    2  C   UNK N   1      32.640  16.777   8.385  0.00  0.00     0.069 C 
HETATM    3  C   UNK N   1      34.071  16.367   8.060  0.00  0.00     0.181 C 
HETATM    4  C   UNK N   1      34.616  15.492   9.169  0.00  0.00     0.241 C 
HETATM    5  O   UNK N   1      35.022  15.984  10.210  0.00  0.00    -0.271 OA
HETATM    6  N   UNK N   1      34.717  14.157   8.939  0.00  0.00    -0.341 N 
HETATM    7  C   UNK N   1      35.499  13.220   9.693  0.00  0.00     0.122 A 
HETATM    8  C   UNK N   1      36.336  12.509   8.646  0.00  0.00     0.053 A 
HETATM    9  C   UNK N   1      37.016  13.512   9.505  0.00  0.00     0.048 A 
HETATM   10  C   UNK N   1      38.150  12.798  10.173  0.00  0.00    -0.023 C 
HETATM   11  C   UNK N   1      39.204  12.317   9.478  0.00  0.00    -0.030 C 
HETATM   12  C   UNK N   1      39.309  12.320   7.964  0.00  0.00     0.027 C 
HETATM   13  C   UNK N   1      39.099  13.692   7.321  0.00  0.00     0.004 C 
HETATM   14  C   UNK N   1      38.587  13.571   5.880  0.00  0.00     0.000 C 
HETATM   15  C   UNK N   1      37.217  12.893   5.819  0.00  0.00     0.002 C 
HETATM   16  C   UNK N   1      36.361  13.427   4.671  0.00  0.00     0.035 C 
HETATM   17  C   UNK N   1      35.012  13.976   5.173  0.00  0.00     0.179 C 
HETATM   18  C   UNK N   1      35.087  15.082   6.216  0.00  0.00     0.243 C 
HETATM   19  O   UNK N   1      36.189  15.480   6.568  0.00  0.00    -0.271 OA
HETATM   20  N   UNK N   1      33.971  15.564   6.853  0.00  0.00    -0.334 N 
HETATM   21  C   UNK N   1      32.620  15.294   6.452  0.00  0.00     0.159 C 
HETATM   22  H   UNK N   1      34.202  13.799   8.181  0.00  0.00     0.163 HD
ENDROOT
BRANCH   1  23
HETATM   23  O   UNK N   1      30.535  16.403   7.132  0.00  0.00    -0.326 OA
BRANCH  23  24
HETATM   24  C   UNK N   1      29.665  16.393   6.093  0.00  0.00     0.181 A 
HETATM   25  C   UNK N   1      28.832  17.481   5.903  0.00  0.00     0.154 A 
HETATM   26  O   UNK N   1      28.741  18.603   6.591  0.00  0.00    -0.303 OA
HETATM   27  C   UNK N   1      27.925  17.475   4.890  0.00  0.00     0.085 A 
HETATM   28  C   UNK N   1      27.788  19.329   6.033  0.00  0.00     0.088 A 
HETATM   29  C   UNK N   1      27.332  20.587   6.414  0.00  0.00     0.038 A 
HETATM   30  C   UNK N   1      27.248  18.659   4.957  0.00  0.00     0.028 A 
HETATM   31  C   UNK N   1      26.292  21.160   5.655  0.00  0.00     0.003 A 
HETATM   32  C   UNK N   1      25.741  20.469   4.549  0.00  0.00     0.001 A 
HETATM   33  C   UNK N   1      26.221  19.195   4.189  0.00  0.00     0.017 A 
HETATM   34  N   UNK N   1      27.790  16.434   4.048  0.00  0.00    -0.339 N 
HETATM   35  C   UNK N   1      28.608  15.346   4.212  0.00  0.00     0.118 A 
ATOM     36  HN  UNK N   1      27.095  16.455   3.301  1.00  0.00     0.167 HD
HETATM   37  N   UNK N   1      29.544  15.330   5.230  0.00  0.00    -0.320 N 
ATOM     38  HN  UNK N   1      30.152  14.519   5.342  1.00  0.00     0.169 HD
BRANCH  35  39
HETATM   39  C   UNK N   1      28.409  14.176   3.337  0.00  0.00     0.008 A 
HETATM   40  C   UNK N   1      27.323  13.305   3.500  0.00  0.00     0.018 A 
HETATM   41  C   UNK N   1      27.135  12.245   2.600  0.00  0.00     0.038 A 
HETATM   42  C   UNK N   1      28.010  12.064   1.520  0.00  0.00     0.069 A 
HETATM   43  C   UNK N   1      29.100  12.933   1.370  0.00  0.00     0.038 A 
HETATM   44  C   UNK N   1      29.301  13.970   2.275  0.00  0.00     0.018 A 
BRANCH  42  45
HETATM   45  O   UNK N   1      27.770  11.071   0.626  0.00  0.00    -0.347 OA
BRANCH  45  46
HETATM   46  C   UNK N   1      28.472   9.878   0.564  0.00  0.00     0.120 C 
HETATM   47  C   UNK N   1      29.399   9.905  -0.633  0.00  0.00     0.040 C 
HETATM   48  C   UNK N   1      27.552   8.675   0.438  0.00  0.00     0.040 C 
ENDBRANCH  45  46
ENDBRANCH  42  45
ENDBRANCH  35  39
ENDBRANCH  23  24
ENDBRANCH   1  23
BRANCH  17  49
HETATM   49  N   UNK N   1      34.021  14.183   4.132  0.00  0.00    -0.324 N 
HETATM   50  C   UNK N   1      33.384  13.265   3.353  0.00  0.00     0.361 C 
HETATM   51  O   UNK N   1      32.694  13.668   2.432  0.00  0.00    -0.238 OA
HETATM   52  H   UNK N   1      33.776  15.120   3.964  0.00  0.00     0.165 HD
BRANCH  50  53
HETATM   53  O   UNK N   1      33.502  11.925   3.528  0.00  0.00    -0.299 OA
BRANCH  53  54
HETATM   54  C   UNK N   1      32.495  11.140   4.029  0.00  0.00     0.133 C 
HETATM   55  C   UNK N   1      31.739  10.440   2.931  0.00  0.00     0.032 C 
HETATM   56  C   UNK N   1      30.402  10.117   3.569  0.00  0.00     0.002 C 
HETATM   57  C   UNK N   1      30.183  11.170   4.649  0.00  0.00     0.002 C 
HETATM   58  C   UNK N   1      31.451  11.999   4.698  0.00  0.00     0.032 C 
ENDBRANCH  53  54
ENDBRANCH  50  53
ENDBRANCH  17  49
BRANCH   7  59
HETATM   59  C   UNK N   1      34.654  12.068  10.210  0.00  0.00     0.260 C 
HETATM   60  O   UNK N   1      34.036  11.396   9.395  0.00  0.00    -0.270 OA
HETATM   61  N   UNK N   1      34.493  11.771  11.521  0.00  0.00    -0.252 N 
HETATM   62  H   UNK N   1      33.924  10.995  11.725  0.00  0.00     0.181 HD
BRANCH  61  63
HETATM   63  S   UNK N   1      35.182  12.608  12.898  0.00  0.00     0.241 S 
HETATM   64  O   UNK N   1      36.697  12.498  12.700  0.00  0.00    -0.205 OA
HETATM   65  O   UNK N   1      34.854  14.092  12.667  0.00  0.00    -0.205 OA
BRANCH  63  66
HETATM   66  C   UNK N   1      34.586  11.899  14.459  0.00  0.00     0.079 A 
HETATM   67  C   UNK N   1      34.500  12.831  15.643  0.00  0.00     0.028 A 
HETATM   68  C   UNK N   1      35.631  11.817  15.546  0.00  0.00     0.028 A 
HETATM   69  C   UNK N   1      33.627  10.725  14.440  0.00  0.00     0.034 C 
ENDBRANCH  63  66
ENDBRANCH  61  63
ENDBRANCH   7  59
TORSDOF 11
ENDMDL
MODEL 5
REMARK VINA RESULT:      -8.9      2.769      8.481
REMARK  11 active torsions:
REMARK  status: ('A' for Active; 'I' for Inactive)
REMARK    1  A    between atoms: C_2  and  O_4 
REMARK    2  A    between atoms: O_4  and  C_5 
REMARK    3  A    between atoms: C_8  and  C_11 
REMARK    4  A    between atoms: C_23  and  O_26 
REMARK    5  A    between atoms: C_27  and  O_26 
REMARK    6  A    between atoms: C_33  and  C_57 
REMARK    7  A    between atoms: C_43  and  N_48 
REMARK       I    between atoms: N_48  and  C_49 
REMARK    8  A    between atoms: C_49  and  O_51 
REMARK    9  A    between atoms: O_51  and  C_52 
REMARK       I    between atoms: C_57  and  N_59 
REMARK   10  A    between atoms: N_59  and  S_60 
REMARK   11  A    between atoms: S_60  and  C_63 
ROOT
HETATM    1  C   UNK N   1      25.660  14.350   6.890  0.00  0.00     0.151 C 
HETATM    2  C   UNK N   1      24.165  14.153   6.680  0.00  0.00     0.069 C 
HETATM    3  C   UNK N   1      24.117  12.851   5.890  0.00  0.00     0.181 C 
HETATM    4  C   UNK N   1      23.211  13.016   4.688  0.00  0.00     0.241 C 
HETATM    5  O   UNK N   1      21.998  12.957   4.808  0.00  0.00    -0.271 OA
HETATM    6  N   UNK N   1      23.788  13.149   3.466  0.00  0.00    -0.341 N 
HETATM    7  C   UNK N   1      23.143  12.976   2.196  0.00  0.00     0.122 A 
HETATM    8  C   UNK N   1      24.026  11.983   1.463  0.00  0.00     0.053 A 
HETATM    9  C   UNK N   1      22.733  11.488   2.000  0.00  0.00     0.048 A 
HETATM   10  C   UNK N   1      21.983  10.917   0.836  0.00  0.00    -0.023 C 
HETATM   11  C   UNK N   1      22.411   9.818   0.177  0.00  0.00    -0.030 C 
HETATM   12  C   UNK N   1      23.733   9.120   0.435  0.00  0.00     0.027 C 
HETATM   13  C   UNK N   1      23.962   8.728   1.896  0.00  0.00     0.004 C 
HETATM   14  C   UNK N   1      25.456   8.635   2.230  0.00  0.00     0.000 C 
HETATM   15  C   UNK N   1      26.159   9.984   2.070  0.00  0.00     0.002 C 
HETATM   16  C   UNK N   1      27.304  10.160   3.067  0.00  0.00     0.035 C 
HETATM   17  C   UNK N   1      27.124  11.427   3.925  0.00  0.00     0.179 C 
HETATM   18  C   UNK N   1      25.830  11.516   4.721  0.00  0.00     0.243 C 
HETATM   19  O   UNK N   1      25.037  10.587   4.656  0.00  0.00    -0.271 OA
HETATM   20  N   UNK N   1      25.474  12.647   5.414  0.00  0.00    -0.334 N 
HETATM   21  C   UNK N   1      26.352  13.748   5.688  0.00  0.00     0.159 C 
HETATM   22  H   UNK N   1      24.743  13.387   3.451  0.00  0.00     0.163 HD
ENDROOT
BRANCH   1  23
HETATM   23  O   UNK N   1      26.083  15.607   7.273  0.00  0.00    -0.326 OA
BRANCH  23  24
HETATM   24  C   UNK N   1      26.925  16.438   6.612  0.00  0.00     0.181 A 
HETATM   25  C   UNK N   1      26.400  17.368   5.733  0.00  0.00     0.154 A 
HETATM   26  O   UNK N   1      25.141  17.614   5.418  0.00  0.00    -0.303 OA
HETATM   27  C   UNK N   1      27.229  18.186   5.032  0.00  0.00     0.085 A 
HETATM   28  C   UNK N   1      25.145  18.585   4.522  0.00  0.00     0.088 A 
HETATM   29  C   UNK N   1      24.055  19.176   3.892  0.00  0.00     0.038 A 
HETATM   30  C   UNK N   1      26.437  18.978   4.250  0.00  0.00     0.028 A 
HETATM   31  C   UNK N   1      24.316  20.202   2.962  0.00  0.00     0.003 A 
HETATM   32  C   UNK N   1      25.646  20.604   2.688  0.00  0.00     0.001 A 
HETATM   33  C   UNK N   1      26.730  19.984   3.337  0.00  0.00     0.017 A 
HETATM   34  N   UNK N   1      28.568  18.127   5.148  0.00  0.00    -0.339 N 
HETATM   35  C   UNK N   1      29.113  17.216   6.015  0.00  0.00     0.118 A 
ATOM     36  HN  UNK N   1      29.166  18.748   4.602  1.00  0.00     0.167 HD
HETATM   37  N   UNK N   1      28.292  16.379   6.747  0.00  0.00    -0.320 N 
ATOM     38  HN  UNK N   1      28.704  15.707   7.394  1.00  0.00     0.169 HD
BRANCH  35  39
HETATM   39  C   UNK N   1      30.582  17.100   6.086  0.00  0.00     0.008 A 
HETATM   40  C   UNK N   1      31.228  16.542   7.198  0.00  0.00     0.018 A 
HETATM   41  C   UNK N   1      32.622  16.387   7.192  0.00  0.00     0.038 A 
HETATM   42  C   UNK N   1      33.375  16.761   6.069  0.00  0.00     0.069 A 
HETATM   43  C   UNK N   1      32.723  17.328   4.966  0.00  0.00     0.038 A 
HETATM   44  C   UNK N   1      31.343  17.504   4.981  0.00  0.00     0.018 A 
BRANCH  42  45
HETATM   45  O   UNK N   1      34.715  16.541   6.062  0.00  0.00    -0.347 OA
BRANCH  45  46
HETATM   46  C   UNK N   1      35.312  15.312   5.831  0.00  0.00     0.120 C 
HETATM   47  C   UNK N   1      34.420  14.484   4.930  0.00  0.00     0.040 C 
HETATM   48  C   UNK N   1      35.555  14.540   7.117  0.00  0.00     0.040 C 
ENDBRANCH  45  46
ENDBRANCH  42  45
ENDBRANCH  35  39
ENDBRANCH  23  24
ENDBRANCH   1  23
BRANCH  17  49
HETATM   49  N   UNK N   1      28.315  11.840   4.644  0.00  0.00    -0.324 N 
HETATM   50  C   UNK N   1      29.507  12.287   4.156  0.00  0.00     0.361 C 
HETATM   51  O   UNK N   1      30.430  12.440   4.937  0.00  0.00    -0.238 OA
HETATM   52  H   UNK N   1      28.254  11.791   5.625  0.00  0.00     0.165 HD
BRANCH  50  53
HETATM   53  O   UNK N   1      29.729  12.539   2.842  0.00  0.00    -0.299 OA
BRANCH  53  54
HETATM   54  C   UNK N   1      29.420  13.734   2.243  0.00  0.00     0.133 C 
HETATM   55  C   UNK N   1      29.714  14.900   3.148  0.00  0.00     0.032 C 
HETATM   56  C   UNK N   1      28.831  16.006   2.602  0.00  0.00     0.002 C 
HETATM   57  C   UNK N   1      27.648  15.313   1.937  0.00  0.00     0.002 C 
HETATM   58  C   UNK N   1      27.934  13.826   2.001  0.00  0.00     0.032 C 
ENDBRANCH  53  54
ENDBRANCH  50  53
ENDBRANCH  17  49
BRANCH   7  59
HETATM   59  C   UNK N   1      23.301  14.202   1.313  0.00  0.00     0.260 C 
HETATM   60  O   UNK N   1      24.360  14.348   0.714  0.00  0.00    -0.270 OA
HETATM   61  N   UNK N   1      22.369  15.175   1.187  0.00  0.00    -0.252 N 
HETATM   62  H   UNK N   1      22.591  15.915   0.578  0.00  0.00     0.181 HD
BRANCH  61  63
HETATM   63  S   UNK N   1      20.812  15.271   1.985  0.00  0.00     0.241 S 
HETATM   64  O   UNK N   1      19.844  15.734   0.891  0.00  0.00    -0.205 OA
HETATM   65  O   UNK N   1      20.421  13.812   2.273  0.00  0.00    -0.205 OA
BRANCH  63  66
HETATM   66  C   UNK N   1      20.881  16.372   3.426  0.00  0.00     0.079 A 
HETATM   67  C   UNK N   1      19.562  16.812   4.013  0.00  0.00     0.028 A 
HETATM   68  C   UNK N   1      20.384  17.773   3.166  0.00  0.00     0.028 A 
HETATM   69  C   UNK N   1      22.064  16.306   4.372  0.00  0.00     0.034 C 
ENDBRANCH  63  66
ENDBRANCH  61  63
ENDBRANCH   7  59
TORSDOF 11
ENDMDL
MODEL 6
REMARK VINA RESULT:      -8.7      3.094     10.462
REMARK  11 active torsions:
REMARK  status: ('A' for Active; 'I' for Inactive)
REMARK    1  A    between atoms: C_2  and  O_4 
REMARK    2  A    between atoms: O_4  and  C_5 
REMARK    3  A    between atoms: C_8  and  C_11 
REMARK    4  A    between atoms: C_23  and  O_26 
REMARK    5  A    between atoms: C_27  and  O_26 
REMARK    6  A    between atoms: C_33  and  C_57 
REMARK    7  A    between atoms: C_43  and  N_48 
REMARK       I    between atoms: N_48  and  C_49 
REMARK    8  A    between atoms: C_49  and  O_51 
REMARK    9  A    between atoms: O_51  and  C_52 
REMARK       I    between atoms: C_57  and  N_59 
REMARK   10  A    between atoms: N_59  and  S_60 
REMARK   11  A    between atoms: S_60  and  C_63 
ROOT
HETATM    1  C   UNK N   1      29.072  13.646   2.447  0.00  0.00     0.151 C 
HETATM    2  C   UNK N   1      27.722  12.990   2.194  0.00  0.00     0.069 C 
HETATM    3  C   UNK N   1      26.762  14.166   2.323  0.00  0.00     0.181 C 
HETATM    4  C   UNK N   1      25.610  13.787   3.231  0.00  0.00     0.241 C 
HETATM    5  O   UNK N   1      24.683  13.111   2.814  0.00  0.00    -0.271 OA
HETATM    6  N   UNK N   1      25.598  14.290   4.492  0.00  0.00    -0.341 N 
HETATM    7  C   UNK N   1      24.470  14.342   5.378  0.00  0.00     0.122 A 
HETATM    8  C   UNK N   1      24.403  15.795   5.808  0.00  0.00     0.053 A 
HETATM    9  C   UNK N   1      23.397  15.322   4.823  0.00  0.00     0.048 A 
HETATM   10  C   UNK N   1      22.054  15.604   5.423  0.00  0.00    -0.023 C 
HETATM   11  C   UNK N   1      21.613  16.863   5.636  0.00  0.00    -0.030 C 
HETATM   12  C   UNK N   1      22.448  18.113   5.427  0.00  0.00     0.027 C 
HETATM   13  C   UNK N   1      23.078  18.224   4.037  0.00  0.00     0.004 C 
HETATM   14  C   UNK N   1      24.351  19.079   4.059  0.00  0.00     0.000 C 
HETATM   15  C   UNK N   1      25.439  18.457   4.936  0.00  0.00     0.002 C 
HETATM   16  C   UNK N   1      26.843  18.750   4.408  0.00  0.00     0.035 C 
HETATM   17  C   UNK N   1      27.638  17.456   4.151  0.00  0.00     0.179 C 
HETATM   18  C   UNK N   1      27.005  16.463   3.187  0.00  0.00     0.243 C 
HETATM   19  O   UNK N   1      25.939  16.755   2.663  0.00  0.00    -0.271 OA
HETATM   20  N   UNK N   1      27.530  15.212   2.975  0.00  0.00    -0.334 N 
HETATM   21  C   UNK N   1      28.830  14.788   3.407  0.00  0.00     0.159 C 
HETATM   22  H   UNK N   1      26.447  14.654   4.832  0.00  0.00     0.163 HD
ENDROOT
BRANCH   1  23
HETATM   23  O   UNK N   1      30.132  12.812   2.744  0.00  0.00    -0.326 OA
BRANCH  23  24
HETATM   24  C   UNK N   1      31.429  13.153   2.938  0.00  0.00     0.181 A 
HETATM   25  C   UNK N   1      32.349  12.898   1.937  0.00  0.00     0.154 A 
HETATM   26  O   UNK N   1      32.170  12.361   0.744  0.00  0.00    -0.303 OA
HETATM   27  C   UNK N   1      33.661  13.196   2.126  0.00  0.00     0.085 A 
HETATM   28  C   UNK N   1      33.351  12.312   0.155  0.00  0.00     0.088 A 
HETATM   29  C   UNK N   1      33.661  11.824  -1.109  0.00  0.00     0.038 A 
HETATM   30  C   UNK N   1      34.320  12.829   0.987  0.00  0.00     0.028 A 
HETATM   31  C   UNK N   1      35.009  11.878  -1.517  0.00  0.00     0.003 A 
HETATM   32  C   UNK N   1      36.000  12.412  -0.659  0.00  0.00     0.001 A 
HETATM   33  C   UNK N   1      35.658  12.896   0.617  0.00  0.00     0.017 A 
HETATM   34  N   UNK N   1      34.122  13.733   3.271  0.00  0.00    -0.339 N 
HETATM   35  C   UNK N   1      33.230  13.999   4.277  0.00  0.00     0.118 A 
ATOM     36  HN  UNK N   1      35.115  13.939   3.388  1.00  0.00     0.167 HD
HETATM   37  N   UNK N   1      31.888  13.712   4.107  0.00  0.00    -0.320 N 
ATOM     38  HN  UNK N   1      31.229  13.918   4.859  1.00  0.00     0.169 HD
BRANCH  35  39
HETATM   39  C   UNK N   1      33.745  14.517   5.559  0.00  0.00     0.008 A 
HETATM   40  C   UNK N   1      34.883  13.976   6.173  0.00  0.00     0.018 A 
HETATM   41  C   UNK N   1      35.378  14.546   7.355  0.00  0.00     0.038 A 
HETATM   42  C   UNK N   1      34.759  15.673   7.916  0.00  0.00     0.069 A 
HETATM   43  C   UNK N   1      33.615  16.201   7.302  0.00  0.00     0.038 A 
HETATM   44  C   UNK N   1      33.110  15.622   6.143  0.00  0.00     0.018 A 
BRANCH  42  45
HETATM   45  O   UNK N   1      35.295  16.245   9.024  0.00  0.00    -0.347 OA
BRANCH  45  46
HETATM   46  C   UNK N   1      34.758  16.154  10.298  0.00  0.00     0.120 C 
HETATM   47  C   UNK N   1      35.882  16.063  11.309  0.00  0.00     0.040 C 
HETATM   48  C   UNK N   1      33.861  14.938  10.458  0.00  0.00     0.040 C 
ENDBRANCH  45  46
ENDBRANCH  42  45
ENDBRANCH  35  39
ENDBRANCH  23  24
ENDBRANCH   1  23
BRANCH  17  49
HETATM   49  N   UNK N   1      29.066  17.652   3.978  0.00  0.00    -0.324 N 
HETATM   50  C   UNK N   1      30.068  17.549   4.896  0.00  0.00     0.361 C 
HETATM   51  O   UNK N   1      31.189  17.903   4.570  0.00  0.00    -0.238 OA
HETATM   52  H   UNK N   1      29.352  17.894   3.069  0.00  0.00     0.165 HD
BRANCH  50  53
HETATM   53  O   UNK N   1      29.879  17.104   6.163  0.00  0.00    -0.299 OA
BRANCH  53  54
HETATM   54  C   UNK N   1      29.472  17.916   7.192  0.00  0.00     0.133 C 
HETATM   55  C   UNK N   1      30.453  17.898   8.334  0.00  0.00     0.032 C 
HETATM   56  C   UNK N   1      29.623  18.342   9.523  0.00  0.00     0.002 C 
HETATM   57  C   UNK N   1      28.187  17.938   9.212  0.00  0.00     0.002 C 
HETATM   58  C   UNK N   1      28.197  17.386   7.800  0.00  0.00     0.032 C 
ENDBRANCH  53  54
ENDBRANCH  50  53
ENDBRANCH  17  49
BRANCH   7  59
HETATM   59  C   UNK N   1      24.766  13.666   6.706  0.00  0.00     0.260 C 
HETATM   60  O   UNK N   1      25.358  14.312   7.562  0.00  0.00    -0.270 OA
HETATM   61  N   UNK N   1      24.467  12.376   6.987  0.00  0.00    -0.252 N 
HETATM   62  H   UNK N   1      24.705  12.060   7.889  0.00  0.00     0.181 HD
BRANCH  61  63
HETATM   63  S   UNK N   1      23.704  11.204   5.934  0.00  0.00     0.241 S 
HETATM   64  O   UNK N   1      24.679  11.042   4.763  0.00  0.00    -0.205 OA
HETATM   65  O   UNK N   1      23.775   9.873   6.700  0.00  0.00    -0.205 OA
BRANCH  63  66
HETATM   66  C   UNK N   1      22.043  11.747   5.443  0.00  0.00     0.079 A 
HETATM   67  C   UNK N   1      21.188  12.382   6.513  0.00  0.00     0.028 A 
HETATM   68  C   UNK N   1      20.918  10.954   6.063  0.00  0.00     0.028 A 
HETATM   69  C   UNK N   1      21.778  12.173   4.013  0.00  0.00     0.034 C 
ENDBRANCH  63  66
ENDBRANCH  61  63
ENDBRANCH   7  59
TORSDOF 11
ENDMDL
MODEL 7
REMARK VINA RESULT:      -8.7      6.710     12.338
REMARK  11 active torsions:
REMARK  status: ('A' for Active; 'I' for Inactive)
REMARK    1  A    between atoms: C_2  and  O_4 
REMARK    2  A    between atoms: O_4  and  C_5 
REMARK    3  A    between atoms: C_8  and  C_11 
REMARK    4  A    between atoms: C_23  and  O_26 
REMARK    5  A    between atoms: C_27  and  O_26 
REMARK    6  A    between atoms: C_33  and  C_57 
REMARK    7  A    between atoms: C_43  and  N_48 
REMARK       I    between atoms: N_48  and  C_49 
REMARK    8  A    between atoms: C_49  and  O_51 
REMARK    9  A    between atoms: O_51  and  C_52 
REMARK       I    between atoms: C_57  and  N_59 
REMARK   10  A    between atoms: N_59  and  S_60 
REMARK   11  A    between atoms: S_60  and  C_63 
ROOT
HETATM    1  C   UNK N   1      37.297  13.683   9.310  0.00  0.00     0.151 C 
HETATM    2  C   UNK N   1      37.762  12.595   8.353  0.00  0.00     0.069 C 
HETATM    3  C   UNK N   1      37.213  13.082   7.018  0.00  0.00     0.181 C 
HETATM    4  C   UNK N   1      36.497  11.948   6.316  0.00  0.00     0.241 C 
HETATM    5  O   UNK N   1      37.124  11.090   5.714  0.00  0.00    -0.271 OA
HETATM    6  N   UNK N   1      35.139  11.959   6.305  0.00  0.00    -0.341 N 
HETATM    7  C   UNK N   1      34.287  11.199   5.434  0.00  0.00     0.122 A 
HETATM    8  C   UNK N   1      33.363  12.235   4.822  0.00  0.00     0.053 A 
HETATM    9  C   UNK N   1      34.447  11.689   3.966  0.00  0.00     0.048 A 
HETATM   10  C   UNK N   1      33.778  11.110   2.757  0.00  0.00    -0.023 C 
HETATM   11  C   UNK N   1      33.124  11.881   1.861  0.00  0.00    -0.030 C 
HETATM   12  C   UNK N   1      32.874  13.368   2.027  0.00  0.00     0.027 C 
HETATM   13  C   UNK N   1      34.134  14.192   2.299  0.00  0.00     0.004 C 
HETATM   14  C   UNK N   1      33.813  15.483   3.063  0.00  0.00     0.000 C 
HETATM   15  C   UNK N   1      33.225  15.194   4.445  0.00  0.00     0.002 C 
HETATM   16  C   UNK N   1      33.619  16.254   5.473  0.00  0.00     0.035 C 
HETATM   17  C   UNK N   1      34.329  15.633   6.691  0.00  0.00     0.179 C 
HETATM   18  C   UNK N   1      35.582  14.823   6.392  0.00  0.00     0.243 C 
HETATM   19  O   UNK N   1      35.960  14.736   5.232  0.00  0.00    -0.271 OA
HETATM   20  N   UNK N   1      36.233  14.098   7.359  0.00  0.00    -0.334 N 
HETATM   21  C   UNK N   1      35.989  14.212   8.769  0.00  0.00     0.159 C 
HETATM   22  H   UNK N   1      34.695  12.546   6.958  0.00  0.00     0.163 HD
ENDROOT
BRANCH   1  23
HETATM   23  O   UNK N   1      37.326  13.390  10.659  0.00  0.00    -0.326 OA
BRANCH  23  24
HETATM   24  C   UNK N   1      36.409  12.702  11.381  0.00  0.00     0.181 A 
HETATM   25  C   UNK N   1      36.242  13.004  12.720  0.00  0.00     0.154 A 
HETATM   26  O   UNK N   1      36.847  13.914  13.461  0.00  0.00    -0.303 OA
HETATM   27  C   UNK N   1      35.354  12.299  13.471  0.00  0.00     0.085 A 
HETATM   28  C   UNK N   1      36.358  13.810  14.685  0.00  0.00     0.088 A 
HETATM   29  C   UNK N   1      36.694  14.556  15.809  0.00  0.00     0.038 A 
HETATM   30  C   UNK N   1      35.414  12.808  14.738  0.00  0.00     0.028 A 
HETATM   31  C   UNK N   1      36.030  14.254  17.015  0.00  0.00     0.003 A 
HETATM   32  C   UNK N   1      35.059  13.224  17.064  0.00  0.00     0.001 A 
HETATM   33  C   UNK N   1      34.742  12.483  15.910  0.00  0.00     0.017 A 
HETATM   34  N   UNK N   1      34.619  11.292  12.965  0.00  0.00    -0.339 N 
HETATM   35  C   UNK N   1      34.763  10.976  11.639  0.00  0.00     0.118 A 
ATOM     36  HN  UNK N   1      33.967  10.775  13.555  1.00  0.00     0.167 HD
HETATM   37  N   UNK N   1      35.653  11.682  10.851  0.00  0.00    -0.320 N 
ATOM     38  HN  UNK N   1      35.751  11.444   9.864  1.00  0.00     0.169 HD
BRANCH  35  39
HETATM   39  C   UNK N   1      34.014   9.825  11.102  0.00  0.00     0.008 A 
HETATM   40  C   UNK N   1      34.297   8.509  11.493  0.00  0.00     0.018 A 
HETATM   41  C   UNK N   1      33.512   7.451  11.011  0.00  0.00     0.038 A 
HETATM   42  C   UNK N   1      32.425   7.701  10.161  0.00  0.00     0.069 A 
HETATM   43  C   UNK N   1      32.155   9.019   9.766  0.00  0.00     0.038 A 
HETATM   44  C   UNK N   1      32.947  10.066  10.225  0.00  0.00     0.018 A 
BRANCH  42  45
HETATM   45  O   UNK N   1      31.641   6.668   9.760  0.00  0.00    -0.347 OA
BRANCH  45  46
HETATM   46  C   UNK N   1      30.401   6.806   9.156  0.00  0.00     0.120 C 
HETATM   47  C   UNK N   1      29.315   6.577  10.187  0.00  0.00     0.040 C 
HETATM   48  C   UNK N   1      30.204   5.820   8.016  0.00  0.00     0.040 C 
ENDBRANCH  45  46
ENDBRANCH  42  45
ENDBRANCH  35  39
ENDBRANCH  23  24
ENDBRANCH   1  23
BRANCH  17  49
HETATM   49  N   UNK N   1      34.427  16.511   7.842  0.00  0.00    -0.324 N 
HETATM   50  C   UNK N   1      33.434  17.054   8.601  0.00  0.00     0.361 C 
HETATM   51  O   UNK N   1      33.736  17.890   9.436  0.00  0.00    -0.238 OA
HETATM   52  H   UNK N   1      35.342  16.750   8.114  0.00  0.00     0.165 HD
BRANCH  50  53
HETATM   53  O   UNK N   1      32.123  16.738   8.453  0.00  0.00    -0.299 OA
BRANCH  53  54
HETATM   54  C   UNK N   1      31.189  17.615   7.962  0.00  0.00     0.133 C 
HETATM   55  C   UNK N   1      30.327  18.180   9.061  0.00  0.00     0.032 C 
HETATM   56  C   UNK N   1      29.074  18.629   8.335  0.00  0.00     0.002 C 
HETATM   57  C   UNK N   1      28.960  17.743   7.100  0.00  0.00     0.002 C 
HETATM   58  C   UNK N   1      30.212  16.890   7.071  0.00  0.00     0.032 C 
ENDBRANCH  53  54
ENDBRANCH  50  53
ENDBRANCH  17  49
BRANCH   7  59
HETATM   59  C   UNK N   1      33.292  10.357   6.214  0.00  0.00     0.260 C 
HETATM   60  O   UNK N   1      32.356  10.928   6.759  0.00  0.00    -0.270 OA
HETATM   61  N   UNK N   1      33.404   9.020   6.395  0.00  0.00    -0.252 N 
HETATM   62  H   UNK N   1      32.688   8.589   6.916  0.00  0.00     0.181 HD
BRANCH  61  63
HETATM   63  S   UNK N   1      34.674   7.966   5.808  0.00  0.00     0.241 S 
HETATM   64  O   UNK N   1      33.994   6.607   5.618  0.00  0.00    -0.205 OA
HETATM   65  O   UNK N   1      34.981   8.464   4.386  0.00  0.00    -0.205 OA
BRANCH  63  66
HETATM   66  C   UNK N   1      36.080   7.934   6.957  0.00  0.00     0.079 A 
HETATM   67  C   UNK N   1      35.834   7.337   8.321  0.00  0.00     0.028 A 
HETATM   68  C   UNK N   1      35.932   8.846   8.151  0.00  0.00     0.028 A 
HETATM   69  C   UNK N   1      37.495   7.853   6.418  0.00  0.00     0.034 C 
ENDBRANCH  63  66
ENDBRANCH  61  63
ENDBRANCH   7  59
TORSDOF 11
ENDMDL
MODEL 8
REMARK VINA RESULT:      -8.5      3.362      8.062
REMARK  11 active torsions:
REMARK  status: ('A' for Active; 'I' for Inactive)
REMARK    1  A    between atoms: C_2  and  O_4 
REMARK    2  A    between atoms: O_4  and  C_5 
REMARK    3  A    between atoms: C_8  and  C_11 
REMARK    4  A    between atoms: C_23  and  O_26 
REMARK    5  A    between atoms: C_27  and  O_26 
REMARK    6  A    between atoms: C_33  and  C_57 
REMARK    7  A    between atoms: C_43  and  N_48 
REMARK       I    between atoms: N_48  and  C_49 
REMARK    8  A    between atoms: C_49  and  O_51 
REMARK    9  A    between atoms: O_51  and  C_52 
REMARK       I    between atoms: C_57  and  N_59 
REMARK   10  A    between atoms: N_59  and  S_60 
REMARK   11  A    between atoms: S_60  and  C_63 
ROOT
HETATM    1  C   UNK N   1      20.265  13.376   1.521  0.00  0.00     0.151 C 
HETATM    2  C   UNK N   1      21.437  14.040   0.813  0.00  0.00     0.069 C 
HETATM    3  C   UNK N   1      22.248  12.842   0.337  0.00  0.00     0.181 C 
HETATM    4  C   UNK N   1      23.705  13.032   0.704  0.00  0.00     0.241 C 
HETATM    5  O   UNK N   1      24.429  13.753   0.036  0.00  0.00    -0.271 OA
HETATM    6  N   UNK N   1      24.200  12.315   1.746  0.00  0.00    -0.341 N 
HETATM    7  C   UNK N   1      25.586  12.086   2.040  0.00  0.00     0.122 A 
HETATM    8  C   UNK N   1      25.693  10.578   2.174  0.00  0.00     0.053 A 
HETATM    9  C   UNK N   1      26.229  11.197   0.935  0.00  0.00     0.048 A 
HETATM   10  C   UNK N   1      27.667  10.788   0.847  0.00  0.00    -0.023 C 
HETATM   11  C   UNK N   1      28.037   9.503   0.657  0.00  0.00    -0.030 C 
HETATM   12  C   UNK N   1      27.080   8.326   0.643  0.00  0.00     0.027 C 
HETATM   13  C   UNK N   1      25.916   8.474  -0.339  0.00  0.00     0.004 C 
HETATM   14  C   UNK N   1      24.696   7.653   0.100  0.00  0.00     0.000 C 
HETATM   15  C   UNK N   1      24.142   8.132   1.443  0.00  0.00     0.002 C 
HETATM   16  C   UNK N   1      22.626   7.964   1.535  0.00  0.00     0.035 C 
HETATM   17  C   UNK N   1      21.921   9.298   1.844  0.00  0.00     0.179 C 
HETATM   18  C   UNK N   1      22.179  10.433   0.863  0.00  0.00     0.243 C 
HETATM   19  O   UNK N   1      22.893  10.217  -0.107  0.00  0.00    -0.271 OA
HETATM   20  N   UNK N   1      21.732  11.712   1.089  0.00  0.00    -0.334 N 
HETATM   21  C   UNK N   1      20.781  12.078   2.099  0.00  0.00     0.159 C 
HETATM   22  H   UNK N   1      23.544  11.913   2.359  0.00  0.00     0.163 HD
ENDROOT
BRANCH   1  23
HETATM   23  O   UNK N   1      19.511  14.165   2.368  0.00  0.00    -0.326 OA
BRANCH  23  24
HETATM   24  C   UNK N   1      19.953  15.006   3.334  0.00  0.00     0.181 A 
HETATM   25  C   UNK N   1      20.148  16.341   3.027  0.00  0.00     0.154 A 
HETATM   26  O   UNK N   1      19.950  16.981   1.890  0.00  0.00    -0.303 OA
HETATM   27  C   UNK N   1      20.627  17.194   3.970  0.00  0.00     0.085 A 
HETATM   28  C   UNK N   1      20.292  18.243   2.086  0.00  0.00     0.088 A 
HETATM   29  C   UNK N   1      20.259  19.293   1.176  0.00  0.00     0.038 A 
HETATM   30  C   UNK N   1      20.722  18.423   3.383  0.00  0.00     0.028 A 
HETATM   31  C   UNK N   1      20.680  20.560   1.626  0.00  0.00     0.003 A 
HETATM   32  C   UNK N   1      21.120  20.741   2.960  0.00  0.00     0.001 A 
HETATM   33  C   UNK N   1      21.146  19.658   3.859  0.00  0.00     0.017 A 
HETATM   34  N   UNK N   1      20.937  16.791   5.216  0.00  0.00    -0.339 N 
HETATM   35  C   UNK N   1      20.750  15.474   5.547  0.00  0.00     0.118 A 
ATOM     36  HN  UNK N   1      21.303  17.453   5.902  1.00  0.00     0.167 HD
HETATM   37  N   UNK N   1      20.256  14.588   4.608  0.00  0.00    -0.320 N 
ATOM     38  HN  UNK N   1      20.114  13.610   4.863  1.00  0.00     0.169 HD
BRANCH  35  39
HETATM   39  C   UNK N   1      21.160  15.018   6.888  0.00  0.00     0.008 A 
HETATM   40  C   UNK N   1      20.239  14.868   7.934  0.00  0.00     0.018 A 
HETATM   41  C   UNK N   1      20.662  14.364   9.173  0.00  0.00     0.038 A 
HETATM   42  C   UNK N   1      21.997  13.981   9.367  0.00  0.00     0.069 A 
HETATM   43  C   UNK N   1      22.914  14.143   8.319  0.00  0.00     0.038 A 
HETATM   44  C   UNK N   1      22.500  14.665   7.098  0.00  0.00     0.018 A 
BRANCH  42  45
HETATM   45  O   UNK N   1      22.368  13.435  10.553  0.00  0.00    -0.347 OA
BRANCH  45  46
HETATM   46  C   UNK N   1      22.244  12.093  10.878  0.00  0.00     0.120 C 
HETATM   47  C   UNK N   1      22.816  11.859  12.261  0.00  0.00     0.040 C 
HETATM   48  C   UNK N   1      22.970  11.193   9.893  0.00  0.00     0.040 C 
ENDBRANCH  45  46
ENDBRANCH  42  45
ENDBRANCH  35  39
ENDBRANCH  23  24
ENDBRANCH   1  23
BRANCH  17  49
HETATM   49  N   UNK N   1      20.542   9.164   2.276  0.00  0.00    -0.324 N 
HETATM   50  C   UNK N   1      20.049   8.673   3.448  0.00  0.00     0.361 C 
HETATM   51  O   UNK N   1      18.844   8.513   3.546  0.00  0.00    -0.238 OA
HETATM   52  H   UNK N   1      19.866   9.470   1.631  0.00  0.00     0.165 HD
BRANCH  50  53
HETATM   53  O   UNK N   1      20.831   8.324   4.500  0.00  0.00    -0.299 OA
BRANCH  53  54
HETATM   54  C   UNK N   1      21.120   9.174   5.538  0.00  0.00     0.133 C 
HETATM   55  C   UNK N   1      20.301  10.436   5.465  0.00  0.00     0.032 C 
HETATM   56  C   UNK N   1      21.108  11.431   6.277  0.00  0.00     0.002 C 
HETATM   57  C   UNK N   1      22.558  10.974   6.185  0.00  0.00     0.002 C 
HETATM   58  C   UNK N   1      22.544   9.659   5.431  0.00  0.00     0.032 C 
ENDBRANCH  53  54
ENDBRANCH  50  53
ENDBRANCH  17  49
BRANCH   7  59
HETATM   59  C   UNK N   1      25.942  12.522   3.451  0.00  0.00     0.260 C 
HETATM   60  O   UNK N   1      25.571  11.818   4.382  0.00  0.00    -0.270 OA
HETATM   61  N   UNK N   1      26.596  13.669   3.750  0.00  0.00    -0.252 N 
HETATM   62  H   UNK N   1      26.772  13.833   4.705  0.00  0.00     0.181 HD
BRANCH  61  63
HETATM   63  S   UNK N   1      27.165  14.895   2.637  0.00  0.00     0.241 S 
HETATM   64  O   UNK N   1      28.026  14.132   1.626  0.00  0.00    -0.205 OA
HETATM   65  O   UNK N   1      25.917  15.331   1.852  0.00  0.00    -0.205 OA
BRANCH  63  66
HETATM   66  C   UNK N   1      28.050  16.216   3.514  0.00  0.00     0.079 A 
HETATM   67  C   UNK N   1      29.508  16.404   3.172  0.00  0.00     0.028 A 
HETATM   68  C   UNK N   1      29.107  15.727   4.475  0.00  0.00     0.028 A 
HETATM   69  C   UNK N   1      27.297  17.438   4.000  0.00  0.00     0.034 C 
ENDBRANCH  63  66
ENDBRANCH  61  63
ENDBRANCH   7  59
TORSDOF 11
ENDMDL
MODEL 9
REMARK VINA RESULT:      -8.4      7.353     12.210
REMARK  11 active torsions:
REMARK  status: ('A' for Active; 'I' for Inactive)
REMARK    1  A    between atoms: C_2  and  O_4 
REMARK    2  A    between atoms: O_4  and  C_5 
REMARK    3  A    between atoms: C_8  and  C_11 
REMARK    4  A    between atoms: C_23  and  O_26 
REMARK    5  A    between atoms: C_27  and  O_26 
REMARK    6  A    between atoms: C_33  and  C_57 
REMARK    7  A    between atoms: C_43  and  N_48 
REMARK       I    between atoms: N_48  and  C_49 
REMARK    8  A    between atoms: C_49  and  O_51 
REMARK    9  A    between atoms: O_51  and  C_52 
REMARK       I    between atoms: C_57  and  N_59 
REMARK   10  A    between atoms: N_59  and  S_60 
REMARK   11  A    between atoms: S_60  and  C_63 
ROOT
HETATM    1  C   UNK N   1      34.094  13.918   9.796  0.00  0.00     0.151 C 
HETATM    2  C   UNK N   1      33.503  12.653   9.188  0.00  0.00     0.069 C 
HETATM    3  C   UNK N   1      34.026  11.570  10.123  0.00  0.00     0.181 C 
HETATM    4  C   UNK N   1      34.619  10.438   9.310  0.00  0.00     0.241 C 
HETATM    5  O   UNK N   1      33.901   9.601   8.787  0.00  0.00    -0.271 OA
HETATM    6  N   UNK N   1      35.972  10.334   9.252  0.00  0.00    -0.341 N 
HETATM    7  C   UNK N   1      36.721   9.181   8.842  0.00  0.00     0.122 A 
HETATM    8  C   UNK N   1      37.694   8.945   9.983  0.00  0.00     0.053 A 
HETATM    9  C   UNK N   1      36.533   8.026   9.869  0.00  0.00     0.048 A 
HETATM   10  C   UNK N   1      37.099   6.643   9.766  0.00  0.00    -0.023 C 
HETATM   11  C   UNK N   1      37.769   6.064  10.786  0.00  0.00    -0.030 C 
HETATM   12  C   UNK N   1      38.141   6.767  12.079  0.00  0.00     0.027 C 
HETATM   13  C   UNK N   1      36.962   7.423  12.800  0.00  0.00     0.004 C 
HETATM   14  C   UNK N   1      37.417   8.597  13.677  0.00  0.00     0.000 C 
HETATM   15  C   UNK N   1      38.044   9.718  12.846  0.00  0.00     0.002 C 
HETATM   16  C   UNK N   1      37.780  11.098  13.447  0.00  0.00     0.035 C 
HETATM   17  C   UNK N   1      37.082  12.034  12.443  0.00  0.00     0.179 C 
HETATM   18  C   UNK N   1      35.757  11.540  11.880  0.00  0.00     0.243 C 
HETATM   19  O   UNK N   1      35.320  10.465  12.268  0.00  0.00    -0.271 OA
HETATM   20  N   UNK N   1      35.097  12.202  10.874  0.00  0.00    -0.334 N 
HETATM   21  C   UNK N   1      35.413  13.526  10.422  0.00  0.00     0.159 C 
HETATM   22  H   UNK N   1      36.489  11.128   9.517  0.00  0.00     0.163 HD
ENDROOT
BRANCH   1  23
HETATM   23  O   UNK N   1      34.105  15.051   9.007  0.00  0.00    -0.326 OA
BRANCH  23  24
HETATM   24  C   UNK N   1      33.370  15.297   7.896  0.00  0.00     0.181 A 
HETATM   25  C   UNK N   1      32.223  16.063   8.003  0.00  0.00     0.154 A 
HETATM   26  O   UNK N   1      31.695  16.645   9.064  0.00  0.00    -0.303 OA
HETATM   27  C   UNK N   1      31.451  16.290   6.908  0.00  0.00     0.085 A 
HETATM   28  C   UNK N   1      30.590  17.252   8.667  0.00  0.00     0.088 A 
HETATM   29  C   UNK N   1      29.695  17.992   9.432  0.00  0.00     0.038 A 
HETATM   30  C   UNK N   1      30.397  17.057   7.317  0.00  0.00     0.028 A 
HETATM   31  C   UNK N   1      28.577  18.544   8.776  0.00  0.00     0.003 A 
HETATM   32  C   UNK N   1      28.384  18.342   7.388  0.00  0.00     0.001 A 
HETATM   33  C   UNK N   1      29.305  17.585   6.639  0.00  0.00     0.017 A 
HETATM   34  N   UNK N   1      31.751  15.787   5.696  0.00  0.00    -0.339 N 
HETATM   35  C   UNK N   1      32.885  15.028   5.563  0.00  0.00     0.118 A 
ATOM     36  HN  UNK N   1      31.148  15.967   4.893  1.00  0.00     0.167 HD
HETATM   37  N   UNK N   1      33.692  14.789   6.659  0.00  0.00    -0.320 N 
ATOM     38  HN  UNK N   1      34.537  14.227   6.551  1.00  0.00     0.169 HD
BRANCH  35  39
HETATM   39  C   UNK N   1      33.173  14.415   4.253  0.00  0.00     0.008 A 
HETATM   40  C   UNK N   1      32.186  13.751   3.512  0.00  0.00     0.018 A 
HETATM   41  C   UNK N   1      32.488  13.244   2.239  0.00  0.00     0.038 A 
HETATM   42  C   UNK N   1      33.765  13.421   1.687  0.00  0.00     0.069 A 
HETATM   43  C   UNK N   1      34.750  14.077   2.438  0.00  0.00     0.038 A 
HETATM   44  C   UNK N   1      34.458  14.558   3.710  0.00  0.00     0.018 A 
BRANCH  42  45
HETATM   45  O   UNK N   1      34.014  12.979   0.428  0.00  0.00    -0.347 OA
BRANCH  45  46
HETATM   46  C   UNK N   1      33.190  12.123  -0.286  0.00  0.00     0.120 C 
HETATM   47  C   UNK N   1      33.683  10.701  -0.122  0.00  0.00     0.040 C 
HETATM   48  C   UNK N   1      33.157  12.459  -1.768  0.00  0.00     0.040 C 
ENDBRANCH  45  46
ENDBRANCH  42  45
ENDBRANCH  35  39
ENDBRANCH  23  24
ENDBRANCH   1  23
BRANCH  17  49
HETATM   49  N   UNK N   1      37.104  13.438  12.813  0.00  0.00    -0.324 N 
HETATM   50  C   UNK N   1      36.359  14.096  13.745  0.00  0.00     0.361 C 
HETATM   51  O   UNK N   1      36.435  15.313  13.790  0.00  0.00    -0.238 OA
HETATM   52  H   UNK N   1      37.748  13.993  12.320  0.00  0.00     0.165 HD
BRANCH  50  53
HETATM   53  O   UNK N   1      35.514  13.473  14.603  0.00  0.00    -0.299 OA
BRANCH  53  54
HETATM   54  C   UNK N   1      35.911  12.971  15.817  0.00  0.00     0.133 C 
HETATM   55  C   UNK N   1      35.332  11.603  16.067  0.00  0.00     0.032 C 
HETATM   56  C   UNK N   1      35.382  11.466  17.576  0.00  0.00     0.002 C 
HETATM   57  C   UNK N   1      35.312  12.883  18.133  0.00  0.00     0.002 C 
HETATM   58  C   UNK N   1      35.351  13.813  16.936  0.00  0.00     0.032 C 
ENDBRANCH  53  54
ENDBRANCH  50  53
ENDBRANCH  17  49
BRANCH   7  59
HETATM   59  C   UNK N   1      37.683   9.506   7.712  0.00  0.00     0.260 C 
HETATM   60  O   UNK N   1      38.799   9.916   8.005  0.00  0.00    -0.270 OA
HETATM   61  N   UNK N   1      37.367   9.426   6.398  0.00  0.00    -0.252 N 
HETATM   62  H   UNK N   1      38.083   9.658   5.763  0.00  0.00     0.181 HD
BRANCH  61  63
HETATM   63  S   UNK N   1      35.833   8.956   5.695  0.00  0.00     0.241 S 
HETATM   64  O   UNK N   1      36.205   8.253   4.386  0.00  0.00    -0.205 OA
HETATM   65  O   UNK N   1      35.299   7.842   6.610  0.00  0.00    -0.205 OA
BRANCH  63  66
HETATM   66  C   UNK N   1      34.745  10.393   5.479  0.00  0.00     0.079 A 
HETATM   67  C   UNK N   1      33.262  10.120   5.398  0.00  0.00     0.028 A 
HETATM   68  C   UNK N   1      34.051  10.455   4.140  0.00  0.00     0.028 A 
HETATM   69  C   UNK N   1      35.164  11.747   6.017  0.00  0.00     0.034 C 
ENDBRANCH  63  66
ENDBRANCH  61  63
ENDBRANCH   7  59
TORSDOF 11
ENDMDL
