MODEL 1
REMARK VINA RESULT:      -8.4      0.000      0.000
REMARK  5 active torsions:
REMARK  status: ('A' for Active; 'I' for Inactive)
REMARK    1  A    between atoms: C_10  and  N_16 
REMARK    2  A    between atoms: N_19  and  C_22 
REMARK    3  A    between atoms: C_22  and  N_24 
REMARK    4  A    between atoms: N_24  and  C_25 
REMARK    5  A    between atoms: C_25  and  C_26 
ROOT
HETATM    1  N   UNK N   1      27.253  16.830   6.555  0.00  0.00    -0.362 N 
HETATM    2  C   UNK N   1      26.676  15.502   6.528  0.00  0.00     0.144 C 
HETATM    3  C   UNK N   1      26.977  14.871   5.174  0.00  0.00     0.145 C 
HETATM    4  N   UNK N   1      26.536  15.779   4.136  0.00  0.00    -0.355 N 
HETATM    5  C   UNK N   1      27.106  17.118   4.145  0.00  0.00     0.145 C 
HETATM    6  C   UNK N   1      26.873  17.761   5.511  0.00  0.00     0.144 C 
ENDROOT
BRANCH   1   7
HETATM    7  C   UNK N   1      28.210  17.205   7.544  0.00  0.00     0.141 A 
HETATM    8  C   UNK N   1      29.578  17.263   7.274  0.00  0.00     0.147 A 
HETATM    9  C   UNK N   1      30.450  17.624   8.262  0.00  0.00     0.084 A 
HETATM   10  O   UNK N   1      30.237  17.007   6.159  0.00  0.00    -0.304 OA
HETATM   11  C   UNK N   1      31.703  17.584   7.716  0.00  0.00     0.028 A 
HETATM   12  N   UNK N   1      30.044  17.935   9.514  0.00  0.00    -0.349 N 
HETATM   13  C   UNK N   1      31.520  17.195   6.406  0.00  0.00     0.088 A 
HETATM   14  C   UNK N   1      32.964  17.846   8.239  0.00  0.00     0.017 A 
HETATM   15  C   UNK N   1      32.592  17.042   5.531  0.00  0.00     0.038 A 
HETATM   16  C   UNK N   1      33.882  17.300   6.032  0.00  0.00     0.003 A 
HETATM   17  C   UNK N   1      34.068  17.699   7.377  0.00  0.00     0.001 A 
HETATM   18  C   UNK N   1      28.706  17.881   9.789  0.00  0.00     0.182 A 
ATOM     19  HN  UNK N   1      30.717  18.205  10.232  1.00  0.00     0.166 HD
HETATM   20  N   UNK N   1      27.806  17.518   8.816  0.00  0.00    -0.336 N 
ATOM     21  HN  UNK N   1      26.813  17.480   9.045  1.00  0.00     0.168 HD
ENDBRANCH   1   7
BRANCH   4  22
HETATM   22  C   UNK N   1      25.484  15.407   3.220  0.00  0.00     0.170 C 
HETATM   23  S   UNK N   1      25.758  15.281   1.810  0.00  0.00    -0.041 SA
BRANCH  22  24
HETATM   24  N   UNK N   1      24.156  15.135   3.670  0.00  0.00    -0.363 N 
HETATM   25  H   UNK N   1      23.680  14.357   3.300  0.00  0.00     0.162 HD
BRANCH  24  26
HETATM   26  C   UNK N   1      23.487  15.958   4.645  0.00  0.00     0.160 C 
BRANCH  26  27
HETATM   27  C   UNK N   1      22.542  16.932   4.030  0.00  0.00    -0.038 A 
HETATM   28  C   UNK N   1      21.430  16.451   3.300  0.00  0.00     0.012 A 
HETATM   29  C   UNK N   1      20.590  17.346   2.612  0.00  0.00     0.040 A 
HETATM   30  C   UNK N   1      20.909  18.700   2.669  0.00  0.00     0.105 A 
HETATM   31  C   UNK N   1      21.960  19.160   3.359  0.00  0.00     0.105 A 
HETATM   32  O   UNK N   1      20.288  19.721   2.082  0.00  0.00    -0.323 OA
HETATM   33  C   UNK N   1      22.818  18.315   4.063  0.00  0.00     0.048 A 
HETATM   34  O   UNK N   1      22.026  20.483   3.226  0.00  0.00    -0.323 OA
HETATM   35  C   UNK N   1      20.972  20.898   2.406  0.00  0.00     0.352 A 
ENDBRANCH  26  27
ENDBRANCH  24  26
ENDBRANCH  22  24
ENDBRANCH   4  22
TORSDOF 5
ENDMDL
MODEL 2
REMARK VINA RESULT:      -8.4      6.762      9.759
REMARK  5 active torsions:
REMARK  status: ('A' for Active; 'I' for Inactive)
REMARK    1  A    between atoms: C_10  and  N_16 
REMARK    2  A    between atoms: N_19  and  C_22 
REMARK    3  A    between atoms: C_22  and  N_24 
REMARK    4  A    between atoms: N_24  and  C_25 
REMARK    5  A    between atoms: C_25  and  C_26 
ROOT
HETATM    1  N   UNK N   1      35.031  14.196  11.115  0.00  0.00    -0.362 N 
HETATM    2  C   UNK N   1      34.216  13.945   9.945  0.00  0.00     0.144 C 
HETATM    3  C   UNK N   1      34.663  14.885   8.832  0.00  0.00     0.145 C 
HETATM    4  N   UNK N   1      34.647  16.239   9.342  0.00  0.00    -0.355 N 
HETATM    5  C   UNK N   1      35.461  16.513  10.517  0.00  0.00     0.145 C 
HETATM    6  C   UNK N   1      35.078  15.547  11.637  0.00  0.00     0.144 C 
ENDROOT
BRANCH   1   7
HETATM    7  C   UNK N   1      35.812  13.163  11.714  0.00  0.00     0.141 A 
HETATM    8  C   UNK N   1      35.709  12.840  13.068  0.00  0.00     0.147 A 
HETATM    9  C   UNK N   1      36.486  11.844  13.589  0.00  0.00     0.084 A 
HETATM   10  O   UNK N   1      34.949  13.363  14.012  0.00  0.00    -0.304 OA
HETATM   11  C   UNK N   1      36.179  11.760  14.919  0.00  0.00     0.028 A 
HETATM   12  N   UNK N   1      37.366  11.140  12.841  0.00  0.00    -0.349 N 
HETATM   13  C   UNK N   1      35.218  12.724  15.136  0.00  0.00     0.088 A 
HETATM   14  C   UNK N   1      36.649  10.943  15.940  0.00  0.00     0.017 A 
HETATM   15  C   UNK N   1      34.664  12.935  16.394  0.00  0.00     0.038 A 
HETATM   16  C   UNK N   1      35.119  12.123  17.450  0.00  0.00     0.003 A 
HETATM   17  C   UNK N   1      36.105  11.132  17.225  0.00  0.00     0.001 A 
HETATM   18  C   UNK N   1      37.474  11.449  11.513  0.00  0.00     0.182 A 
ATOM     19  HN  UNK N   1      37.932  10.399  13.255  1.00  0.00     0.166 HD
HETATM   20  N   UNK N   1      36.708  12.448  10.963  0.00  0.00    -0.336 N 
ATOM     21  HN  UNK N   1      36.810  12.664   9.972  1.00  0.00     0.168 HD
ENDBRANCH   1   7
BRANCH   4  22
HETATM   22  C   UNK N   1      33.760  17.234   8.783  0.00  0.00     0.170 C 
HETATM   23  S   UNK N   1      34.278  18.274   7.930  0.00  0.00    -0.041 SA
BRANCH  22  24
HETATM   24  N   UNK N   1      32.355  17.214   9.036  0.00  0.00    -0.363 N 
HETATM   25  H   UNK N   1      32.002  17.731   9.796  0.00  0.00     0.162 HD
BRANCH  24  26
HETATM   26  C   UNK N   1      31.433  16.464   8.219  0.00  0.00     0.160 C 
BRANCH  26  27
HETATM   27  C   UNK N   1      30.350  17.310   7.643  0.00  0.00    -0.038 A 
HETATM   28  C   UNK N   1      29.572  18.118   8.504  0.00  0.00     0.012 A 
HETATM   29  C   UNK N   1      28.469  18.835   8.001  0.00  0.00     0.040 A 
HETATM   30  C   UNK N   1      28.177  18.700   6.647  0.00  0.00     0.105 A 
HETATM   31  C   UNK N   1      28.912  17.936   5.829  0.00  0.00     0.105 A 
HETATM   32  O   UNK N   1      27.180  19.248   5.958  0.00  0.00    -0.323 OA
HETATM   33  C   UNK N   1      30.017  17.212   6.276  0.00  0.00     0.048 A 
HETATM   34  O   UNK N   1      28.396  17.986   4.603  0.00  0.00    -0.323 OA
HETATM   35  C   UNK N   1      27.271  18.817   4.630  0.00  0.00     0.352 A 
ENDBRANCH  26  27
ENDBRANCH  24  26
ENDBRANCH  22  24
ENDBRANCH   4  22
TORSDOF 5
ENDMDL
MODEL 3
REMARK VINA RESULT:      -8.2      7.338     10.993
REMARK  5 active torsions:
REMARK  status: ('A' for Active; 'I' for Inactive)
REMARK    1  A    between atoms: C_10  and  N_16 
REMARK    2  A    between atoms: N_19  and  C_22 
REMARK    3  A    between atoms: C_22  and  N_24 
REMARK    4  A    between atoms: N_24  and  C_25 
REMARK    5  A    between atoms: C_25  and  C_26 
ROOT
HETATM    1  N   UNK N   1      35.874  13.903  12.056  0.00  0.00    -0.362 N 
HETATM    2  C   UNK N   1      36.927  13.723  11.079  0.00  0.00     0.144 C 
HETATM    3  C   UNK N   1      36.832  14.845  10.052  0.00  0.00     0.145 C 
HETATM    4  N   UNK N   1      35.481  14.881   9.535  0.00  0.00    -0.355 N 
HETATM    5  C   UNK N   1      34.408  15.062  10.501  0.00  0.00     0.145 C 
HETATM    6  C   UNK N   1      34.508  13.986  11.581  0.00  0.00     0.144 C 
ENDROOT
BRANCH   1   7
HETATM    7  C   UNK N   1      36.166  14.051  13.445  0.00  0.00     0.141 A 
HETATM    8  C   UNK N   1      35.827  13.076  14.386  0.00  0.00     0.147 A 
HETATM    9  C   UNK N   1      36.126  13.273  15.704  0.00  0.00     0.084 A 
HETATM   10  O   UNK N   1      35.218  11.916  14.227  0.00  0.00    -0.304 OA
HETATM   11  C   UNK N   1      35.675  12.173  16.379  0.00  0.00     0.028 A 
HETATM   12  N   UNK N   1      36.749  14.387  16.151  0.00  0.00    -0.349 N 
HETATM   13  C   UNK N   1      35.117  11.356  15.418  0.00  0.00     0.088 A 
HETATM   14  C   UNK N   1      35.699  11.821  17.724  0.00  0.00     0.017 A 
HETATM   15  C   UNK N   1      34.544  10.130  15.743  0.00  0.00     0.038 A 
HETATM   16  C   UNK N   1      34.553   9.745  17.097  0.00  0.00     0.003 A 
HETATM   17  C   UNK N   1      35.126  10.586  18.082  0.00  0.00     0.001 A 
HETATM   18  C   UNK N   1      37.084  15.348  15.238  0.00  0.00     0.182 A 
ATOM     19  HN  UNK N   1      36.964  14.507  17.142  1.00  0.00     0.166 HD
HETATM   20  N   UNK N   1      36.793  15.179  13.906  0.00  0.00    -0.336 N 
ATOM     21  HN  UNK N   1      37.049  15.911  13.244  1.00  0.00     0.168 HD
ENDBRANCH   1   7
BRANCH   4  22
HETATM   22  C   UNK N   1      35.211  14.616   8.141  0.00  0.00     0.170 C 
HETATM   23  S   UNK N   1      35.167  13.260   7.653  0.00  0.00    -0.041 SA
BRANCH  22  24
HETATM   24  N   UNK N   1      34.961  15.669   7.210  0.00  0.00    -0.363 N 
HETATM   25  H   UNK N   1      35.125  15.505   6.253  0.00  0.00     0.162 HD
BRANCH  24  26
HETATM   26  C   UNK N   1      34.480  16.965   7.619  0.00  0.00     0.160 C 
BRANCH  26  27
HETATM   27  C   UNK N   1      32.993  17.036   7.686  0.00  0.00    -0.038 A 
HETATM   28  C   UNK N   1      32.225  16.411   6.676  0.00  0.00     0.012 A 
HETATM   29  C   UNK N   1      30.826  16.562   6.652  0.00  0.00     0.040 A 
HETATM   30  C   UNK N   1      30.247  17.354   7.639  0.00  0.00     0.105 A 
HETATM   31  C   UNK N   1      30.971  17.947   8.597  0.00  0.00     0.105 A 
HETATM   32  O   UNK N   1      28.963  17.665   7.803  0.00  0.00    -0.323 OA
HETATM   33  C   UNK N   1      32.358  17.823   8.669  0.00  0.00     0.048 A 
HETATM   34  O   UNK N   1      30.160  18.645   9.390  0.00  0.00    -0.323 OA
HETATM   35  C   UNK N   1      28.851  18.501   8.919  0.00  0.00     0.352 A 
ENDBRANCH  26  27
ENDBRANCH  24  26
ENDBRANCH  22  24
ENDBRANCH   4  22
TORSDOF 5
ENDMDL
MODEL 4
REMARK VINA RESULT:      -8.2      5.976      8.482
REMARK  5 active torsions:
REMARK  status: ('A' for Active; 'I' for Inactive)
REMARK    1  A    between atoms: C_10  and  N_16 
REMARK    2  A    between atoms: N_19  and  C_22 
REMARK    3  A    between atoms: C_22  and  N_24 
REMARK    4  A    between atoms: N_24  and  C_25 
REMARK    5  A    between atoms: C_25  and  C_26 
ROOT
HETATM    1  N   UNK N   1      34.688  15.305  10.117  0.00  0.00    -0.362 N 
HETATM    2  C   UNK N   1      33.431  14.666   9.792  0.00  0.00     0.144 C 
HETATM    3  C   UNK N   1      33.083  14.989   8.344  0.00  0.00     0.145 C 
HETATM    4  N   UNK N   1      33.132  16.425   8.170  0.00  0.00    -0.355 N 
HETATM    5  C   UNK N   1      34.388  17.086   8.490  0.00  0.00     0.145 C 
HETATM    6  C   UNK N   1      34.798  16.736   9.919  0.00  0.00     0.144 C 
ENDROOT
BRANCH   1   7
HETATM    7  C   UNK N   1      35.812  14.550  10.568  0.00  0.00     0.141 A 
HETATM    8  C   UNK N   1      35.824  13.894  11.800  0.00  0.00     0.147 A 
HETATM    9  C   UNK N   1      36.930  13.190  12.184  0.00  0.00     0.084 A 
HETATM   10  O   UNK N   1      34.897  13.830  12.739  0.00  0.00    -0.304 OA
HETATM   11  C   UNK N   1      36.658  12.672  13.420  0.00  0.00     0.028 A 
HETATM   12  N   UNK N   1      38.035  13.093  11.411  0.00  0.00    -0.349 N 
HETATM   13  C   UNK N   1      35.382  13.097  13.724  0.00  0.00     0.088 A 
HETATM   14  C   UNK N   1      37.401  11.883  14.291  0.00  0.00     0.017 A 
HETATM   15  C   UNK N   1      34.765  12.761  14.925  0.00  0.00     0.038 A 
HETATM   16  C   UNK N   1      35.492  11.962  15.828  0.00  0.00     0.003 A 
HETATM   17  C   UNK N   1      36.802  11.526  15.514  0.00  0.00     0.001 A 
HETATM   18  C   UNK N   1      38.034  13.732  10.202  0.00  0.00     0.182 A 
ATOM     19  HN  UNK N   1      38.847  12.557  11.720  1.00  0.00     0.166 HD
HETATM   20  N   UNK N   1      36.937  14.450   9.792  0.00  0.00    -0.336 N 
ATOM     21  HN  UNK N   1      36.961  14.922   8.888  1.00  0.00     0.168 HD
ENDBRANCH   1   7
BRANCH   4  22
HETATM   22  C   UNK N   1      31.947  17.173   7.821  0.00  0.00     0.170 C 
HETATM   23  S   UNK N   1      31.491  18.250   8.665  0.00  0.00    -0.041 SA
BRANCH  22  24
HETATM   24  N   UNK N   1      31.202  16.892   6.636  0.00  0.00    -0.363 N 
HETATM   25  H   UNK N   1      31.671  16.892   5.770  0.00  0.00     0.162 HD
BRANCH  24  26
HETATM   26  C   UNK N   1      29.789  16.609   6.659  0.00  0.00     0.160 C 
BRANCH  26  27
HETATM   27  C   UNK N   1      28.960  17.764   6.212  0.00  0.00    -0.038 A 
HETATM   28  C   UNK N   1      28.985  18.147   4.850  0.00  0.00     0.012 A 
HETATM   29  C   UNK N   1      28.304  19.303   4.425  0.00  0.00     0.040 A 
HETATM   30  C   UNK N   1      27.632  20.046   5.392  0.00  0.00     0.105 A 
HETATM   31  C   UNK N   1      27.607  19.687   6.681  0.00  0.00     0.105 A 
HETATM   32  O   UNK N   1      26.951  21.179   5.238  0.00  0.00    -0.323 OA
HETATM   33  C   UNK N   1      28.258  18.548   7.152  0.00  0.00     0.048 A 
HETATM   34  O   UNK N   1      26.905  20.584   7.372  0.00  0.00    -0.323 OA
HETATM   35  C   UNK N   1      26.462  21.573   6.488  0.00  0.00     0.352 A 
ENDBRANCH  26  27
ENDBRANCH  24  26
ENDBRANCH  22  24
ENDBRANCH   4  22
TORSDOF 5
ENDMDL
MODEL 5
REMARK VINA RESULT:      -8.2      3.823      9.031
REMARK  5 active torsions:
REMARK  status: ('A' for Active; 'I' for Inactive)
REMARK    1  A    between atoms: C_10  and  N_16 
REMARK    2  A    between atoms: N_19  and  C_22 
REMARK    3  A    between atoms: C_22  and  N_24 
REMARK    4  A    between atoms: N_24  and  C_25 
REMARK    5  A    between atoms: C_25  and  C_26 
ROOT
HETATM    1  N   UNK N   1      25.696  14.906   5.736  0.00  0.00    -0.362 N 
HETATM    2  C   UNK N   1      26.574  16.025   6.005  0.00  0.00     0.144 C 
HETATM    3  C   UNK N   1      26.939  16.684   4.681  0.00  0.00     0.145 C 
HETATM    4  N   UNK N   1      27.458  15.667   3.790  0.00  0.00    -0.355 N 
HETATM    5  C   UNK N   1      26.590  14.534   3.506  0.00  0.00     0.145 C 
HETATM    6  C   UNK N   1      26.156  13.883   4.818  0.00  0.00     0.144 C 
ENDROOT
BRANCH   1   7
HETATM    7  C   UNK N   1      24.392  14.828   6.310  0.00  0.00     0.141 A 
HETATM    8  C   UNK N   1      24.145  14.164   7.512  0.00  0.00     0.147 A 
HETATM    9  C   UNK N   1      22.875  14.117   8.013  0.00  0.00     0.084 A 
HETATM   10  O   UNK N   1      24.972  13.517   8.312  0.00  0.00    -0.304 OA
HETATM   11  C   UNK N   1      22.937  13.403   9.177  0.00  0.00     0.028 A 
HETATM   12  N   UNK N   1      21.824  14.696   7.388  0.00  0.00    -0.349 N 
HETATM   13  C   UNK N   1      24.261  13.050   9.322  0.00  0.00     0.088 A 
HETATM   14  C   UNK N   1      21.969  13.035  10.105  0.00  0.00     0.017 A 
HETATM   15  C   UNK N   1      24.705  12.303  10.408  0.00  0.00     0.038 A 
HETATM   16  C   UNK N   1      23.749  11.914  11.366  0.00  0.00     0.003 A 
HETATM   17  C   UNK N   1      22.389  12.278  11.215  0.00  0.00     0.001 A 
HETATM   18  C   UNK N   1      22.056  15.349   6.210  0.00  0.00     0.182 A 
ATOM     19  HN  UNK N   1      20.886  14.648   7.786  1.00  0.00     0.166 HD
HETATM   20  N   UNK N   1      23.322  15.410   5.681  0.00  0.00    -0.336 N 
ATOM     21  HN  UNK N   1      23.470  15.898   4.798  1.00  0.00     0.168 HD
ENDBRANCH   1   7
BRANCH   4  22
HETATM   22  C   UNK N   1      28.821  15.718   3.316  0.00  0.00     0.170 C 
HETATM   23  S   UNK N   1      29.404  14.578   2.653  0.00  0.00    -0.041 SA
BRANCH  22  24
HETATM   24  N   UNK N   1      29.627  16.887   3.467  0.00  0.00    -0.363 N 
HETATM   25  H   UNK N   1      29.183  17.762   3.543  0.00  0.00     0.162 HD
BRANCH  24  26
HETATM   26  C   UNK N   1      31.066  16.834   3.512  0.00  0.00     0.160 C 
BRANCH  26  27
HETATM   27  C   UNK N   1      31.610  17.001   4.888  0.00  0.00    -0.038 A 
HETATM   28  C   UNK N   1      30.732  16.914   5.994  0.00  0.00     0.012 A 
HETATM   29  C   UNK N   1      31.199  17.183   7.294  0.00  0.00     0.040 A 
HETATM   30  C   UNK N   1      32.534  17.549   7.436  0.00  0.00     0.105 A 
HETATM   31  C   UNK N   1      33.368  17.632   6.392  0.00  0.00     0.105 A 
HETATM   32  O   UNK N   1      33.188  17.876   8.548  0.00  0.00    -0.323 OA
HETATM   33  C   UNK N   1      32.958  17.369   5.086  0.00  0.00     0.048 A 
HETATM   34  O   UNK N   1      34.570  18.012   6.821  0.00  0.00    -0.323 OA
HETATM   35  C   UNK N   1      34.509  18.189   8.207  0.00  0.00     0.352 A 
ENDBRANCH  26  27
ENDBRANCH  24  26
ENDBRANCH  22  24
ENDBRANCH   4  22
TORSDOF 5
ENDMDL
MODEL 6
REMARK VINA RESULT:      -8.2      2.426      2.855
REMARK  5 active torsions:
REMARK  status: ('A' for Active; 'I' for Inactive)
REMARK    1  A    between atoms: C_10  and  N_16 
REMARK    2  A    between atoms: N_19  and  C_22 
REMARK    3  A    between atoms: C_22  and  N_24 
REMARK    4  A    between atoms: N_24  and  C_25 
REMARK    5  A    between atoms: C_25  and  C_26 
ROOT
HETATM    1  N   UNK N   1      27.557  16.647   6.158  0.00  0.00    -0.362 N 
HETATM    2  C   UNK N   1      27.406  17.430   4.950  0.00  0.00     0.144 C 
HETATM    3  C   UNK N   1      25.924  17.714   4.738  0.00  0.00     0.145 C 
HETATM    4  N   UNK N   1      25.206  16.457   4.777  0.00  0.00    -0.355 N 
HETATM    5  C   UNK N   1      25.344  15.655   5.984  0.00  0.00     0.145 C 
HETATM    6  C   UNK N   1      26.825  15.400   6.259  0.00  0.00     0.144 C 
ENDROOT
BRANCH   1   7
HETATM    7  C   UNK N   1      28.358  17.105   7.246  0.00  0.00     0.141 A 
HETATM    8  C   UNK N   1      29.749  17.194   7.162  0.00  0.00     0.147 A 
HETATM    9  C   UNK N   1      30.467  17.635   8.238  0.00  0.00     0.084 A 
HETATM   10  O   UNK N   1      30.561  16.902   6.163  0.00  0.00    -0.304 OA
HETATM   11  C   UNK N   1      31.783  17.608   7.870  0.00  0.00     0.028 A 
HETATM   12  N   UNK N   1      29.883  17.997   9.403  0.00  0.00    -0.349 N 
HETATM   13  C   UNK N   1      31.793  17.146   6.572  0.00  0.00     0.088 A 
HETATM   14  C   UNK N   1      32.953  17.939   8.545  0.00  0.00     0.017 A 
HETATM   15  C   UNK N   1      32.979  16.982   5.862  0.00  0.00     0.038 A 
HETATM   16  C   UNK N   1      34.181  17.309   6.518  0.00  0.00     0.003 A 
HETATM   17  C   UNK N   1      34.168  17.784   7.852  0.00  0.00     0.001 A 
HETATM   18  C   UNK N   1      28.522  17.913   9.495  0.00  0.00     0.182 A 
ATOM     19  HN  UNK N   1      30.443  18.326  10.190  1.00  0.00     0.166 HD
HETATM   20  N   UNK N   1      27.775  17.471   8.431  0.00  0.00    -0.336 N 
ATOM     21  HN  UNK N   1      26.761  17.411   8.525  1.00  0.00     0.168 HD
ENDBRANCH   1   7
BRANCH   4  22
HETATM   22  C   UNK N   1      24.496  15.969   3.618  0.00  0.00     0.170 C 
HETATM   23  S   UNK N   1      25.215  15.353   2.531  0.00  0.00    -0.041 SA
BRANCH  22  24
HETATM   24  N   UNK N   1      23.075  16.060   3.514  0.00  0.00    -0.363 N 
HETATM   25  H   UNK N   1      22.576  15.293   3.149  0.00  0.00     0.162 HD
BRANCH  24  26
HETATM   26  C   UNK N   1      22.343  17.233   3.921  0.00  0.00     0.160 C 
BRANCH  26  27
HETATM   27  C   UNK N   1      21.692  17.076   5.252  0.00  0.00    -0.038 A 
HETATM   28  C   UNK N   1      21.195  15.808   5.634  0.00  0.00     0.012 A 
HETATM   29  C   UNK N   1      20.473  15.660   6.833  0.00  0.00     0.040 A 
HETATM   30  C   UNK N   1      20.262  16.801   7.602  0.00  0.00     0.105 A 
HETATM   31  C   UNK N   1      20.731  18.002   7.244  0.00  0.00     0.105 A 
HETATM   32  O   UNK N   1      19.591  16.914   8.746  0.00  0.00    -0.323 OA
HETATM   33  C   UNK N   1      21.457  18.201   6.070  0.00  0.00     0.048 A 
HETATM   34  O   UNK N   1      20.369  18.903   8.155  0.00  0.00    -0.323 OA
HETATM   35  C   UNK N   1      19.626  18.254   9.147  0.00  0.00     0.352 A 
ENDBRANCH  26  27
ENDBRANCH  24  26
ENDBRANCH  22  24
ENDBRANCH   4  22
TORSDOF 5
ENDMDL
MODEL 7
REMARK VINA RESULT:      -8.0      6.257     12.262
REMARK  5 active torsions:
REMARK  status: ('A' for Active; 'I' for Inactive)
REMARK    1  A    between atoms: C_10  and  N_16 
REMARK    2  A    between atoms: N_19  and  C_22 
REMARK    3  A    between atoms: C_22  and  N_24 
REMARK    4  A    between atoms: N_24  and  C_25 
REMARK    5  A    between atoms: C_25  and  C_26 
ROOT
HETATM    1  N   UNK N   1      32.747  16.392   8.568  0.00  0.00    -0.362 N 
HETATM    2  C   UNK N   1      32.776  14.982   8.895  0.00  0.00     0.144 C 
HETATM    3  C   UNK N   1      33.529  14.804  10.208  0.00  0.00     0.145 C 
HETATM    4  N   UNK N   1      34.815  15.459  10.092  0.00  0.00    -0.355 N 
HETATM    5  C   UNK N   1      34.807  16.877   9.765  0.00  0.00     0.145 C 
HETATM    6  C   UNK N   1      34.009  17.100   8.482  0.00  0.00     0.144 C 
ENDROOT
BRANCH   1   7
HETATM    7  C   UNK N   1      31.515  17.089   8.388  0.00  0.00     0.141 A 
HETATM    8  C   UNK N   1      30.794  17.032   7.194  0.00  0.00     0.147 A 
HETATM    9  C   UNK N   1      29.622  17.723   7.075  0.00  0.00     0.084 A 
HETATM   10  O   UNK N   1      31.058  16.390   6.070  0.00  0.00    -0.304 OA
HETATM   11  C   UNK N   1      29.152  17.488   5.813  0.00  0.00     0.028 A 
HETATM   12  N   UNK N   1      29.115  18.475   8.079  0.00  0.00    -0.349 N 
HETATM   13  C   UNK N   1      30.079  16.654   5.225  0.00  0.00     0.088 A 
HETATM   14  C   UNK N   1      28.018  17.925   5.137  0.00  0.00     0.017 A 
HETATM   15  C   UNK N   1      29.931  16.202   3.918  0.00  0.00     0.038 A 
HETATM   16  C   UNK N   1      28.793  16.626   3.207  0.00  0.00     0.003 A 
HETATM   17  C   UNK N   1      27.842  17.483   3.812  0.00  0.00     0.001 A 
HETATM   18  C   UNK N   1      29.814  18.538   9.252  0.00  0.00     0.182 A 
ATOM     19  HN  UNK N   1      28.235  18.979   7.964  1.00  0.00     0.166 HD
HETATM   20  N   UNK N   1      30.997  17.855   9.399  0.00  0.00    -0.336 N 
ATOM     21  HN  UNK N   1      31.504  17.921  10.282  1.00  0.00     0.168 HD
ENDBRANCH   1   7
BRANCH   4  22
HETATM   22  C   UNK N   1      36.043  14.703  10.168  0.00  0.00     0.170 C 
HETATM   23  S   UNK N   1      36.622  14.133   8.977  0.00  0.00    -0.041 SA
BRANCH  22  24
HETATM   24  N   UNK N   1      36.732  14.512  11.404  0.00  0.00    -0.363 N 
HETATM   25  H   UNK N   1      37.056  15.302  11.894  0.00  0.00     0.162 HD
BRANCH  24  26
HETATM   26  C   UNK N   1      36.973  13.204  11.960  0.00  0.00     0.160 C 
BRANCH  26  27
HETATM   27  C   UNK N   1      36.320  13.009  13.285  0.00  0.00    -0.038 A 
HETATM   28  C   UNK N   1      35.171  12.191  13.377  0.00  0.00     0.012 A 
HETATM   29  C   UNK N   1      34.468  12.085  14.592  0.00  0.00     0.040 A 
HETATM   30  C   UNK N   1      34.939  12.823  15.674  0.00  0.00     0.105 A 
HETATM   31  C   UNK N   1      36.027  13.599  15.591  0.00  0.00     0.105 A 
HETATM   32  O   UNK N   1      34.432  12.907  16.901  0.00  0.00    -0.323 OA
HETATM   33  C   UNK N   1      36.762  13.732  14.414  0.00  0.00     0.048 A 
HETATM   34  O   UNK N   1      36.234  14.190  16.767  0.00  0.00    -0.323 OA
HETATM   35  C   UNK N   1      35.228  13.781  17.649  0.00  0.00     0.352 A 
ENDBRANCH  26  27
ENDBRANCH  24  26
ENDBRANCH  22  24
ENDBRANCH   4  22
TORSDOF 5
ENDMDL
MODEL 8
REMARK VINA RESULT:      -7.9      7.693     13.407
REMARK  5 active torsions:
REMARK  status: ('A' for Active; 'I' for Inactive)
REMARK    1  A    between atoms: C_10  and  N_16 
REMARK    2  A    between atoms: N_19  and  C_22 
REMARK    3  A    between atoms: C_22  and  N_24 
REMARK    4  A    between atoms: N_24  and  C_25 
REMARK    5  A    between atoms: C_25  and  C_26 
ROOT
HETATM    1  N   UNK N   1      34.414  15.273   8.624  0.00  0.00    -0.362 N 
HETATM    2  C   UNK N   1      34.727  13.866   8.490  0.00  0.00     0.144 C 
HETATM    3  C   UNK N   1      34.227  13.138   9.732  0.00  0.00     0.145 C 
HETATM    4  N   UNK N   1      34.764  13.802  10.900  0.00  0.00    -0.355 N 
HETATM    5  C   UNK N   1      34.459  15.217  11.054  0.00  0.00     0.145 C 
HETATM    6  C   UNK N   1      34.896  15.971   9.799  0.00  0.00     0.144 C 
ENDROOT
BRANCH   1   7
HETATM    7  C   UNK N   1      33.610  15.951   7.660  0.00  0.00     0.141 A 
HETATM    8  C   UNK N   1      32.333  16.429   7.957  0.00  0.00     0.147 A 
HETATM    9  C   UNK N   1      31.605  17.067   6.993  0.00  0.00     0.084 A 
HETATM   10  O   UNK N   1      31.642  16.368   9.081  0.00  0.00    -0.304 OA
HETATM   11  C   UNK N   1      30.411  17.410   7.563  0.00  0.00     0.028 A 
HETATM   12  N   UNK N   1      32.072  17.263   5.739  0.00  0.00    -0.349 N 
HETATM   13  C   UNK N   1      30.479  16.954   8.862  0.00  0.00     0.088 A 
HETATM   14  C   UNK N   1      29.289  18.065   7.069  0.00  0.00     0.017 A 
HETATM   15  C   UNK N   1      29.425  17.125   9.754  0.00  0.00     0.038 A 
HETATM   16  C   UNK N   1      28.275  17.785   9.284  0.00  0.00     0.003 A 
HETATM   17  C   UNK N   1      28.206  18.253   7.949  0.00  0.00     0.001 A 
HETATM   18  C   UNK N   1      33.322  16.798   5.437  0.00  0.00     0.182 A 
ATOM     19  HN  UNK N   1      31.509  17.746   5.038  1.00  0.00     0.166 HD
HETATM   20  N   UNK N   1      34.076  16.151   6.386  0.00  0.00    -0.336 N 
ATOM     21  HN  UNK N   1      35.003  15.808   6.137  1.00  0.00     0.168 HD
ENDBRANCH   1   7
BRANCH   4  22
HETATM   22  C   UNK N   1      35.666  13.118  11.796  0.00  0.00     0.170 C 
HETATM   23  S   UNK N   1      37.003  12.786  11.369  0.00  0.00    -0.041 SA
BRANCH  22  24
HETATM   24  N   UNK N   1      35.283  12.766  13.126  0.00  0.00    -0.363 N 
HETATM   25  H   UNK N   1      34.801  11.920  13.273  0.00  0.00     0.162 HD
BRANCH  24  26
HETATM   26  C   UNK N   1      35.572  13.605  14.262  0.00  0.00     0.160 C 
BRANCH  26  27
HETATM   27  C   UNK N   1      35.549  12.861  15.552  0.00  0.00    -0.038 A 
HETATM   28  C   UNK N   1      35.401  11.454  15.537  0.00  0.00     0.012 A 
HETATM   29  C   UNK N   1      35.259  10.741  16.742  0.00  0.00     0.040 A 
HETATM   30  C   UNK N   1      35.253  11.473  17.926  0.00  0.00     0.105 A 
HETATM   31  C   UNK N   1      35.392  12.805  17.945  0.00  0.00     0.105 A 
HETATM   32  O   UNK N   1      35.104  11.030  19.172  0.00  0.00    -0.323 OA
HETATM   33  C   UNK N   1      35.544  13.556  16.780  0.00  0.00     0.048 A 
HETATM   34  O   UNK N   1      35.337  13.234  19.204  0.00  0.00    -0.323 OA
HETATM   35  C   UNK N   1      35.147  12.127  20.039  0.00  0.00     0.352 A 
ENDBRANCH  26  27
ENDBRANCH  24  26
ENDBRANCH  22  24
ENDBRANCH   4  22
TORSDOF 5
ENDMDL
MODEL 9
REMARK VINA RESULT:      -7.8      8.520     13.526
REMARK  5 active torsions:
REMARK  status: ('A' for Active; 'I' for Inactive)
REMARK    1  A    between atoms: C_10  and  N_16 
REMARK    2  A    between atoms: N_19  and  C_22 
REMARK    3  A    between atoms: C_22  and  N_24 
REMARK    4  A    between atoms: N_24  and  C_25 
REMARK    5  A    between atoms: C_25  and  C_26 
ROOT
HETATM    1  N   UNK N   1      34.551  15.374   9.854  0.00  0.00    -0.362 N 
HETATM    2  C   UNK N   1      35.740  15.872  10.514  0.00  0.00     0.144 C 
HETATM    3  C   UNK N   1      36.855  14.849  10.340  0.00  0.00     0.145 C 
HETATM    4  N   UNK N   1      36.370  13.561  10.787  0.00  0.00    -0.355 N 
HETATM    5  C   UNK N   1      35.177  13.042  10.136  0.00  0.00     0.145 C 
HETATM    6  C   UNK N   1      34.052  14.070  10.241  0.00  0.00     0.144 C 
ENDROOT
BRANCH   1   7
HETATM    7  C   UNK N   1      33.912  16.113   8.815  0.00  0.00     0.141 A 
HETATM    8  C   UNK N   1      33.978  15.726   7.475  0.00  0.00     0.147 A 
HETATM    9  C   UNK N   1      33.351  16.475   6.521  0.00  0.00     0.084 A 
HETATM   10  O   UNK N   1      34.586  14.696   6.917  0.00  0.00    -0.304 OA
HETATM   11  C   UNK N   1      33.592  15.866   5.320  0.00  0.00     0.028 A 
HETATM   12  N   UNK N   1      32.654  17.596   6.816  0.00  0.00    -0.349 N 
HETATM   13  C   UNK N   1      34.364  14.764   5.617  0.00  0.00     0.088 A 
HETATM   14  C   UNK N   1      33.214  16.175   4.019  0.00  0.00     0.017 A 
HETATM   15  C   UNK N   1      34.811  13.895   4.625  0.00  0.00     0.038 A 
HETATM   16  C   UNK N   1      34.445  14.181   3.296  0.00  0.00     0.003 A 
HETATM   17  C   UNK N   1      33.651  15.314   2.994  0.00  0.00     0.001 A 
HETATM   18  C   UNK N   1      32.584  17.984   8.125  0.00  0.00     0.182 A 
ATOM     19  HN  UNK N   1      32.192  18.136   6.083  1.00  0.00     0.166 HD
HETATM   20  N   UNK N   1      33.207  17.252   9.106  0.00  0.00    -0.336 N 
ATOM     21  HN  UNK N   1      33.146  17.564  10.075  1.00  0.00     0.168 HD
ENDBRANCH   1   7
BRANCH   4  22
HETATM   22  C   UNK N   1      36.972  12.891  11.917  0.00  0.00     0.170 C 
HETATM   23  S   UNK N   1      37.681  11.649  11.734  0.00  0.00    -0.041 SA
BRANCH  22  24
HETATM   24  N   UNK N   1      36.904  13.434  13.236  0.00  0.00    -0.363 N 
HETATM   25  H   UNK N   1      37.742  13.676  13.693  0.00  0.00     0.162 HD
BRANCH  24  26
HETATM   26  C   UNK N   1      35.654  13.641  13.924  0.00  0.00     0.160 C 
BRANCH  26  27
HETATM   27  C   UNK N   1      35.611  12.977  15.257  0.00  0.00    -0.038 A 
HETATM   28  C   UNK N   1      35.450  11.573  15.325  0.00  0.00     0.012 A 
HETATM   29  C   UNK N   1      35.288  10.936  16.570  0.00  0.00     0.040 A 
HETATM   30  C   UNK N   1      35.276  11.739  17.707  0.00  0.00     0.105 A 
HETATM   31  C   UNK N   1      35.428  13.068  17.646  0.00  0.00     0.105 A 
HETATM   32  O   UNK N   1      35.110  11.373  18.976  0.00  0.00    -0.323 OA
HETATM   33  C   UNK N   1      35.599  13.746  16.440  0.00  0.00     0.048 A 
HETATM   34  O   UNK N   1      35.363  13.573  18.877  0.00  0.00    -0.323 OA
HETATM   35  C   UNK N   1      35.153  12.521  19.775  0.00  0.00     0.352 A 
ENDBRANCH  26  27
ENDBRANCH  24  26
ENDBRANCH  22  24
ENDBRANCH   4  22
TORSDOF 5
ENDMDL
