MODEL 1
REMARK VINA RESULT:      -4.7      0.000      0.000
REMARK  3 active torsions:
REMARK  status: ('A' for Active; 'I' for Inactive)
REMARK    1  A    between atoms: C_2  and  C_1 
REMARK    2  A    between atoms: C_3  and  C_1 
REMARK    3  A    between atoms: C_4  and  C_2 
ROOT
HETATM    1  C   UNK N   1      26.476  27.428  -5.381  0.00  0.00     0.412 C 
HETATM    2  F   UNK N   1      27.595  26.666  -5.682  0.00  0.00    -0.189 F 
HETATM    3  F   UNK N   1      26.599  28.638  -6.042  0.00  0.00    -0.189 F 
ENDROOT
BRANCH   1   4
HETATM    4  C   UNK N   1      26.483  27.670  -3.847  0.00  0.00     0.412 C 
HETATM    5  F   UNK N   1      25.181  27.768  -3.390  0.00  0.00    -0.189 F 
HETATM    6  F   UNK N   1      27.056  26.554  -3.258  0.00  0.00    -0.189 F 
BRANCH   4   7
HETATM    7  C   UNK N   1      27.255  28.913  -3.371  0.00  0.00     0.461 C 
HETATM    8  F   UNK N   1      27.446  28.831  -2.004  0.00  0.00    -0.165 F 
HETATM    9  F   UNK N   1      26.532  30.065  -3.624  0.00  0.00    -0.165 F 
HETATM   10  F   UNK N   1      28.489  28.993  -3.989  0.00  0.00    -0.165 F 
ENDBRANCH   4   7
ENDBRANCH   1   4
BRANCH   1  11
HETATM   11  C   UNK N   1      25.239  26.701  -5.938  0.00  0.00     0.461 C 
HETATM   12  F   UNK N   1      25.420  26.466  -7.289  0.00  0.00    -0.165 F 
HETATM   13  F   UNK N   1      25.050  25.491  -5.298  0.00  0.00    -0.165 F 
HETATM   14  F   UNK N   1      24.106  27.484  -5.797  0.00  0.00    -0.165 F 
ENDBRANCH   1  11
TORSDOF 3
ENDMDL
MODEL 2
REMARK VINA RESULT:      -4.6      0.042      4.030
REMARK  3 active torsions:
REMARK  status: ('A' for Active; 'I' for Inactive)
REMARK    1  A    between atoms: C_2  and  C_1 
REMARK    2  A    between atoms: C_3  and  C_1 
REMARK    3  A    between atoms: C_4  and  C_2 
ROOT
HETATM    1  C   UNK N   1      26.469  27.675  -3.841  0.00  0.00     0.412 C 
HETATM    2  F   UNK N   1      27.042  26.555  -3.259  0.00  0.00    -0.189 F 
HETATM    3  F   UNK N   1      25.162  27.762  -3.395  0.00  0.00    -0.189 F 
ENDROOT
BRANCH   1   4
HETATM    4  C   UNK N   1      26.480  27.451  -5.378  0.00  0.00     0.412 C 
HETATM    5  F   UNK N   1      26.578  28.672  -6.022  0.00  0.00    -0.189 F 
HETATM    6  F   UNK N   1      27.620  26.721  -5.678  0.00  0.00    -0.189 F 
BRANCH   4   7
HETATM    7  C   UNK N   1      25.265  26.701  -5.952  0.00  0.00     0.461 C 
HETATM    8  F   UNK N   1      24.134  27.478  -5.787  0.00  0.00    -0.165 F 
HETATM    9  F   UNK N   1      25.059  25.512  -5.274  0.00  0.00    -0.165 F 
HETATM   10  F   UNK N   1      25.436  26.444  -7.299  0.00  0.00    -0.165 F 
ENDBRANCH   4   7
ENDBRANCH   1   4
BRANCH   1  11
HETATM   11  C   UNK N   1      27.230  28.916  -3.342  0.00  0.00     0.461 C 
HETATM   12  F   UNK N   1      26.475  30.047  -3.598  0.00  0.00    -0.165 F 
HETATM   13  F   UNK N   1      27.463  28.837  -1.982  0.00  0.00    -0.165 F 
HETATM   14  F   UNK N   1      28.433  29.057  -4.012  0.00  0.00    -0.165 F 
ENDBRANCH   1  11
TORSDOF 3
ENDMDL
MODEL 3
REMARK VINA RESULT:      -4.6     25.063     26.631
REMARK  3 active torsions:
REMARK  status: ('A' for Active; 'I' for Inactive)
REMARK    1  A    between atoms: C_2  and  C_1 
REMARK    2  A    between atoms: C_3  and  C_1 
REMARK    3  A    between atoms: C_4  and  C_2 
ROOT
HETATM    1  C   UNK N   1      35.226  12.498  15.329  0.00  0.00     0.412 C 
HETATM    2  F   UNK N   1      35.549  11.512  16.248  0.00  0.00    -0.189 F 
HETATM    3  F   UNK N   1      34.084  13.137  15.779  0.00  0.00    -0.189 F 
ENDROOT
BRANCH   1   4
HETATM    4  C   UNK N   1      34.928  11.789  13.980  0.00  0.00     0.412 C 
HETATM    5  F   UNK N   1      34.389  12.700  13.088  0.00  0.00    -0.189 F 
HETATM    6  F   UNK N   1      36.141  11.359  13.465  0.00  0.00    -0.189 F 
BRANCH   4   7
HETATM    7  C   UNK N   1      33.984  10.576  14.057  0.00  0.00     0.461 C 
HETATM    8  F   UNK N   1      33.443  10.342  12.806  0.00  0.00    -0.165 F 
HETATM    9  F   UNK N   1      32.936  10.826  14.925  0.00  0.00    -0.165 F 
HETATM   10  F   UNK N   1      34.666   9.446  14.466  0.00  0.00    -0.165 F 
ENDBRANCH   4   7
ENDBRANCH   1   4
BRANCH   1  11
HETATM   11  C   UNK N   1      36.372  13.524  15.305  0.00  0.00     0.461 C 
HETATM   12  F   UNK N   1      36.345  14.263  16.475  0.00  0.00    -0.165 F 
HETATM   13  F   UNK N   1      37.597  12.892  15.207  0.00  0.00    -0.165 F 
HETATM   14  F   UNK N   1      36.218  14.407  14.250  0.00  0.00    -0.165 F 
ENDBRANCH   1  11
TORSDOF 3
ENDMDL
MODEL 4
REMARK VINA RESULT:      -4.6     25.890     27.324
REMARK  3 active torsions:
REMARK  status: ('A' for Active; 'I' for Inactive)
REMARK    1  A    between atoms: C_2  and  C_1 
REMARK    2  A    between atoms: C_3  and  C_1 
REMARK    3  A    between atoms: C_4  and  C_2 
ROOT
HETATM    1  C   UNK N   1      35.291  11.583  14.727  0.00  0.00     0.412 C 
HETATM    2  F   UNK N   1      36.268  11.088  13.876  0.00  0.00    -0.189 F 
HETATM    3  F   UNK N   1      34.619  12.590  14.059  0.00  0.00    -0.189 F 
ENDROOT
BRANCH   1   4
HETATM    4  C   UNK N   1      36.018  12.176  15.965  0.00  0.00     0.412 C 
HETATM    5  F   UNK N   1      36.617  11.155  16.683  0.00  0.00    -0.189 F 
HETATM    6  F   UNK N   1      37.021  13.008  15.493  0.00  0.00    -0.189 F 
BRANCH   4   7
HETATM    7  C   UNK N   1      35.136  12.989  16.930  0.00  0.00     0.461 C 
HETATM    8  F   UNK N   1      35.801  14.149  17.282  0.00  0.00    -0.165 F 
HETATM    9  F   UNK N   1      34.895  12.276  18.091  0.00  0.00    -0.165 F 
HETATM   10  F   UNK N   1      33.936  13.327  16.334  0.00  0.00    -0.165 F 
ENDBRANCH   4   7
ENDBRANCH   1   4
BRANCH   1  11
HETATM   11  C   UNK N   1      34.292  10.450  15.019  0.00  0.00     0.461 C 
HETATM   12  F   UNK N   1      34.584   9.366  14.209  0.00  0.00    -0.165 F 
HETATM   13  F   UNK N   1      34.371  10.051  16.340  0.00  0.00    -0.165 F 
HETATM   14  F   UNK N   1      32.999  10.850  14.730  0.00  0.00    -0.165 F 
ENDBRANCH   1  11
TORSDOF 3
ENDMDL
MODEL 5
REMARK VINA RESULT:      -4.6     25.068     26.355
REMARK  3 active torsions:
REMARK  status: ('A' for Active; 'I' for Inactive)
REMARK    1  A    between atoms: C_2  and  C_1 
REMARK    2  A    between atoms: C_3  and  C_1 
REMARK    3  A    between atoms: C_4  and  C_2 
ROOT
HETATM    1  C   UNK N   1      34.934  11.770  13.967  0.00  0.00     0.412 C 
HETATM    2  F   UNK N   1      36.153  11.349  13.459  0.00  0.00    -0.189 F 
HETATM    3  F   UNK N   1      34.400  12.687  13.080  0.00  0.00    -0.189 F 
ENDROOT
BRANCH   1   4
HETATM    4  C   UNK N   1      35.218  12.466  15.327  0.00  0.00     0.412 C 
HETATM    5  F   UNK N   1      34.065  13.084  15.778  0.00  0.00    -0.189 F 
HETATM    6  F   UNK N   1      35.550  11.473  16.235  0.00  0.00    -0.189 F 
BRANCH   4   7
HETATM    7  C   UNK N   1      36.351  13.507  15.319  0.00  0.00     0.461 C 
HETATM    8  F   UNK N   1      36.310  14.229  16.498  0.00  0.00    -0.165 F 
HETATM    9  F   UNK N   1      36.189  14.401  14.276  0.00  0.00    -0.165 F 
HETATM   10  F   UNK N   1      37.585  12.892  15.217  0.00  0.00    -0.165 F 
ENDBRANCH   4   7
ENDBRANCH   1   4
BRANCH   1  11
HETATM   11  C   UNK N   1      33.994  10.553  14.024  0.00  0.00     0.461 C 
HETATM   12  F   UNK N   1      33.435  10.352  12.774  0.00  0.00    -0.165 F 
HETATM   13  F   UNK N   1      34.685   9.414  14.390  0.00  0.00    -0.165 F 
HETATM   14  F   UNK N   1      32.957  10.775  14.914  0.00  0.00    -0.165 F 
ENDBRANCH   1  11
TORSDOF 3
ENDMDL
MODEL 6
REMARK VINA RESULT:      -4.6     25.869     27.510
REMARK  3 active torsions:
REMARK  status: ('A' for Active; 'I' for Inactive)
REMARK    1  A    between atoms: C_2  and  C_1 
REMARK    2  A    between atoms: C_3  and  C_1 
REMARK    3  A    between atoms: C_4  and  C_2 
ROOT
HETATM    1  C   UNK N   1      36.009  12.180  15.933  0.00  0.00     0.412 C 
HETATM    2  F   UNK N   1      36.998  13.025  15.453  0.00  0.00    -0.189 F 
HETATM    3  F   UNK N   1      36.626  11.166  16.644  0.00  0.00    -0.189 F 
ENDROOT
BRANCH   1   4
HETATM    4  C   UNK N   1      35.278  11.580  14.701  0.00  0.00     0.412 C 
HETATM    5  F   UNK N   1      34.594  12.582  14.036  0.00  0.00    -0.189 F 
HETATM    6  F   UNK N   1      36.252  11.091  13.844  0.00  0.00    -0.189 F 
BRANCH   4   7
HETATM    7  C   UNK N   1      34.288  10.440  15.001  0.00  0.00     0.461 C 
HETATM    8  F   UNK N   1      34.580   9.361  14.188  0.00  0.00    -0.165 F 
HETATM    9  F   UNK N   1      32.991  10.833  14.725  0.00  0.00    -0.165 F 
HETATM   10  F   UNK N   1      34.383  10.041  16.322  0.00  0.00    -0.165 F 
ENDBRANCH   4   7
ENDBRANCH   1   4
BRANCH   1  11
HETATM   11  C   UNK N   1      35.127  12.981  16.907  0.00  0.00     0.461 C 
HETATM   12  F   UNK N   1      35.786  14.143  17.267  0.00  0.00    -0.165 F 
HETATM   13  F   UNK N   1      33.923  13.317  16.319  0.00  0.00    -0.165 F 
HETATM   14  F   UNK N   1      34.893  12.259  18.064  0.00  0.00    -0.165 F 
ENDBRANCH   1  11
TORSDOF 3
ENDMDL
MODEL 7
REMARK VINA RESULT:      -4.6      1.845      3.766
REMARK  3 active torsions:
REMARK  status: ('A' for Active; 'I' for Inactive)
REMARK    1  A    between atoms: C_2  and  C_1 
REMARK    2  A    between atoms: C_3  and  C_1 
REMARK    3  A    between atoms: C_4  and  C_2 
ROOT
HETATM    1  C   UNK N   1      27.452  25.824  -4.760  0.00  0.00     0.412 C 
HETATM    2  F   UNK N   1      28.030  26.885  -4.081  0.00  0.00    -0.189 F 
HETATM    3  F   UNK N   1      27.977  25.804  -6.039  0.00  0.00    -0.189 F 
ENDROOT
BRANCH   1   4
HETATM    4  C   UNK N   1      25.925  26.098  -4.828  0.00  0.00     0.412 C 
HETATM    5  F   UNK N   1      25.245  24.900  -4.949  0.00  0.00    -0.189 F 
HETATM    6  F   UNK N   1      25.557  26.675  -3.623  0.00  0.00    -0.189 F 
BRANCH   4   7
HETATM    7  C   UNK N   1      25.465  27.029  -5.965  0.00  0.00     0.461 C 
HETATM    8  F   UNK N   1      24.158  27.417  -5.731  0.00  0.00    -0.165 F 
HETATM    9  F   UNK N   1      25.494  26.369  -7.180  0.00  0.00    -0.165 F 
HETATM   10  F   UNK N   1      26.260  28.158  -6.029  0.00  0.00    -0.165 F 
ENDBRANCH   4   7
ENDBRANCH   1   4
BRANCH   1  11
HETATM   11  C   UNK N   1      27.865  24.522  -4.051  0.00  0.00     0.461 C 
HETATM   12  F   UNK N   1      29.185  24.621  -3.650  0.00  0.00    -0.165 F 
HETATM   13  F   UNK N   1      27.078  24.295  -2.939  0.00  0.00    -0.165 F 
HETATM   14  F   UNK N   1      27.772  23.443  -4.914  0.00  0.00    -0.165 F 
ENDBRANCH   1  11
TORSDOF 3
ENDMDL
MODEL 8
REMARK VINA RESULT:      -4.6      1.884      3.761
REMARK  3 active torsions:
REMARK  status: ('A' for Active; 'I' for Inactive)
REMARK    1  A    between atoms: C_2  and  C_1 
REMARK    2  A    between atoms: C_3  and  C_1 
REMARK    3  A    between atoms: C_4  and  C_2 
ROOT
HETATM    1  C   UNK N   1      26.979  25.797  -3.896  0.00  0.00     0.412 C 
HETATM    2  F   UNK N   1      26.312  26.141  -2.730  0.00  0.00    -0.189 F 
HETATM    3  F   UNK N   1      28.027  26.684  -4.062  0.00  0.00    -0.189 F 
ENDROOT
BRANCH   1   4
HETATM    4  C   UNK N   1      25.971  25.959  -5.067  0.00  0.00     0.412 C 
HETATM    5  F   UNK N   1      26.579  25.592  -6.254  0.00  0.00    -0.189 F 
HETATM    6  F   UNK N   1      24.927  25.076  -4.835  0.00  0.00    -0.189 F 
BRANCH   4   7
HETATM    7  C   UNK N   1      25.377  27.367  -5.246  0.00  0.00     0.461 C 
HETATM    8  F   UNK N   1      26.264  28.145  -5.967  0.00  0.00    -0.165 F 
HETATM    9  F   UNK N   1      25.187  27.978  -4.019  0.00  0.00    -0.165 F 
HETATM   10  F   UNK N   1      24.176  27.312  -5.929  0.00  0.00    -0.165 F 
ENDBRANCH   4   7
ENDBRANCH   1   4
BRANCH   1  11
HETATM   11  C   UNK N   1      27.567  24.387  -3.712  0.00  0.00     0.461 C 
HETATM   12  F   UNK N   1      27.205  23.599  -4.790  0.00  0.00    -0.165 F 
HETATM   13  F   UNK N   1      28.946  24.435  -3.640  0.00  0.00    -0.165 F 
HETATM   14  F   UNK N   1      27.063  23.790  -2.570  0.00  0.00    -0.165 F 
ENDBRANCH   1  11
TORSDOF 3
ENDMDL
MODEL 9
REMARK VINA RESULT:      -4.6      1.866      3.535
REMARK  3 active torsions:
REMARK  status: ('A' for Active; 'I' for Inactive)
REMARK    1  A    between atoms: C_2  and  C_1 
REMARK    2  A    between atoms: C_3  and  C_1 
REMARK    3  A    between atoms: C_4  and  C_2 
ROOT
HETATM    1  C   UNK N   1      25.999  25.974  -5.314  0.00  0.00     0.412 C 
HETATM    2  F   UNK N   1      25.015  25.007  -5.179  0.00  0.00    -0.189 F 
HETATM    3  F   UNK N   1      26.509  25.882  -6.597  0.00  0.00    -0.189 F 
ENDROOT
BRANCH   1   4
HETATM    4  C   UNK N   1      27.115  25.642  -4.286  0.00  0.00     0.412 C 
HETATM    5  F   UNK N   1      27.882  26.771  -4.056  0.00  0.00    -0.189 F 
HETATM    6  F   UNK N   1      26.490  25.303  -3.096  0.00  0.00    -0.189 F 
BRANCH   4   7
HETATM    7  C   UNK N   1      28.060  24.491  -4.676  0.00  0.00     0.461 C 
HETATM    8  F   UNK N   1      27.326  23.489  -5.285  0.00  0.00    -0.165 F 
HETATM    9  F   UNK N   1      28.658  23.947  -3.553  0.00  0.00    -0.165 F 
HETATM   10  F   UNK N   1      29.033  24.928  -5.555  0.00  0.00    -0.165 F 
ENDBRANCH   4   7
ENDBRANCH   1   4
BRANCH   1  11
HETATM   11  C   UNK N   1      25.338  27.355  -5.159  0.00  0.00     0.461 C 
HETATM   12  F   UNK N   1      26.141  28.313  -5.750  0.00  0.00    -0.165 F 
HETATM   13  F   UNK N   1      24.097  27.378  -5.767  0.00  0.00    -0.165 F 
HETATM   14  F   UNK N   1      25.206  27.688  -3.822  0.00  0.00    -0.165 F 
ENDBRANCH   1  11
TORSDOF 3
ENDMDL
