REMARK  5 active torsions:
REMARK  status: ('A' for Active; 'I' for Inactive)
REMARK    1  A    between atoms: C_4  and  C_8 
REMARK    2  A    between atoms: C_13  and  N_17 
REMARK       I    between atoms: N_17  and  C_18 
REMARK    3  A    between atoms: C_18  and  C_20 
REMARK    4  A    between atoms: C_20  and  C_21 
REMARK    5  A    between atoms: C_20  and  N_27 
ROOT
HETATM    1  C   UNK N   1       1.754   4.140  -0.022  0.00  0.00     0.058 A 
HETATM    2  C   UNK N   1       2.407   2.908   0.076  0.00  0.00     0.022 A 
HETATM    3  C   UNK N   1       1.468   1.955  -0.203  0.00  0.00     0.020 A 
HETATM    4  C   UNK N   1       1.546   0.564  -0.309  0.00  0.00     0.049 A 
HETATM    5  C   UNK N   1       0.358  -0.109  -0.698  0.00  0.00     0.047 A 
HETATM    6  C   UNK N   1      -0.850   0.585  -0.923  0.00  0.00     0.037 A 
HETATM    7  C   UNK N   1      -0.889   1.979  -0.783  0.00  0.00     0.060 A 
HETATM    8  C   UNK N   1       0.286   2.628  -0.427  0.00  0.00     0.047 A 
HETATM    9  N   UNK N   1       0.448   3.957  -0.317  0.00  0.00    -0.354 N 
HETATM   10  C   UNK N   1       2.712  -0.197  -0.090  0.00  0.00     0.271 A 
HETATM   11  O   UNK N   1       2.631  -1.408  -0.217  0.00  0.00    -0.266 OA
HETATM   12  N   UNK N   1       3.944   0.309   0.256  0.00  0.00    -0.266 N 
HETATM   13  N   UNK N   1       4.392   1.549   0.449  0.00  0.00    -0.308 N 
ATOM     14  HN  UNK N   1       5.378   1.617   0.700  1.00  0.00     0.186 HD
HETATM   15  C   UNK N   1       3.742   2.733   0.363  0.00  0.00     0.121 A 
HETATM   16  H   UNK N   1      -0.241   4.652  -0.428  0.00  0.00     0.166 HD
HETATM   17  H   UNK N   1       4.631  -0.384   0.387  0.00  0.00     0.190 HD
ENDROOT
BRANCH   6  18
HETATM   18  N   UNK N   1      -1.965  -0.107  -1.459  0.00  0.00    -0.325 N 
HETATM   19  C   UNK N   1      -3.187  -0.177  -0.874  0.00  0.00     0.244 C 
HETATM   20  O   UNK N   1      -4.100  -0.718  -1.478  0.00  0.00    -0.271 OA
HETATM   21  H   UNK N   1      -1.844  -0.570  -2.320  0.00  0.00     0.169 HD
BRANCH  19  22
HETATM   22  C   UNK N   1      -3.402   0.276   0.549  0.00  0.00     0.171 C 
BRANCH  22  23
HETATM   23  C   UNK N   1      -4.517   1.310   0.745  0.00  0.00     0.017 C 
HETATM   24  C   UNK N   1      -5.904   0.811   0.322  0.00  0.00     0.007 C 
HETATM   25  C   UNK N   1      -7.014   1.823   0.645  0.00  0.00     0.000 C 
HETATM   26  C   UNK N   1      -6.483   3.164   1.162  0.00  0.00     0.000 C 
HETATM   27  C   UNK N   1      -5.345   3.676   0.275  0.00  0.00     0.000 C 
HETATM   28  C   UNK N   1      -4.202   2.661   0.104  0.00  0.00     0.007 C 
ENDBRANCH  22  23
BRANCH  22  29
HETATM   29  N   UNK N   1      -3.671  -0.886   1.381  0.00  0.00    -0.418 N 
HETATM   30  H   UNK N   1      -4.472  -1.130   1.964  0.00  0.00     0.150 HD
HETATM   31  H   UNK N   1      -2.926  -1.582   1.381  0.00  0.00     0.150 HD
ENDBRANCH  22  29
ENDBRANCH  19  22
ENDBRANCH   6  18
BRANCH   1  32
HETATM   32  C   UNK N   1       2.354   5.483   0.082  0.00  0.00     0.025 A 
HETATM   33  C   UNK N   1       3.689   5.804   0.229  0.00  0.00     0.124 A 
HETATM   34  N   UNK N   1       3.777   7.143   0.187  0.00  0.00    -0.307 N 
HETATM   35  C   UNK N   1       5.003   7.914   0.273  0.00  0.00     0.177 C 
HETATM   36  N   UNK N   1       2.580   7.679   0.021  0.00  0.00    -0.310 N 
HETATM   37  C   UNK N   1       1.676   6.682  -0.051  0.00  0.00     0.122 A 
ATOM     38  HN  UNK N   1       2.375   8.676  -0.042  1.00  0.00     0.186 HD
ENDBRANCH   1  32
TORSDOF 5
