MODEL 1
REMARK VINA RESULT:      -3.7      0.000      0.000
REMARK  5 active torsions:
REMARK  status: ('A' for Active; 'I' for Inactive)
REMARK    1  A    between atoms: S_2  and  C_3 
REMARK    2  A    between atoms: C_3  and  C_4 
REMARK    3  A    between atoms: C_4  and  C_5 
REMARK    4  A    between atoms: C_5  and  C_6 
REMARK    5  A    between atoms: C_6  and  N_7 
ROOT
HETATM    1  N   UNK N   1      27.518  19.044   7.842  0.00  0.00    -0.390 N 
ATOM      2  HN  UNK N   1      26.531  18.975   8.091  1.00  0.00     0.159 HD
HETATM    3  C   UNK N   1      28.413  18.711   8.655  0.00  0.00     0.165 C 
HETATM    4  S   UNK N   1      29.437  18.343   9.550  0.00  0.00    -0.075 SA
ENDROOT
BRANCH   1   5
HETATM    5  C   UNK N   1      27.913  19.520   6.565  0.00  0.00     0.119 C 
BRANCH   5   6
HETATM    6  C   UNK N   1      27.534  20.951   6.313  0.00  0.00     0.020 C 
BRANCH   6   7
HETATM    7  C   UNK N   1      26.319  20.758   5.460  0.00  0.00     0.014 C 
BRANCH   7   8
HETATM    8  C   UNK N   1      26.519  19.955   4.213  0.00  0.00     0.108 C 
BRANCH   8   9
HETATM    9  S   UNK N   1      24.868  19.931   3.463  0.00  0.00     0.010 S 
HETATM   10  C   UNK N   1      23.576  18.813   4.074  0.00  0.00     0.127 C 
HETATM   11  O   UNK N   1      24.541  20.994   2.146  0.00  0.00    -0.258 OA
ENDBRANCH   8   9
ENDBRANCH   7   8
ENDBRANCH   6   7
ENDBRANCH   5   6
ENDBRANCH   1   5
TORSDOF 5
ENDMDL
MODEL 2
REMARK VINA RESULT:      -3.7      8.584     10.579
REMARK  5 active torsions:
REMARK  status: ('A' for Active; 'I' for Inactive)
REMARK    1  A    between atoms: S_2  and  C_3 
REMARK    2  A    between atoms: C_3  and  C_4 
REMARK    3  A    between atoms: C_4  and  C_5 
REMARK    4  A    between atoms: C_5  and  C_6 
REMARK    5  A    between atoms: C_6  and  N_7 
ROOT
HETATM    1  N   UNK N   1      34.597  13.608  11.950  0.00  0.00    -0.390 N 
ATOM      2  HN  UNK N   1      33.633  13.306  11.801  1.00  0.00     0.159 HD
HETATM    3  C   UNK N   1      35.199  13.334  13.015  0.00  0.00     0.165 C 
HETATM    4  S   UNK N   1      35.899  13.039  14.203  0.00  0.00    -0.075 SA
ENDROOT
BRANCH   1   5
HETATM    5  C   UNK N   1      35.288  14.348  10.957  0.00  0.00     0.119 C 
BRANCH   5   6
HETATM    6  C   UNK N   1      35.946  15.592  11.483  0.00  0.00     0.020 C 
BRANCH   6   7
HETATM    7  C   UNK N   1      35.266  16.628  10.643  0.00  0.00     0.014 C 
BRANCH   7   8
HETATM    8  C   UNK N   1      35.026  16.253   9.215  0.00  0.00     0.108 C 
BRANCH   8   9
HETATM    9  S   UNK N   1      34.320  17.763   8.500  0.00  0.00     0.010 S 
HETATM   10  C   UNK N   1      32.642  17.780   7.811  0.00  0.00     0.127 C 
HETATM   11  O   UNK N   1      35.278  19.197   8.483  0.00  0.00    -0.258 OA
ENDBRANCH   8   9
ENDBRANCH   7   8
ENDBRANCH   6   7
ENDBRANCH   5   6
ENDBRANCH   1   5
TORSDOF 5
ENDMDL
MODEL 3
REMARK VINA RESULT:      -3.6      6.293      7.894
REMARK  5 active torsions:
REMARK  status: ('A' for Active; 'I' for Inactive)
REMARK    1  A    between atoms: S_2  and  C_3 
REMARK    2  A    between atoms: C_3  and  C_4 
REMARK    3  A    between atoms: C_4  and  C_5 
REMARK    4  A    between atoms: C_5  and  C_6 
REMARK    5  A    between atoms: C_6  and  N_7 
ROOT
HETATM    1  N   UNK N   1      35.006  17.293  10.367  0.00  0.00    -0.390 N 
ATOM      2  HN  UNK N   1      35.036  18.241  10.742  1.00  0.00     0.159 HD
HETATM    3  C   UNK N   1      35.391  16.316  11.053  0.00  0.00     0.165 C 
HETATM    4  S   UNK N   1      35.818  15.201  11.802  0.00  0.00    -0.075 SA
ENDROOT
BRANCH   1   5
HETATM    5  C   UNK N   1      34.528  17.046   9.054  0.00  0.00     0.119 C 
BRANCH   5   6
HETATM    6  C   UNK N   1      34.424  18.284   8.210  0.00  0.00     0.020 C 
BRANCH   6   7
HETATM    7  C   UNK N   1      33.534  17.785   7.114  0.00  0.00     0.014 C 
BRANCH   7   8
HETATM    8  C   UNK N   1      32.766  16.537   7.417  0.00  0.00     0.108 C 
BRANCH   8   9
HETATM    9  S   UNK N   1      31.060  17.129   7.587  0.00  0.00     0.010 S 
HETATM   10  C   UNK N   1      30.600  18.303   8.891  0.00  0.00     0.127 C 
HETATM   11  O   UNK N   1      29.870  16.552   6.482  0.00  0.00    -0.258 OA
ENDBRANCH   8   9
ENDBRANCH   7   8
ENDBRANCH   6   7
ENDBRANCH   5   6
ENDBRANCH   1   5
TORSDOF 5
ENDMDL
MODEL 4
REMARK VINA RESULT:      -3.6     10.148     12.666
REMARK  5 active torsions:
REMARK  status: ('A' for Active; 'I' for Inactive)
REMARK    1  A    between atoms: S_2  and  C_3 
REMARK    2  A    between atoms: C_3  and  C_4 
REMARK    3  A    between atoms: C_4  and  C_5 
REMARK    4  A    between atoms: C_5  and  C_6 
REMARK    5  A    between atoms: C_6  and  N_7 
ROOT
HETATM    1  N   UNK N   1      34.965  17.171  10.402  0.00  0.00    -0.390 N 
ATOM      2  HN  UNK N   1      34.842  17.973  11.021  1.00  0.00     0.159 HD
HETATM    3  C   UNK N   1      34.623  17.231   9.196  0.00  0.00     0.165 C 
HETATM    4  S   UNK N   1      34.249  17.272   7.838  0.00  0.00    -0.075 SA
ENDROOT
BRANCH   1   5
HETATM    5  C   UNK N   1      35.525  15.960  10.884  0.00  0.00     0.119 C 
BRANCH   5   6
HETATM    6  C   UNK N   1      34.498  14.941  11.287  0.00  0.00     0.020 C 
BRANCH   6   7
HETATM    7  C   UNK N   1      35.351  13.712  11.343  0.00  0.00     0.014 C 
BRANCH   7   8
HETATM    8  C   UNK N   1      36.579  13.810  12.192  0.00  0.00     0.108 C 
BRANCH   8   9
HETATM    9  S   UNK N   1      35.941  13.586  13.875  0.00  0.00     0.010 S 
HETATM   10  C   UNK N   1      36.860  14.195  15.316  0.00  0.00     0.127 C 
HETATM   11  O   UNK N   1      34.434  12.775  14.088  0.00  0.00    -0.258 OA
ENDBRANCH   8   9
ENDBRANCH   7   8
ENDBRANCH   6   7
ENDBRANCH   5   6
ENDBRANCH   1   5
TORSDOF 5
ENDMDL
MODEL 5
REMARK VINA RESULT:      -3.5      8.324      8.748
REMARK  5 active torsions:
REMARK  status: ('A' for Active; 'I' for Inactive)
REMARK    1  A    between atoms: S_2  and  C_3 
REMARK    2  A    between atoms: C_3  and  C_4 
REMARK    3  A    between atoms: C_4  and  C_5 
REMARK    4  A    between atoms: C_5  and  C_6 
REMARK    5  A    between atoms: C_6  and  N_7 
ROOT
HETATM    1  N   UNK N   1      34.823  17.336  10.037  0.00  0.00    -0.390 N 
ATOM      2  HN  UNK N   1      35.306  18.225  10.167  1.00  0.00     0.159 HD
HETATM    3  C   UNK N   1      35.077  16.352  10.772  0.00  0.00     0.165 C 
HETATM    4  S   UNK N   1      35.343  15.231  11.584  0.00  0.00    -0.075 SA
ENDROOT
BRANCH   1   5
HETATM    5  C   UNK N   1      33.848  17.181   9.018  0.00  0.00     0.119 C 
BRANCH   5   6
HETATM    6  C   UNK N   1      34.029  18.125   7.864  0.00  0.00     0.020 C 
BRANCH   6   7
HETATM    7  C   UNK N   1      33.023  17.568   6.905  0.00  0.00     0.014 C 
BRANCH   7   8
HETATM    8  C   UNK N   1      33.467  17.475   5.479  0.00  0.00     0.108 C 
BRANCH   8   9
HETATM    9  S   UNK N   1      34.141  15.795   5.361  0.00  0.00     0.010 S 
HETATM   10  C   UNK N   1      33.190  14.454   4.594  0.00  0.00     0.127 C 
HETATM   11  O   UNK N   1      35.714  15.488   5.998  0.00  0.00    -0.258 OA
ENDBRANCH   8   9
ENDBRANCH   7   8
ENDBRANCH   6   7
ENDBRANCH   5   6
ENDBRANCH   1   5
TORSDOF 5
ENDMDL
MODEL 6
REMARK VINA RESULT:      -3.4      4.598      6.918
REMARK  5 active torsions:
REMARK  status: ('A' for Active; 'I' for Inactive)
REMARK    1  A    between atoms: S_2  and  C_3 
REMARK    2  A    between atoms: C_3  and  C_4 
REMARK    3  A    between atoms: C_4  and  C_5 
REMARK    4  A    between atoms: C_5  and  C_6 
REMARK    5  A    between atoms: C_6  and  N_7 
ROOT
HETATM    1  N   UNK N   1      27.735  18.416   7.096  0.00  0.00    -0.390 N 
ATOM      2  HN  UNK N   1      26.931  17.867   7.404  1.00  0.00     0.159 HD
HETATM    3  C   UNK N   1      27.579  19.528   6.538  0.00  0.00     0.165 C 
HETATM    4  S   UNK N   1      27.433  20.781   5.910  0.00  0.00    -0.075 SA
ENDROOT
BRANCH   1   5
HETATM    5  C   UNK N   1      29.056  17.937   7.287  0.00  0.00     0.119 C 
BRANCH   5   6
HETATM    6  C   UNK N   1      29.628  18.273   8.635  0.00  0.00     0.020 C 
BRANCH   6   7
HETATM    7  C   UNK N   1      30.918  17.515   8.574  0.00  0.00     0.014 C 
BRANCH   7   8
HETATM    8  C   UNK N   1      31.445  17.240   7.201  0.00  0.00     0.108 C 
BRANCH   8   9
HETATM    9  S   UNK N   1      33.236  17.458   7.392  0.00  0.00     0.010 S 
HETATM   10  C   UNK N   1      34.034  17.293   9.013  0.00  0.00     0.127 C 
HETATM   11  O   UNK N   1      34.178  17.832   5.997  0.00  0.00    -0.258 OA
ENDBRANCH   8   9
ENDBRANCH   7   8
ENDBRANCH   6   7
ENDBRANCH   5   6
ENDBRANCH   1   5
TORSDOF 5
ENDMDL
MODEL 7
REMARK VINA RESULT:      -3.4      8.143      8.624
REMARK  5 active torsions:
REMARK  status: ('A' for Active; 'I' for Inactive)
REMARK    1  A    between atoms: S_2  and  C_3 
REMARK    2  A    between atoms: C_3  and  C_4 
REMARK    3  A    between atoms: C_4  and  C_5 
REMARK    4  A    between atoms: C_5  and  C_6 
REMARK    5  A    between atoms: C_6  and  N_7 
ROOT
HETATM    1  N   UNK N   1      21.801  12.336   9.092  0.00  0.00    -0.390 N 
ATOM      2  HN  UNK N   1      21.441  11.562   8.532  1.00  0.00     0.159 HD
HETATM    3  C   UNK N   1      22.481  12.122  10.124  0.00  0.00     0.165 C 
HETATM    4  S   UNK N   1      23.248  11.910  11.287  0.00  0.00    -0.075 SA
ENDROOT
BRANCH   1   5
HETATM    5  C   UNK N   1      21.543  13.681   8.722  0.00  0.00     0.119 C 
BRANCH   5   6
HETATM    6  C   UNK N   1      20.839  13.817   7.402  0.00  0.00     0.020 C 
BRANCH   6   7
HETATM    7  C   UNK N   1      20.194  15.156   7.581  0.00  0.00     0.014 C 
BRANCH   7   8
HETATM    8  C   UNK N   1      20.768  16.015   8.664  0.00  0.00     0.108 C 
BRANCH   8   9
HETATM    9  S   UNK N   1      19.634  17.430   8.716  0.00  0.00     0.010 S 
HETATM   10  C   UNK N   1      17.863  17.203   9.036  0.00  0.00     0.127 C 
HETATM   11  O   UNK N   1      20.271  19.011   8.453  0.00  0.00    -0.258 OA
ENDBRANCH   8   9
ENDBRANCH   7   8
ENDBRANCH   6   7
ENDBRANCH   5   6
ENDBRANCH   1   5
TORSDOF 5
ENDMDL
MODEL 8
REMARK VINA RESULT:      -3.3      2.916      3.645
REMARK  5 active torsions:
REMARK  status: ('A' for Active; 'I' for Inactive)
REMARK    1  A    between atoms: S_2  and  C_3 
REMARK    2  A    between atoms: C_3  and  C_4 
REMARK    3  A    between atoms: C_4  and  C_5 
REMARK    4  A    between atoms: C_5  and  C_6 
REMARK    5  A    between atoms: C_6  and  N_7 
ROOT
HETATM    1  N   UNK N   1      30.893  17.782   9.378  0.00  0.00    -0.390 N 
ATOM      2  HN  UNK N   1      31.182  17.430  10.291  1.00  0.00     0.159 HD
HETATM    3  C   UNK N   1      31.475  17.411   8.331  0.00  0.00     0.165 C 
HETATM    4  S   UNK N   1      32.112  17.009   7.139  0.00  0.00    -0.075 SA
ENDROOT
BRANCH   1   5
HETATM    5  C   UNK N   1      29.822  18.704   9.261  0.00  0.00     0.119 C 
BRANCH   5   6
HETATM    6  C   UNK N   1      28.564  18.099   8.706  0.00  0.00     0.020 C 
BRANCH   6   7
HETATM    7  C   UNK N   1      28.180  19.148   7.710  0.00  0.00     0.014 C 
BRANCH   7   8
HETATM    8  C   UNK N   1      27.748  18.644   6.369  0.00  0.00     0.108 C 
BRANCH   8   9
HETATM    9  S   UNK N   1      27.307  20.161   5.477  0.00  0.00     0.010 S 
HETATM   10  C   UNK N   1      27.097  21.737   6.352  0.00  0.00     0.127 C 
HETATM   11  O   UNK N   1      27.085  20.083   3.769  0.00  0.00    -0.258 OA
ENDBRANCH   8   9
ENDBRANCH   7   8
ENDBRANCH   6   7
ENDBRANCH   5   6
ENDBRANCH   1   5
TORSDOF 5
ENDMDL
MODEL 9
REMARK VINA RESULT:      -3.3      6.383      7.649
REMARK  5 active torsions:
REMARK  status: ('A' for Active; 'I' for Inactive)
REMARK    1  A    between atoms: S_2  and  C_3 
REMARK    2  A    between atoms: C_3  and  C_4 
REMARK    3  A    between atoms: C_4  and  C_5 
REMARK    4  A    between atoms: C_5  and  C_6 
REMARK    5  A    between atoms: C_6  and  N_7 
ROOT
HETATM    1  N   UNK N   1      30.922  16.970   9.233  0.00  0.00    -0.390 N 
ATOM      2  HN  UNK N   1      31.005  16.468  10.118  1.00  0.00     0.159 HD
HETATM    3  C   UNK N   1      29.918  17.680   8.986  0.00  0.00     0.165 C 
HETATM    4  S   UNK N   1      28.801  18.484   8.684  0.00  0.00    -0.075 SA
ENDROOT
BRANCH   1   5
HETATM    5  C   UNK N   1      31.942  16.882   8.250  0.00  0.00     0.119 C 
BRANCH   5   6
HETATM    6  C   UNK N   1      32.868  18.064   8.236  0.00  0.00     0.020 C 
BRANCH   6   7
HETATM    7  C   UNK N   1      33.689  17.745   7.025  0.00  0.00     0.014 C 
BRANCH   7   8
HETATM    8  C   UNK N   1      32.928  17.248   5.836  0.00  0.00     0.108 C 
BRANCH   8   9
HETATM    9  S   UNK N   1      34.007  15.953   5.165  0.00  0.00     0.010 S 
HETATM   10  C   UNK N   1      33.512  14.978   3.717  0.00  0.00     0.127 C 
HETATM   11  O   UNK N   1      35.522  15.657   5.933  0.00  0.00    -0.258 OA
ENDBRANCH   8   9
ENDBRANCH   7   8
ENDBRANCH   6   7
ENDBRANCH   5   6
ENDBRANCH   1   5
TORSDOF 5
ENDMDL
