MODEL 1
REMARK VINA RESULT:      -7.9      0.000      0.000
REMARK  4 active torsions:
REMARK  status: ('A' for Active; 'I' for Inactive)
REMARK    1  A    between atoms: O_32  and  C_14 
REMARK    2  A    between atoms: C_23  and  C_15 
REMARK    3  A    between atoms: C_24  and  C_17 
REMARK       I    between atoms: N_29  and  C_23 
REMARK    4  A    between atoms: O_32  and  C_24 
ROOT
HETATM    1  C   UNK N   1      32.036  14.116   6.358  0.00  0.00     0.021 C 
HETATM    2  C   UNK N   1      31.175  15.820   4.814  0.00  0.00     0.021 C 
HETATM    3  C   UNK N   1      28.517  18.066   7.341  0.00  0.00     0.001 A 
HETATM    4  C   UNK N   1      28.761  18.754   8.550  0.00  0.00     0.002 A 
HETATM    5  C   UNK N   1      29.521  17.270   6.761  0.00  0.00     0.014 A 
HETATM    6  C   UNK N   1      30.009  18.647   9.185  0.00  0.00     0.030 A 
HETATM    7  C   UNK N   1      34.957  15.618   7.448  0.00  0.00     0.114 C 
HETATM    8  C   UNK N   1      33.530  15.878   5.384  0.00  0.00     0.145 C 
HETATM    9  C   UNK N   1      30.754  17.184   7.413  0.00  0.00    -0.000 A 
HETATM   10  C   UNK N   1      34.227  16.306   8.367  0.00  0.00     0.082 C 
HETATM   11  C   UNK N   1      30.978  17.850   8.582  0.00  0.00     0.043 A 
HETATM   12  C   UNK N   1      31.916  16.480   7.117  0.00  0.00    -0.008 A 
HETATM   13  C   UNK N   1      32.809  16.774   8.159  0.00  0.00     0.058 A 
HETATM   14  C   UNK N   1      35.465  14.432   5.355  0.00  0.00     0.257 C 
HETATM   15  C   UNK N   1      32.162  15.574   5.945  0.00  0.00    -0.001 C 
HETATM   16  N   UNK N   1      32.212  17.614   9.044  0.00  0.00    -0.354 N 
HETATM   17  N   UNK N   1      34.634  15.252   6.097  0.00  0.00    -0.322 N 
HETATM   18  O   UNK N   1      35.167  14.188   4.193  0.00  0.00    -0.267 OA
HETATM   19  H   UNK N   1      32.610  17.981   9.866  0.00  0.00     0.166 HD
ENDROOT
BRANCH  14  20
HETATM   20  C   UNK N   1      36.772  13.876   5.851  0.00  0.00     0.035 A 
HETATM   21  C   UNK N   1      36.860  12.820   6.764  0.00  0.00     0.020 A 
HETATM   22  C   UNK N   1      38.094  12.424   7.291  0.00  0.00     0.046 A 
HETATM   23  C   UNK N   1      39.260  13.089   6.918  0.00  0.00     0.154 A 
HETATM   24  C   UNK N   1      39.197  14.128   5.987  0.00  0.00     0.155 A 
HETATM   25  F   UNK N   1      40.446  12.730   7.465  0.00  0.00    -0.203 F 
HETATM   26  C   UNK N   1      37.963  14.515   5.455  0.00  0.00     0.062 A 
HETATM   27  F   UNK N   1      40.325  14.781   5.618  0.00  0.00    -0.203 F 
ENDBRANCH  14  20
BRANCH  10  28
HETATM   28  C   UNK N   1      34.863  16.608   9.716  0.00  0.00     0.297 C 
HETATM   29  O   UNK N   1      35.323  17.721   9.912  0.00  0.00    -0.259 OA
BRANCH  28  30
HETATM   30  O   UNK N   1      34.938  15.726  10.753  0.00  0.00    -0.313 OA
BRANCH  30  31
HETATM   31  C   UNK N   1      36.064  15.252  11.382  0.00  0.00     0.124 C 
HETATM   32  C   UNK N   1      36.880  14.458  10.383  0.00  0.00     0.040 C 
HETATM   33  C   UNK N   1      35.689  14.342  12.537  0.00  0.00     0.040 C 
ENDBRANCH  30  31
ENDBRANCH  28  30
ENDBRANCH  10  28
TORSDOF 4
ENDMDL
MODEL 2
REMARK VINA RESULT:      -7.8     12.562     15.166
REMARK  4 active torsions:
REMARK  status: ('A' for Active; 'I' for Inactive)
REMARK    1  A    between atoms: O_32  and  C_14 
REMARK    2  A    between atoms: C_23  and  C_15 
REMARK    3  A    between atoms: C_24  and  C_17 
REMARK       I    between atoms: N_29  and  C_23 
REMARK    4  A    between atoms: O_32  and  C_24 
ROOT
HETATM    1  C   UNK N   1      31.242  24.077  -3.671  0.00  0.00     0.021 C 
HETATM    2  C   UNK N   1      29.335  23.439  -2.263  0.00  0.00     0.021 C 
HETATM    3  C   UNK N   1      25.989  24.734  -4.635  0.00  0.00     0.001 A 
HETATM    4  C   UNK N   1      25.608  24.390  -5.950  0.00  0.00     0.002 A 
HETATM    5  C   UNK N   1      27.218  24.292  -4.113  0.00  0.00     0.014 A 
HETATM    6  C   UNK N   1      26.454  23.604  -6.750  0.00  0.00     0.030 A 
HETATM    7  C   UNK N   1      31.813  21.132  -5.396  0.00  0.00     0.114 C 
HETATM    8  C   UNK N   1      30.712  21.674  -3.192  0.00  0.00     0.145 C 
HETATM    9  C   UNK N   1      28.039  23.508  -4.929  0.00  0.00    -0.000 A 
HETATM   10  C   UNK N   1      30.842  21.492  -6.277  0.00  0.00     0.082 C 
HETATM   11  C   UNK N   1      27.661  23.185  -6.199  0.00  0.00     0.043 A 
HETATM   12  C   UNK N   1      29.293  22.947  -4.722  0.00  0.00    -0.008 A 
HETATM   13  C   UNK N   1      29.613  22.288  -5.919  0.00  0.00     0.058 A 
HETATM   14  C   UNK N   1      33.028  20.994  -3.263  0.00  0.00     0.257 C 
HETATM   15  C   UNK N   1      30.144  23.041  -3.488  0.00  0.00    -0.001 C 
HETATM   16  N   UNK N   1      28.599  22.449  -6.809  0.00  0.00    -0.354 N 
HETATM   17  N   UNK N   1      31.887  21.320  -3.974  0.00  0.00    -0.322 N 
HETATM   18  O   UNK N   1      33.024  21.131  -2.047  0.00  0.00    -0.267 OA
HETATM   19  H   UNK N   1      28.559  22.092  -7.725  0.00  0.00     0.166 HD
ENDROOT
BRANCH  14  20
HETATM   20  C   UNK N   1      34.267  20.394  -3.874  0.00  0.00     0.035 A 
HETATM   21  C   UNK N   1      35.399  21.146  -4.207  0.00  0.00     0.020 A 
HETATM   22  C   UNK N   1      36.474  20.565  -4.888  0.00  0.00     0.046 A 
HETATM   23  C   UNK N   1      36.425  19.222  -5.256  0.00  0.00     0.154 A 
HETATM   24  C   UNK N   1      35.317  18.448  -4.907  0.00  0.00     0.155 A 
HETATM   25  F   UNK N   1      37.450  18.676  -5.954  0.00  0.00    -0.203 F 
HETATM   26  C   UNK N   1      34.248  19.029  -4.218  0.00  0.00     0.062 A 
HETATM   27  F   UNK N   1      35.260  17.141  -5.259  0.00  0.00    -0.203 F 
ENDBRANCH  14  20
BRANCH  10  28
HETATM   28  C   UNK N   1      31.006  21.094  -7.737  0.00  0.00     0.297 C 
HETATM   29  O   UNK N   1      31.049  21.973  -8.582  0.00  0.00    -0.259 OA
BRANCH  28  30
HETATM   30  O   UNK N   1      31.138  19.812  -8.182  0.00  0.00    -0.313 OA
BRANCH  30  31
HETATM   31  C   UNK N   1      30.187  19.020  -8.777  0.00  0.00     0.124 C 
HETATM   32  C   UNK N   1      29.152  18.640  -7.738  0.00  0.00     0.040 C 
HETATM   33  C   UNK N   1      30.814  17.751  -9.326  0.00  0.00     0.040 C 
ENDBRANCH  30  31
ENDBRANCH  28  30
ENDBRANCH  10  28
TORSDOF 4
ENDMDL
MODEL 3
REMARK VINA RESULT:      -7.7     14.010     17.210
REMARK  4 active torsions:
REMARK  status: ('A' for Active; 'I' for Inactive)
REMARK    1  A    between atoms: O_32  and  C_14 
REMARK    2  A    between atoms: C_23  and  C_15 
REMARK    3  A    between atoms: C_24  and  C_17 
REMARK       I    between atoms: N_29  and  C_23 
REMARK    4  A    between atoms: O_32  and  C_24 
ROOT
HETATM    1  C   UNK N   1      31.143  22.431  -7.821  0.00  0.00     0.021 C 
HETATM    2  C   UNK N   1      30.963  19.986  -7.971  0.00  0.00     0.021 C 
HETATM    3  C   UNK N   1      34.566  18.696  -6.009  0.00  0.00     0.001 A 
HETATM    4  C   UNK N   1      35.044  18.951  -4.705  0.00  0.00     0.002 A 
HETATM    5  C   UNK N   1      33.417  19.352  -6.486  0.00  0.00     0.014 A 
HETATM    6  C   UNK N   1      34.376  19.864  -3.873  0.00  0.00     0.030 A 
HETATM    7  C   UNK N   1      29.341  23.057  -4.934  0.00  0.00     0.114 C 
HETATM    8  C   UNK N   1      29.345  21.171  -6.610  0.00  0.00     0.145 C 
HETATM    9  C   UNK N   1      32.771  20.253  -5.636  0.00  0.00    -0.000 A 
HETATM   10  C   UNK N   1      30.457  22.774  -4.209  0.00  0.00     0.082 C 
HETATM   11  C   UNK N   1      33.243  20.494  -4.379  0.00  0.00     0.043 A 
HETATM   12  C   UNK N   1      31.652  21.059  -5.811  0.00  0.00    -0.008 A 
HETATM   13  C   UNK N   1      31.503  21.764  -4.606  0.00  0.00     0.058 A 
HETATM   14  C   UNK N   1      27.747  22.972  -6.803  0.00  0.00     0.257 C 
HETATM   15  C   UNK N   1      30.793  21.176  -7.038  0.00  0.00    -0.001 C 
HETATM   16  N   UNK N   1      32.490  21.402  -3.745  0.00  0.00    -0.354 N 
HETATM   17  N   UNK N   1      28.845  22.455  -6.140  0.00  0.00    -0.322 N 
HETATM   18  O   UNK N   1      27.336  22.395  -7.802  0.00  0.00    -0.267 OA
HETATM   19  H   UNK N   1      32.624  21.740  -2.831  0.00  0.00     0.166 HD
ENDROOT
BRANCH  14  20
HETATM   20  C   UNK N   1      26.955  24.163  -6.335  0.00  0.00     0.035 A 
HETATM   21  C   UNK N   1      25.876  24.067  -5.450  0.00  0.00     0.020 A 
HETATM   22  C   UNK N   1      25.093  25.186  -5.144  0.00  0.00     0.046 A 
HETATM   23  C   UNK N   1      25.376  26.418  -5.730  0.00  0.00     0.154 A 
HETATM   24  C   UNK N   1      26.466  26.541  -6.593  0.00  0.00     0.155 A 
HETATM   25  F   UNK N   1      24.588  27.488  -5.465  0.00  0.00    -0.203 F 
HETATM   26  C   UNK N   1      27.252  25.422  -6.889  0.00  0.00     0.062 A 
HETATM   27  F   UNK N   1      26.750  27.735  -7.168  0.00  0.00    -0.203 F 
ENDBRANCH  14  20
BRANCH  10  28
HETATM   28  C   UNK N   1      30.695  23.543  -2.917  0.00  0.00     0.297 C 
HETATM   29  O   UNK N   1      30.592  22.951  -1.855  0.00  0.00    -0.259 OA
BRANCH  28  30
HETATM   30  O   UNK N   1      31.045  24.859  -2.852  0.00  0.00    -0.313 OA
BRANCH  30  31
HETATM   31  C   UNK N   1      30.958  25.809  -3.840  0.00  0.00     0.124 C 
HETATM   32  C   UNK N   1      32.228  25.770  -4.664  0.00  0.00     0.040 C 
HETATM   33  C   UNK N   1      30.811  27.195  -3.239  0.00  0.00     0.040 C 
ENDBRANCH  30  31
ENDBRANCH  28  30
ENDBRANCH  10  28
TORSDOF 4
ENDMDL
MODEL 4
REMARK VINA RESULT:      -7.6      4.876      8.752
REMARK  4 active torsions:
REMARK  status: ('A' for Active; 'I' for Inactive)
REMARK    1  A    between atoms: O_32  and  C_14 
REMARK    2  A    between atoms: C_23  and  C_15 
REMARK    3  A    between atoms: C_24  and  C_17 
REMARK       I    between atoms: N_29  and  C_23 
REMARK    4  A    between atoms: O_32  and  C_24 
ROOT
HETATM    1  C   UNK N   1      37.857   9.951  15.028  0.00  0.00     0.021 C 
HETATM    2  C   UNK N   1      35.948   8.844  16.104  0.00  0.00     0.021 C 
HETATM    3  C   UNK N   1      35.318  11.303  19.575  0.00  0.00     0.001 A 
HETATM    4  C   UNK N   1      35.052  12.685  19.686  0.00  0.00     0.002 A 
HETATM    5  C   UNK N   1      35.637  10.738  18.327  0.00  0.00     0.014 A 
HETATM    6  C   UNK N   1      35.106  13.509  18.549  0.00  0.00     0.030 A 
HETATM    7  C   UNK N   1      36.243  12.037  12.787  0.00  0.00     0.114 C 
HETATM    8  C   UNK N   1      35.596   9.892  13.947  0.00  0.00     0.145 C 
HETATM    9  C   UNK N   1      35.680  11.580  17.213  0.00  0.00    -0.000 A 
HETATM   10  C   UNK N   1      36.081  12.943  13.789  0.00  0.00     0.082 C 
HETATM   11  C   UNK N   1      35.425  12.915  17.332  0.00  0.00     0.043 A 
HETATM   12  C   UNK N   1      35.979  11.341  15.877  0.00  0.00    -0.008 A 
HETATM   13  C   UNK N   1      35.879  12.588  15.240  0.00  0.00     0.058 A 
HETATM   14  C   UNK N   1      36.503   9.842  11.709  0.00  0.00     0.257 C 
HETATM   15  C   UNK N   1      36.354  10.031  15.244  0.00  0.00    -0.001 C 
HETATM   16  N   UNK N   1      35.540  13.536  16.152  0.00  0.00    -0.354 N 
HETATM   17  N   UNK N   1      36.182  10.602  12.819  0.00  0.00    -0.322 N 
HETATM   18  O   UNK N   1      36.390   8.625  11.775  0.00  0.00    -0.267 OA
HETATM   19  H   UNK N   1      35.403  14.495  15.978  0.00  0.00     0.166 HD
ENDROOT
BRANCH  14  20
HETATM   20  C   UNK N   1      36.907  10.415  10.377  0.00  0.00     0.035 A 
HETATM   21  C   UNK N   1      38.230  10.732  10.047  0.00  0.00     0.020 A 
HETATM   22  C   UNK N   1      38.537  11.380   8.847  0.00  0.00     0.046 A 
HETATM   23  C   UNK N   1      37.521  11.729   7.959  0.00  0.00     0.154 A 
HETATM   24  C   UNK N   1      36.198  11.395   8.256  0.00  0.00     0.155 A 
HETATM   25  F   UNK N   1      37.820  12.395   6.818  0.00  0.00    -0.203 F 
HETATM   26  C   UNK N   1      35.895  10.739   9.454  0.00  0.00     0.062 A 
HETATM   27  F   UNK N   1      35.202  11.729   7.401  0.00  0.00    -0.203 F 
ENDBRANCH  14  20
BRANCH  10  28
HETATM   28  C   UNK N   1      36.135  14.423  13.440  0.00  0.00     0.297 C 
HETATM   29  O   UNK N   1      36.742  15.178  14.182  0.00  0.00    -0.259 OA
BRANCH  28  30
HETATM   30  O   UNK N   1      35.571  14.980  12.331  0.00  0.00    -0.313 OA
BRANCH  30  31
HETATM   31  C   UNK N   1      36.201  15.606  11.283  0.00  0.00     0.124 C 
HETATM   32  C   UNK N   1      35.231  16.579  10.645  0.00  0.00     0.040 C 
HETATM   33  C   UNK N   1      36.635  14.595  10.238  0.00  0.00     0.040 C 
ENDBRANCH  30  31
ENDBRANCH  28  30
ENDBRANCH  10  28
TORSDOF 4
ENDMDL
MODEL 5
REMARK VINA RESULT:      -7.5     15.287     18.007
REMARK  4 active torsions:
REMARK  status: ('A' for Active; 'I' for Inactive)
REMARK    1  A    between atoms: O_32  and  C_14 
REMARK    2  A    between atoms: C_23  and  C_15 
REMARK    3  A    between atoms: C_24  and  C_17 
REMARK       I    between atoms: N_29  and  C_23 
REMARK    4  A    between atoms: O_32  and  C_24 
ROOT
HETATM    1  C   UNK N   1      26.344  26.817  -3.268  0.00  0.00     0.021 C 
HETATM    2  C   UNK N   1      26.533  29.158  -3.986  0.00  0.00     0.021 C 
HETATM    3  C   UNK N   1      29.819  30.571  -1.599  0.00  0.00     0.001 A 
HETATM    4  C   UNK N   1      31.149  30.108  -1.501  0.00  0.00     0.002 A 
HETATM    5  C   UNK N   1      28.869  29.852  -2.346  0.00  0.00     0.014 A 
HETATM    6  C   UNK N   1      31.535  28.922  -2.148  0.00  0.00     0.030 A 
HETATM    7  C   UNK N   1      28.270  25.228  -5.664  0.00  0.00     0.114 C 
HETATM    8  C   UNK N   1      27.027  27.422  -5.603  0.00  0.00     0.145 C 
HETATM    9  C   UNK N   1      29.281  28.678  -2.982  0.00  0.00    -0.000 A 
HETATM   10  C   UNK N   1      29.378  25.526  -4.932  0.00  0.00     0.082 C 
HETATM   11  C   UNK N   1      30.568  28.238  -2.878  0.00  0.00     0.043 A 
HETATM   12  C   UNK N   1      28.596  27.750  -3.758  0.00  0.00    -0.008 A 
HETATM   13  C   UNK N   1      29.542  26.769  -4.095  0.00  0.00     0.058 A 
HETATM   14  C   UNK N   1      25.997  25.463  -6.571  0.00  0.00     0.257 C 
HETATM   15  C   UNK N   1      27.143  27.773  -4.140  0.00  0.00    -0.001 C 
HETATM   16  N   UNK N   1      30.742  27.089  -3.544  0.00  0.00    -0.354 N 
HETATM   17  N   UNK N   1      27.079  25.997  -5.894  0.00  0.00    -0.322 N 
HETATM   18  O   UNK N   1      25.024  26.175  -6.781  0.00  0.00    -0.267 OA
HETATM   19  H   UNK N   1      31.578  26.577  -3.621  0.00  0.00     0.166 HD
ENDROOT
BRANCH  14  20
HETATM   20  C   UNK N   1      25.960  24.075  -7.152  0.00  0.00     0.035 A 
HETATM   21  C   UNK N   1      26.537  23.742  -8.382  0.00  0.00     0.020 A 
HETATM   22  C   UNK N   1      26.365  22.470  -8.937  0.00  0.00     0.046 A 
HETATM   23  C   UNK N   1      25.603  21.512  -8.270  0.00  0.00     0.154 A 
HETATM   24  C   UNK N   1      25.044  21.816  -7.027  0.00  0.00     0.155 A 
HETATM   25  F   UNK N   1      25.404  20.296  -8.833  0.00  0.00    -0.203 F 
HETATM   26  C   UNK N   1      25.225  23.086  -6.471  0.00  0.00     0.062 A 
HETATM   27  F   UNK N   1      24.301  20.892  -6.370  0.00  0.00    -0.203 F 
ENDBRANCH  14  20
BRANCH  10  28
HETATM   28  C   UNK N   1      30.530  24.532  -4.925  0.00  0.00     0.297 C 
HETATM   29  O   UNK N   1      31.549  24.811  -5.535  0.00  0.00    -0.259 OA
BRANCH  28  30
HETATM   30  O   UNK N   1      30.524  23.343  -4.257  0.00  0.00    -0.313 OA
BRANCH  30  31
HETATM   31  C   UNK N   1      30.849  23.108  -2.944  0.00  0.00     0.124 C 
HETATM   32  C   UNK N   1      31.584  21.786  -2.855  0.00  0.00     0.040 C 
HETATM   33  C   UNK N   1      29.599  23.028  -2.087  0.00  0.00     0.040 C 
ENDBRANCH  30  31
ENDBRANCH  28  30
ENDBRANCH  10  28
TORSDOF 4
ENDMDL
MODEL 6
REMARK VINA RESULT:      -7.5      6.332     10.710
REMARK  4 active torsions:
REMARK  status: ('A' for Active; 'I' for Inactive)
REMARK    1  A    between atoms: O_32  and  C_14 
REMARK    2  A    between atoms: C_23  and  C_15 
REMARK    3  A    between atoms: C_24  and  C_17 
REMARK       I    between atoms: N_29  and  C_23 
REMARK    4  A    between atoms: O_32  and  C_24 
ROOT
HETATM    1  C   UNK N   1      27.826  17.241   8.107  0.00  0.00     0.021 C 
HETATM    2  C   UNK N   1      29.738  18.563   8.898  0.00  0.00     0.021 C 
HETATM    3  C   UNK N   1      32.910  15.658   8.887  0.00  0.00     0.001 A 
HETATM    4  C   UNK N   1      33.421  14.861   7.840  0.00  0.00     0.002 A 
HETATM    5  C   UNK N   1      31.758  16.440   8.687  0.00  0.00     0.014 A 
HETATM    6  C   UNK N   1      32.782  14.840   6.589  0.00  0.00     0.030 A 
HETATM    7  C   UNK N   1      27.912  17.910   4.712  0.00  0.00     0.114 C 
HETATM    8  C   UNK N   1      28.769  19.127   6.749  0.00  0.00     0.145 C 
HETATM    9  C   UNK N   1      31.144  16.404   7.432  0.00  0.00    -0.000 A 
HETATM   10  C   UNK N   1      28.847  16.932   4.571  0.00  0.00     0.082 C 
HETATM   11  C   UNK N   1      31.646  15.627   6.429  0.00  0.00     0.043 A 
HETATM   12  C   UNK N   1      30.007  17.028   6.933  0.00  0.00    -0.008 A 
HETATM   13  C   UNK N   1      29.883  16.582   5.608  0.00  0.00     0.058 A 
HETATM   14  C   UNK N   1      26.627  19.706   5.793  0.00  0.00     0.257 C 
HETATM   15  C   UNK N   1      29.086  17.966   7.660  0.00  0.00    -0.001 C 
HETATM   16  N   UNK N   1      30.898  15.724   5.322  0.00  0.00    -0.354 N 
HETATM   17  N   UNK N   1      27.725  18.864   5.769  0.00  0.00    -0.322 N 
HETATM   18  O   UNK N   1      26.538  20.533   6.692  0.00  0.00    -0.267 OA
HETATM   19  H   UNK N   1      31.054  15.263   4.467  0.00  0.00     0.166 HD
ENDROOT
BRANCH  14  20
HETATM   20  C   UNK N   1      25.559  19.738   4.734  0.00  0.00     0.035 A 
HETATM   21  C   UNK N   1      25.620  20.563   3.606  0.00  0.00     0.020 A 
HETATM   22  C   UNK N   1      24.544  20.649   2.717  0.00  0.00     0.046 A 
HETATM   23  C   UNK N   1      23.383  19.915   2.951  0.00  0.00     0.154 A 
HETATM   24  C   UNK N   1      23.312  19.064   4.055  0.00  0.00     0.155 A 
HETATM   25  F   UNK N   1      22.327  20.036   2.111  0.00  0.00    -0.203 F 
HETATM   26  C   UNK N   1      24.394  18.973   4.937  0.00  0.00     0.062 A 
HETATM   27  F   UNK N   1      22.188  18.346   4.292  0.00  0.00    -0.203 F 
ENDBRANCH  14  20
BRANCH  10  28
HETATM   28  C   UNK N   1      28.840  16.104   3.294  0.00  0.00     0.297 C 
HETATM   29  O   UNK N   1      29.691  16.326   2.448  0.00  0.00    -0.259 OA
BRANCH  28  30
HETATM   30  O   UNK N   1      27.960  15.099   3.025  0.00  0.00    -0.313 OA
BRANCH  30  31
HETATM   31  C   UNK N   1      27.012  15.046   2.033  0.00  0.00     0.124 C 
HETATM   32  C   UNK N   1      25.907  16.028   2.363  0.00  0.00     0.040 C 
HETATM   33  C   UNK N   1      26.413  13.655   1.937  0.00  0.00     0.040 C 
ENDBRANCH  30  31
ENDBRANCH  28  30
ENDBRANCH  10  28
TORSDOF 4
ENDMDL
MODEL 7
REMARK VINA RESULT:      -7.4      8.567     12.170
REMARK  4 active torsions:
REMARK  status: ('A' for Active; 'I' for Inactive)
REMARK    1  A    between atoms: O_32  and  C_14 
REMARK    2  A    between atoms: C_23  and  C_15 
REMARK    3  A    between atoms: C_24  and  C_17 
REMARK       I    between atoms: N_29  and  C_23 
REMARK    4  A    between atoms: O_32  and  C_24 
ROOT
HETATM    1  C   UNK N   1      21.372  18.004   6.595  0.00  0.00     0.021 C 
HETATM    2  C   UNK N   1      20.659  18.035   4.245  0.00  0.00     0.021 C 
HETATM    3  C   UNK N   1      23.533  20.693   2.465  0.00  0.00     0.001 A 
HETATM    4  C   UNK N   1      24.942  20.626   2.421  0.00  0.00     0.002 A 
HETATM    5  C   UNK N   1      22.801  19.775   3.240  0.00  0.00     0.014 A 
HETATM    6  C   UNK N   1      25.627  19.641   3.154  0.00  0.00     0.030 A 
HETATM    7  C   UNK N   1      23.413  15.210   6.637  0.00  0.00     0.114 C 
HETATM    8  C   UNK N   1      21.513  15.957   5.155  0.00  0.00     0.145 C 
HETATM    9  C   UNK N   1      23.507  18.804   3.956  0.00  0.00    -0.000 A 
HETATM   10  C   UNK N   1      24.433  15.983   6.174  0.00  0.00     0.082 C 
HETATM   11  C   UNK N   1      24.869  18.751   3.908  0.00  0.00     0.043 A 
HETATM   12  C   UNK N   1      23.090  17.791   4.811  0.00  0.00    -0.008 A 
HETATM   13  C   UNK N   1      24.264  17.157   5.245  0.00  0.00     0.058 A 
HETATM   14  C   UNK N   1      21.103  14.451   6.999  0.00  0.00     0.257 C 
HETATM   15  C   UNK N   1      21.682  17.456   5.211  0.00  0.00    -0.001 C 
HETATM   16  N   UNK N   1      25.341  17.763   4.679  0.00  0.00    -0.354 N 
HETATM   17  N   UNK N   1      22.012  15.243   6.321  0.00  0.00    -0.322 N 
HETATM   18  O   UNK N   1      19.927  14.483   6.661  0.00  0.00    -0.267 OA
HETATM   19  H   UNK N   1      26.286  17.522   4.810  0.00  0.00     0.166 HD
ENDROOT
BRANCH  14  20
HETATM   20  C   UNK N   1      21.471  13.474   8.083  0.00  0.00     0.035 A 
HETATM   21  C   UNK N   1      21.160  13.672   9.433  0.00  0.00     0.020 A 
HETATM   22  C   UNK N   1      21.634  12.799  10.417  0.00  0.00     0.046 A 
HETATM   23  C   UNK N   1      22.438  11.717  10.064  0.00  0.00     0.154 A 
HETATM   24  C   UNK N   1      22.736  11.485   8.720  0.00  0.00     0.155 A 
HETATM   25  F   UNK N   1      22.931  10.900  11.026  0.00  0.00    -0.203 F 
HETATM   26  C   UNK N   1      22.252  12.355   7.737  0.00  0.00     0.062 A 
HETATM   27  F   UNK N   1      23.516  10.436   8.365  0.00  0.00    -0.203 F 
ENDBRANCH  14  20
BRANCH  10  28
HETATM   28  C   UNK N   1      25.847  15.669   6.642  0.00  0.00     0.297 C 
HETATM   29  O   UNK N   1      25.996  15.014   7.660  0.00  0.00    -0.259 OA
BRANCH  28  30
HETATM   30  O   UNK N   1      26.982  16.047   5.988  0.00  0.00    -0.313 OA
BRANCH  30  31
HETATM   31  C   UNK N   1      28.179  16.446   6.530  0.00  0.00     0.124 C 
HETATM   32  C   UNK N   1      28.047  17.881   6.998  0.00  0.00     0.040 C 
HETATM   33  C   UNK N   1      29.287  16.372   5.496  0.00  0.00     0.040 C 
ENDBRANCH  30  31
ENDBRANCH  28  30
ENDBRANCH  10  28
TORSDOF 4
ENDMDL
MODEL 8
REMARK VINA RESULT:      -7.4      4.226      7.699
REMARK  4 active torsions:
REMARK  status: ('A' for Active; 'I' for Inactive)
REMARK    1  A    between atoms: O_32  and  C_14 
REMARK    2  A    between atoms: C_23  and  C_15 
REMARK    3  A    between atoms: C_24  and  C_17 
REMARK       I    between atoms: N_29  and  C_23 
REMARK    4  A    between atoms: O_32  and  C_24 
ROOT
HETATM    1  C   UNK N   1      32.841  16.354   2.939  0.00  0.00     0.021 C 
HETATM    2  C   UNK N   1      32.799  13.904   2.776  0.00  0.00     0.021 C 
HETATM    3  C   UNK N   1      36.907  12.881   3.537  0.00  0.00     0.001 A 
HETATM    4  C   UNK N   1      37.733  13.162   4.646  0.00  0.00     0.002 A 
HETATM    5  C   UNK N   1      35.624  13.450   3.443  0.00  0.00     0.014 A 
HETATM    6  C   UNK N   1      37.281  14.015   5.667  0.00  0.00     0.030 A 
HETATM    7  C   UNK N   1      31.945  16.818   6.250  0.00  0.00     0.114 C 
HETATM    8  C   UNK N   1      31.582  14.950   4.592  0.00  0.00     0.145 C 
HETATM    9  C   UNK N   1      35.198  14.292   4.474  0.00  0.00    -0.000 A 
HETATM   10  C   UNK N   1      33.244  16.616   6.600  0.00  0.00     0.082 C 
HETATM   11  C   UNK N   1      36.007  14.559   5.540  0.00  0.00     0.043 A 
HETATM   12  C   UNK N   1      34.024  15.011   4.664  0.00  0.00    -0.008 A 
HETATM   13  C   UNK N   1      34.192  15.693   5.879  0.00  0.00     0.058 A 
HETATM   14  C   UNK N   1      29.875  16.624   4.937  0.00  0.00     0.257 C 
HETATM   15  C   UNK N   1      32.831  15.070   3.753  0.00  0.00    -0.001 C 
HETATM   16  N   UNK N   1      35.415  15.401   6.397  0.00  0.00    -0.354 N 
HETATM   17  N   UNK N   1      31.155  16.188   5.228  0.00  0.00    -0.322 N 
HETATM   18  O   UNK N   1      29.227  16.024   4.089  0.00  0.00    -0.267 OA
HETATM   19  H   UNK N   1      35.792  15.742   7.239  0.00  0.00     0.166 HD
ENDROOT
BRANCH  14  20
HETATM   20  C   UNK N   1      29.177  17.747   5.656  0.00  0.00     0.035 A 
HETATM   21  C   UNK N   1      28.950  17.751   7.037  0.00  0.00     0.020 A 
HETATM   22  C   UNK N   1      28.186  18.756   7.638  0.00  0.00     0.046 A 
HETATM   23  C   UNK N   1      27.627  19.770   6.862  0.00  0.00     0.154 A 
HETATM   24  C   UNK N   1      27.866  19.800   5.486  0.00  0.00     0.155 A 
HETATM   25  F   UNK N   1      26.852  20.716   7.443  0.00  0.00    -0.203 F 
HETATM   26  C   UNK N   1      28.638  18.798   4.890  0.00  0.00     0.062 A 
HETATM   27  F   UNK N   1      27.328  20.781   4.723  0.00  0.00    -0.203 F 
ENDBRANCH  14  20
BRANCH  10  28
HETATM   28  C   UNK N   1      33.801  17.392   7.785  0.00  0.00     0.297 C 
HETATM   29  O   UNK N   1      33.419  18.536   7.969  0.00  0.00    -0.259 OA
BRANCH  28  30
HETATM   30  O   UNK N   1      34.690  16.892   8.690  0.00  0.00    -0.313 OA
BRANCH  30  31
HETATM   31  C   UNK N   1      34.424  16.290   9.895  0.00  0.00     0.124 C 
HETATM   32  C   UNK N   1      35.654  16.395  10.773  0.00  0.00     0.040 C 
HETATM   33  C   UNK N   1      34.092  14.822   9.699  0.00  0.00     0.040 C 
ENDBRANCH  30  31
ENDBRANCH  28  30
ENDBRANCH  10  28
TORSDOF 4
ENDMDL
MODEL 9
REMARK VINA RESULT:      -7.2      6.104     10.171
REMARK  4 active torsions:
REMARK  status: ('A' for Active; 'I' for Inactive)
REMARK    1  A    between atoms: O_32  and  C_14 
REMARK    2  A    between atoms: C_23  and  C_15 
REMARK    3  A    between atoms: C_24  and  C_17 
REMARK       I    between atoms: N_29  and  C_23 
REMARK    4  A    between atoms: O_32  and  C_24 
ROOT
HETATM    1  C   UNK N   1      34.271  12.485  15.452  0.00  0.00     0.021 C 
HETATM    2  C   UNK N   1      35.365  13.676  17.301  0.00  0.00     0.021 C 
HETATM    3  C   UNK N   1      35.524  10.650  20.353  0.00  0.00     0.001 A 
HETATM    4  C   UNK N   1      36.111   9.366  20.344  0.00  0.00     0.002 A 
HETATM    5  C   UNK N   1      35.471  11.416  19.175  0.00  0.00     0.014 A 
HETATM    6  C   UNK N   1      36.645   8.841  19.155  0.00  0.00     0.030 A 
HETATM    7  C   UNK N   1      37.014  11.365  13.664  0.00  0.00     0.114 C 
HETATM    8  C   UNK N   1      36.649  13.262  15.287  0.00  0.00     0.145 C 
HETATM    9  C   UNK N   1      36.012  10.870  18.007  0.00  0.00    -0.000 A 
HETATM   10  C   UNK N   1      37.095  10.302  14.508  0.00  0.00     0.082 C 
HETATM   11  C   UNK N   1      36.574   9.627  18.010  0.00  0.00     0.043 A 
HETATM   12  C   UNK N   1      36.094  11.351  16.706  0.00  0.00    -0.008 A 
HETATM   13  C   UNK N   1      36.727  10.338  15.969  0.00  0.00     0.058 A 
HETATM   14  C   UNK N   1      36.513  13.650  12.907  0.00  0.00     0.257 C 
HETATM   15  C   UNK N   1      35.591  12.667  16.185  0.00  0.00    -0.001 C 
HETATM   16  N   UNK N   1      37.010   9.291  16.789  0.00  0.00    -0.354 N 
HETATM   17  N   UNK N   1      36.665  12.733  13.931  0.00  0.00    -0.322 N 
HETATM   18  O   UNK N   1      36.260  14.814  13.191  0.00  0.00    -0.267 OA
HETATM   19  H   UNK N   1      37.452   8.450  16.535  0.00  0.00     0.166 HD
ENDROOT
BRANCH  14  20
HETATM   20  C   UNK N   1      36.720  13.337  11.449  0.00  0.00     0.035 A 
HETATM   21  C   UNK N   1      37.983  13.260  10.853  0.00  0.00     0.020 A 
HETATM   22  C   UNK N   1      38.118  13.092   9.471  0.00  0.00     0.046 A 
HETATM   23  C   UNK N   1      36.986  13.010   8.663  0.00  0.00     0.154 A 
HETATM   24  C   UNK N   1      35.717  13.056   9.242  0.00  0.00     0.155 A 
HETATM   25  F   UNK N   1      37.123  12.892   7.320  0.00  0.00    -0.203 F 
HETATM   26  C   UNK N   1      35.586  13.215  10.625  0.00  0.00     0.062 A 
HETATM   27  F   UNK N   1      34.610  12.977   8.465  0.00  0.00    -0.203 F 
ENDBRANCH  14  20
BRANCH  10  28
HETATM   28  C   UNK N   1      37.563   8.967  13.946  0.00  0.00     0.297 C 
HETATM   29  O   UNK N   1      36.779   8.032  13.928  0.00  0.00    -0.259 OA
BRANCH  28  30
HETATM   30  O   UNK N   1      38.802   8.735  13.427  0.00  0.00    -0.313 OA
BRANCH  30  31
HETATM   31  C   UNK N   1      39.821   7.990  13.969  0.00  0.00     0.124 C 
HETATM   32  C   UNK N   1      40.540   8.832  15.004  0.00  0.00     0.040 C 
HETATM   33  C   UNK N   1      40.816   7.584  12.898  0.00  0.00     0.040 C 
ENDBRANCH  30  31
ENDBRANCH  28  30
ENDBRANCH  10  28
TORSDOF 4
ENDMDL
