MODEL 1
REMARK VINA RESULT:      -7.6      0.000      0.000
REMARK  3 active torsions:
REMARK  status: ('A' for Active; 'I' for Inactive)
REMARK    1  A    between atoms: C_4  and  C_7 
REMARK    2  A    between atoms: C_10  and  C_13 
REMARK    3  A    between atoms: C_16  and  C_19 
ROOT
HETATM    1  C   UNK N   1      35.681  12.310  15.872  0.00  0.00    -0.026 A 
HETATM    2  C   UNK N   1      34.774  11.817  14.929  0.00  0.00     0.013 A 
HETATM    3  C   UNK N   1      34.614  12.448  13.704  0.00  0.00     0.013 A 
HETATM    4  C   UNK N   1      35.355  13.593  13.380  0.00  0.00    -0.026 A 
HETATM    5  C   UNK N   1      36.270  14.098  14.320  0.00  0.00     0.013 A 
HETATM    6  C   UNK N   1      36.432  13.459  15.560  0.00  0.00     0.013 A 
ENDROOT
BRANCH   4   7
HETATM    7  C   UNK N   1      35.148  14.229  12.060  0.00  0.00    -0.026 A 
HETATM    8  C   UNK N   1      34.580  13.474  11.025  0.00  0.00     0.013 A 
HETATM    9  C   UNK N   1      34.366  14.027   9.771  0.00  0.00     0.013 A 
HETATM   10  C   UNK N   1      34.714  15.355   9.509  0.00  0.00    -0.026 A 
HETATM   11  C   UNK N   1      35.286  16.126  10.540  0.00  0.00     0.013 A 
HETATM   12  C   UNK N   1      35.502  15.566  11.809  0.00  0.00     0.013 A 
BRANCH  10  13
HETATM   13  C   UNK N   1      34.474  15.916   8.160  0.00  0.00    -0.026 A 
HETATM   14  C   UNK N   1      33.855  17.173   8.023  0.00  0.00     0.012 A 
HETATM   15  C   UNK N   1      33.620  17.716   6.758  0.00  0.00     0.001 A 
HETATM   16  C   UNK N   1      34.001  17.010   5.616  0.00  0.00     0.000 A 
HETATM   17  C   UNK N   1      34.617  15.761   5.739  0.00  0.00     0.001 A 
HETATM   18  C   UNK N   1      34.853  15.215   7.005  0.00  0.00     0.012 A 
ENDBRANCH  10  13
ENDBRANCH   4   7
BRANCH   1  19
HETATM   19  C   UNK N   1      35.828  11.613  17.170  0.00  0.00    -0.026 A 
HETATM   20  C   UNK N   1      35.339  12.211  18.347  0.00  0.00     0.012 A 
HETATM   21  C   UNK N   1      35.469  11.568  19.579  0.00  0.00     0.001 A 
HETATM   22  C   UNK N   1      36.089  10.320  19.651  0.00  0.00     0.000 A 
HETATM   23  C   UNK N   1      36.578   9.715  18.490  0.00  0.00     0.001 A 
HETATM   24  C   UNK N   1      36.449  10.357  17.254  0.00  0.00     0.012 A 
ENDBRANCH   1  19
TORSDOF 3
ENDMDL
MODEL 2
REMARK VINA RESULT:      -7.6      7.795     12.008
REMARK  3 active torsions:
REMARK  status: ('A' for Active; 'I' for Inactive)
REMARK    1  A    between atoms: C_4  and  C_7 
REMARK    2  A    between atoms: C_10  and  C_13 
REMARK    3  A    between atoms: C_16  and  C_19 
ROOT
HETATM    1  C   UNK N   1      30.827  17.415   7.254  0.00  0.00    -0.026 A 
HETATM    2  C   UNK N   1      29.748  17.875   8.014  0.00  0.00     0.013 A 
HETATM    3  C   UNK N   1      28.533  18.171   7.413  0.00  0.00     0.013 A 
HETATM    4  C   UNK N   1      28.356  18.016   6.031  0.00  0.00    -0.026 A 
HETATM    5  C   UNK N   1      29.433  17.554   5.255  0.00  0.00     0.013 A 
HETATM    6  C   UNK N   1      30.663  17.255   5.864  0.00  0.00     0.013 A 
ENDROOT
BRANCH   4   7
HETATM    7  C   UNK N   1      27.040  18.344   5.437  0.00  0.00    -0.026 A 
HETATM    8  C   UNK N   1      26.135  17.306   5.179  0.00  0.00     0.013 A 
HETATM    9  C   UNK N   1      24.891  17.565   4.623  0.00  0.00     0.013 A 
HETATM   10  C   UNK N   1      24.509  18.872   4.307  0.00  0.00    -0.026 A 
HETATM   11  C   UNK N   1      25.409  19.926   4.562  0.00  0.00     0.013 A 
HETATM   12  C   UNK N   1      26.669  19.664   5.124  0.00  0.00     0.013 A 
BRANCH  10  13
HETATM   13  C   UNK N   1      23.174  19.115   3.715  0.00  0.00    -0.026 A 
HETATM   14  C   UNK N   1      22.934  20.294   2.984  0.00  0.00     0.012 A 
HETATM   15  C   UNK N   1      21.682  20.538   2.419  0.00  0.00     0.001 A 
HETATM   16  C   UNK N   1      20.653  19.609   2.578  0.00  0.00     0.000 A 
HETATM   17  C   UNK N   1      20.878  18.434   3.302  0.00  0.00     0.001 A 
HETATM   18  C   UNK N   1      22.133  18.187   3.869  0.00  0.00     0.012 A 
ENDBRANCH  10  13
ENDBRANCH   4   7
BRANCH   1  19
HETATM   19  C   UNK N   1      32.110  17.109   7.927  0.00  0.00    -0.026 A 
HETATM   20  C   UNK N   1      32.267  15.893   8.619  0.00  0.00     0.012 A 
HETATM   21  C   UNK N   1      33.469  15.589   9.258  0.00  0.00     0.001 A 
HETATM   22  C   UNK N   1      34.530  16.495   9.214  0.00  0.00     0.000 A 
HETATM   23  C   UNK N   1      34.388  17.705   8.530  0.00  0.00     0.001 A 
HETATM   24  C   UNK N   1      33.183  18.013   7.888  0.00  0.00     0.012 A 
ENDBRANCH   1  19
TORSDOF 3
ENDMDL
MODEL 3
REMARK VINA RESULT:      -7.6      7.742     14.078
REMARK  3 active torsions:
REMARK  status: ('A' for Active; 'I' for Inactive)
REMARK    1  A    between atoms: C_4  and  C_7 
REMARK    2  A    between atoms: C_10  and  C_13 
REMARK    3  A    between atoms: C_16  and  C_19 
ROOT
HETATM    1  C   UNK N   1      24.566  18.832   4.340  0.00  0.00    -0.026 A 
HETATM    2  C   UNK N   1      24.912  17.544   4.760  0.00  0.00     0.013 A 
HETATM    3  C   UNK N   1      26.158  17.292   5.315  0.00  0.00     0.013 A 
HETATM    4  C   UNK N   1      27.100  18.319   5.470  0.00  0.00    -0.026 A 
HETATM    5  C   UNK N   1      26.764  19.618   5.051  0.00  0.00     0.013 A 
HETATM    6  C   UNK N   1      25.503  19.873   4.489  0.00  0.00     0.013 A 
ENDROOT
BRANCH   4   7
HETATM    7  C   UNK N   1      28.416  17.999   6.068  0.00  0.00    -0.026 A 
HETATM    8  C   UNK N   1      28.601  18.198   7.443  0.00  0.00     0.013 A 
HETATM    9  C   UNK N   1      29.816  17.912   8.048  0.00  0.00     0.013 A 
HETATM   10  C   UNK N   1      30.887  17.417   7.298  0.00  0.00    -0.026 A 
HETATM   11  C   UNK N   1      30.715  17.213   5.916  0.00  0.00     0.013 A 
HETATM   12  C   UNK N   1      29.485  17.502   5.303  0.00  0.00     0.013 A 
BRANCH  10  13
HETATM   13  C   UNK N   1      32.171  17.123   7.975  0.00  0.00    -0.026 A 
HETATM   14  C   UNK N   1      33.237  18.038   7.886  0.00  0.00     0.012 A 
HETATM   15  C   UNK N   1      34.454  17.775   8.518  0.00  0.00     0.001 A 
HETATM   16  C   UNK N   1      34.621  16.596   9.245  0.00  0.00     0.000 A 
HETATM   17  C   UNK N   1      33.570  15.679   9.341  0.00  0.00     0.001 A 
HETATM   18  C   UNK N   1      32.350  15.940   8.709  0.00  0.00     0.012 A 
ENDBRANCH  10  13
ENDBRANCH   4   7
BRANCH   1  19
HETATM   19  C   UNK N   1      23.228  19.068   3.751  0.00  0.00    -0.026 A 
HETATM   20  C   UNK N   1      22.994  20.222   2.980  0.00  0.00     0.012 A 
HETATM   21  C   UNK N   1      21.739  20.460   2.418  0.00  0.00     0.001 A 
HETATM   22  C   UNK N   1      20.702  19.547   2.618  0.00  0.00     0.000 A 
HETATM   23  C   UNK N   1      20.921  18.397   3.381  0.00  0.00     0.001 A 
HETATM   24  C   UNK N   1      22.178  18.156   3.946  0.00  0.00     0.012 A 
ENDBRANCH   1  19
TORSDOF 3
ENDMDL
MODEL 4
REMARK VINA RESULT:      -7.5      0.358      9.860
REMARK  3 active torsions:
REMARK  status: ('A' for Active; 'I' for Inactive)
REMARK    1  A    between atoms: C_4  and  C_7 
REMARK    2  A    between atoms: C_10  and  C_13 
REMARK    3  A    between atoms: C_16  and  C_19 
ROOT
HETATM    1  C   UNK N   1      34.699  15.034   9.296  0.00  0.00    -0.026 A 
HETATM    2  C   UNK N   1      34.759  15.854  10.427  0.00  0.00     0.013 A 
HETATM    3  C   UNK N   1      34.950  15.309  11.688  0.00  0.00     0.013 A 
HETATM    4  C   UNK N   1      35.088  13.924  11.862  0.00  0.00    -0.026 A 
HETATM    5  C   UNK N   1      35.030  13.089  10.732  0.00  0.00     0.013 A 
HETATM    6  C   UNK N   1      34.837  13.641   9.456  0.00  0.00     0.013 A 
ENDROOT
BRANCH   4   7
HETATM    7  C   UNK N   1      35.291  13.391  13.227  0.00  0.00    -0.026 A 
HETATM    8  C   UNK N   1      34.562  12.263  13.630  0.00  0.00     0.013 A 
HETATM    9  C   UNK N   1      34.718  11.728  14.900  0.00  0.00     0.013 A 
HETATM   10  C   UNK N   1      35.609  12.303  15.811  0.00  0.00    -0.026 A 
HETATM   11  C   UNK N   1      36.347  13.437  15.421  0.00  0.00     0.013 A 
HETATM   12  C   UNK N   1      36.189  13.979  14.135  0.00  0.00     0.013 A 
BRANCH  10  13
HETATM   13  C   UNK N   1      35.752  11.707  17.159  0.00  0.00    -0.026 A 
HETATM   14  C   UNK N   1      35.313  12.419  18.292  0.00  0.00     0.012 A 
HETATM   15  C   UNK N   1      35.440  11.873  19.569  0.00  0.00     0.001 A 
HETATM   16  C   UNK N   1      36.008  10.608  19.732  0.00  0.00     0.000 A 
HETATM   17  C   UNK N   1      36.447   9.890  18.616  0.00  0.00     0.001 A 
HETATM   18  C   UNK N   1      36.321  10.436  17.334  0.00  0.00     0.012 A 
ENDBRANCH  10  13
ENDBRANCH   4   7
BRANCH   1  19
HETATM   19  C   UNK N   1      34.494  15.648   7.965  0.00  0.00    -0.026 A 
HETATM   20  C   UNK N   1      34.014  16.968   7.867  0.00  0.00     0.012 A 
HETATM   21  C   UNK N   1      33.815  17.562   6.620  0.00  0.00     0.001 A 
HETATM   22  C   UNK N   1      34.093  16.845   5.455  0.00  0.00     0.000 A 
HETATM   23  C   UNK N   1      34.570  15.534   5.538  0.00  0.00     0.001 A 
HETATM   24  C   UNK N   1      34.770  14.936   6.787  0.00  0.00     0.012 A 
ENDBRANCH   1  19
TORSDOF 3
ENDMDL
MODEL 5
REMARK VINA RESULT:      -7.4      4.941     11.898
REMARK  3 active torsions:
REMARK  status: ('A' for Active; 'I' for Inactive)
REMARK    1  A    between atoms: C_4  and  C_7 
REMARK    2  A    between atoms: C_10  and  C_13 
REMARK    3  A    between atoms: C_16  and  C_19 
ROOT
HETATM    1  C   UNK N   1      28.212  18.459   5.574  0.00  0.00    -0.026 A 
HETATM    2  C   UNK N   1      29.304  17.866   4.935  0.00  0.00     0.013 A 
HETATM    3  C   UNK N   1      30.359  17.347   5.671  0.00  0.00     0.013 A 
HETATM    4  C   UNK N   1      30.359  17.405   7.071  0.00  0.00    -0.026 A 
HETATM    5  C   UNK N   1      29.266  17.999   7.727  0.00  0.00     0.013 A 
HETATM    6  C   UNK N   1      28.198  18.524   6.981  0.00  0.00     0.013 A 
ENDROOT
BRANCH   4   7
HETATM    7  C   UNK N   1      31.508  16.837   7.811  0.00  0.00    -0.026 A 
HETATM    8  C   UNK N   1      31.510  15.469   8.116  0.00  0.00     0.013 A 
HETATM    9  C   UNK N   1      32.565  14.893   8.807  0.00  0.00     0.013 A 
HETATM   10  C   UNK N   1      33.656  15.665   9.218  0.00  0.00    -0.026 A 
HETATM   11  C   UNK N   1      33.667  17.041   8.918  0.00  0.00     0.013 A 
HETATM   12  C   UNK N   1      32.599  17.625   8.218  0.00  0.00     0.013 A 
BRANCH  10  13
HETATM   13  C   UNK N   1      34.766  15.019   9.954  0.00  0.00    -0.026 A 
HETATM   14  C   UNK N   1      36.007  14.822   9.320  0.00  0.00     0.012 A 
HETATM   15  C   UNK N   1      37.065  14.215   9.999  0.00  0.00     0.001 A 
HETATM   16  C   UNK N   1      36.895  13.797  11.320  0.00  0.00     0.000 A 
HETATM   17  C   UNK N   1      35.667  13.987  11.961  0.00  0.00     0.001 A 
HETATM   18  C   UNK N   1      34.606  14.595  11.282  0.00  0.00     0.012 A 
ENDBRANCH  10  13
ENDBRANCH   4   7
BRANCH   1  19
HETATM   19  C   UNK N   1      27.102  19.003   4.760  0.00  0.00    -0.026 A 
HETATM   20  C   UNK N   1      25.806  18.470   4.894  0.00  0.00     0.012 A 
HETATM   21  C   UNK N   1      24.748  18.971   4.134  0.00  0.00     0.001 A 
HETATM   22  C   UNK N   1      24.971  20.010   3.230  0.00  0.00     0.000 A 
HETATM   23  C   UNK N   1      26.253  20.548   3.087  0.00  0.00     0.001 A 
HETATM   24  C   UNK N   1      27.315  20.048   3.847  0.00  0.00     0.012 A 
ENDBRANCH   1  19
TORSDOF 3
ENDMDL
MODEL 6
REMARK VINA RESULT:      -7.4      2.712     10.850
REMARK  3 active torsions:
REMARK  status: ('A' for Active; 'I' for Inactive)
REMARK    1  A    between atoms: C_4  and  C_7 
REMARK    2  A    between atoms: C_10  and  C_13 
REMARK    3  A    between atoms: C_16  and  C_19 
ROOT
HETATM    1  C   UNK N   1      36.428  12.762  13.718  0.00  0.00    -0.026 A 
HETATM    2  C   UNK N   1      35.355  13.320  14.420  0.00  0.00     0.013 A 
HETATM    3  C   UNK N   1      35.006  12.842  15.674  0.00  0.00     0.013 A 
HETATM    4  C   UNK N   1      35.717  11.791  16.270  0.00  0.00    -0.026 A 
HETATM    5  C   UNK N   1      36.798  11.221  15.574  0.00  0.00     0.013 A 
HETATM    6  C   UNK N   1      37.151  11.705  14.304  0.00  0.00     0.013 A 
ENDROOT
BRANCH   4   7
HETATM    7  C   UNK N   1      35.305  11.317  17.610  0.00  0.00    -0.026 A 
HETATM    8  C   UNK N   1      35.405  12.194  18.699  0.00  0.00     0.013 A 
HETATM    9  C   UNK N   1      35.031  11.795  19.974  0.00  0.00     0.013 A 
HETATM   10  C   UNK N   1      34.544  10.504  20.203  0.00  0.00    -0.026 A 
HETATM   11  C   UNK N   1      34.439   9.613  19.118  0.00  0.00     0.013 A 
HETATM   12  C   UNK N   1      34.817  10.016  17.828  0.00  0.00     0.013 A 
BRANCH  10  13
HETATM   13  C   UNK N   1      34.154  10.110  21.576  0.00  0.00    -0.026 A 
HETATM   14  C   UNK N   1      34.975   9.238  22.316  0.00  0.00     0.012 A 
HETATM   15  C   UNK N   1      34.622   8.856  23.611  0.00  0.00     0.001 A 
HETATM   16  C   UNK N   1      33.444   9.339  24.183  0.00  0.00     0.000 A 
HETATM   17  C   UNK N   1      32.620  10.205  23.458  0.00  0.00     0.001 A 
HETATM   18  C   UNK N   1      32.971  10.590  22.160  0.00  0.00     0.012 A 
ENDBRANCH  10  13
ENDBRANCH   4   7
BRANCH   1  19
HETATM   19  C   UNK N   1      36.775  13.295  12.380  0.00  0.00    -0.026 A 
HETATM   20  C   UNK N   1      36.142  14.459  11.903  0.00  0.00     0.012 A 
HETATM   21  C   UNK N   1      36.457  14.975  10.645  0.00  0.00     0.001 A 
HETATM   22  C   UNK N   1      37.408  14.335   9.848  0.00  0.00     0.000 A 
HETATM   23  C   UNK N   1      38.043  13.179  10.310  0.00  0.00     0.001 A 
HETATM   24  C   UNK N   1      37.729  12.660  11.571  0.00  0.00     0.012 A 
ENDBRANCH   1  19
TORSDOF 3
ENDMDL
MODEL 7
REMARK VINA RESULT:      -7.4      2.715      5.407
REMARK  3 active torsions:
REMARK  status: ('A' for Active; 'I' for Inactive)
REMARK    1  A    between atoms: C_4  and  C_7 
REMARK    2  A    between atoms: C_10  and  C_13 
REMARK    3  A    between atoms: C_16  and  C_19 
ROOT
HETATM    1  C   UNK N   1      34.595  10.538  20.182  0.00  0.00    -0.026 A 
HETATM    2  C   UNK N   1      34.979  11.860  19.933  0.00  0.00     0.013 A 
HETATM    3  C   UNK N   1      35.347  12.261  18.658  0.00  0.00     0.013 A 
HETATM    4  C   UNK N   1      35.344  11.356  17.587  0.00  0.00    -0.026 A 
HETATM    5  C   UNK N   1      34.960  10.024  17.825  0.00  0.00     0.013 A 
HETATM    6  C   UNK N   1      34.588   9.618  19.116  0.00  0.00     0.013 A 
ENDROOT
BRANCH   4   7
HETATM    7  C   UNK N   1      35.746  11.834  16.245  0.00  0.00    -0.026 A 
HETATM    8  C   UNK N   1      35.053  12.910  15.674  0.00  0.00     0.013 A 
HETATM    9  C   UNK N   1      35.393  13.392  14.418  0.00  0.00     0.013 A 
HETATM   10  C   UNK N   1      36.438  12.814  13.692  0.00  0.00    -0.026 A 
HETATM   11  C   UNK N   1      37.143  11.732  14.254  0.00  0.00     0.013 A 
HETATM   12  C   UNK N   1      36.799  11.244  15.524  0.00  0.00     0.013 A 
BRANCH  10  13
HETATM   13  C   UNK N   1      36.776  13.353  12.354  0.00  0.00    -0.026 A 
HETATM   14  C   UNK N   1      37.676  12.657  11.525  0.00  0.00     0.012 A 
HETATM   15  C   UNK N   1      38.006  13.151  10.261  0.00  0.00     0.001 A 
HETATM   16  C   UNK N   1      37.440  14.345   9.811  0.00  0.00     0.000 A 
HETATM   17  C   UNK N   1      36.545  15.045  10.625  0.00  0.00     0.001 A 
HETATM   18  C   UNK N   1      36.214  14.552  11.892  0.00  0.00     0.012 A 
ENDBRANCH  10  13
ENDBRANCH   4   7
BRANCH   1  19
HETATM   19  C   UNK N   1      34.208  10.142  21.555  0.00  0.00    -0.026 A 
HETATM   20  C   UNK N   1      33.017  10.639  22.120  0.00  0.00     0.012 A 
HETATM   21  C   UNK N   1      32.637  10.275  23.412  0.00  0.00     0.001 A 
HETATM   22  C   UNK N   1      33.441   9.411  24.157  0.00  0.00     0.000 A 
HETATM   23  C   UNK N   1      34.625   8.911  23.609  0.00  0.00     0.001 A 
HETATM   24  C   UNK N   1      35.009   9.274  22.313  0.00  0.00     0.012 A 
ENDBRANCH   1  19
TORSDOF 3
ENDMDL
MODEL 8
REMARK VINA RESULT:      -7.4      0.467      1.753
REMARK  3 active torsions:
REMARK  status: ('A' for Active; 'I' for Inactive)
REMARK    1  A    between atoms: C_4  and  C_7 
REMARK    2  A    between atoms: C_10  and  C_13 
REMARK    3  A    between atoms: C_16  and  C_19 
ROOT
HETATM    1  C   UNK N   1      35.502  12.000  15.908  0.00  0.00    -0.026 A 
HETATM    2  C   UNK N   1      36.044  13.239  15.553  0.00  0.00     0.013 A 
HETATM    3  C   UNK N   1      35.856  13.755  14.279  0.00  0.00     0.013 A 
HETATM    4  C   UNK N   1      35.120  13.050  13.316  0.00  0.00    -0.026 A 
HETATM    5  C   UNK N   1      34.571  11.802  13.661  0.00  0.00     0.013 A 
HETATM    6  C   UNK N   1      34.761  11.280  14.950  0.00  0.00     0.013 A 
ENDROOT
BRANCH   4   7
HETATM    7  C   UNK N   1      34.948  13.643  11.971  0.00  0.00    -0.026 A 
HETATM    8  C   UNK N   1      34.983  15.038  11.836  0.00  0.00     0.013 A 
HETATM    9  C   UNK N   1      34.827  15.639  10.596  0.00  0.00     0.013 A 
HETATM   10  C   UNK N   1      34.629  14.866   9.448  0.00  0.00    -0.026 A 
HETATM   11  C   UNK N   1      34.591  13.463   9.570  0.00  0.00     0.013 A 
HETATM   12  C   UNK N   1      34.750  12.854  10.825  0.00  0.00     0.013 A 
BRANCH  10  13
HETATM   13  C   UNK N   1      34.465  15.539   8.140  0.00  0.00    -0.026 A 
HETATM   14  C   UNK N   1      34.774  14.848   6.952  0.00  0.00     0.012 A 
HETATM   15  C   UNK N   1      34.626  15.468   5.710  0.00  0.00     0.001 A 
HETATM   16  C   UNK N   1      34.167  16.784   5.639  0.00  0.00     0.000 A 
HETATM   17  C   UNK N   1      33.857  17.480   6.811  0.00  0.00     0.001 A 
HETATM   18  C   UNK N   1      34.005  16.862   8.056  0.00  0.00     0.012 A 
ENDBRANCH  10  13
ENDBRANCH   4   7
BRANCH   1  19
HETATM   19  C   UNK N   1      35.721  11.477  17.275  0.00  0.00    -0.026 A 
HETATM   20  C   UNK N   1      35.305  12.231  18.389  0.00  0.00     0.012 A 
HETATM   21  C   UNK N   1      35.503  11.753  19.686  0.00  0.00     0.001 A 
HETATM   22  C   UNK N   1      36.121  10.518  19.886  0.00  0.00     0.000 A 
HETATM   23  C   UNK N   1      36.539   9.760  18.788  0.00  0.00     0.001 A 
HETATM   24  C   UNK N   1      36.341  10.236  17.488  0.00  0.00     0.012 A 
ENDBRANCH   1  19
TORSDOF 3
ENDMDL
MODEL 9
REMARK VINA RESULT:      -7.3      8.565     13.102
REMARK  3 active torsions:
REMARK  status: ('A' for Active; 'I' for Inactive)
REMARK    1  A    between atoms: C_4  and  C_7 
REMARK    2  A    between atoms: C_10  and  C_13 
REMARK    3  A    between atoms: C_16  and  C_19 
ROOT
HETATM    1  C   UNK N   1      30.203  17.482   6.278  0.00  0.00    -0.026 A 
HETATM    2  C   UNK N   1      29.858  17.570   4.926  0.00  0.00     0.013 A 
HETATM    3  C   UNK N   1      28.531  17.682   4.540  0.00  0.00     0.013 A 
HETATM    4  C   UNK N   1      27.502  17.710   5.492  0.00  0.00    -0.026 A 
HETATM    5  C   UNK N   1      27.836  17.622   6.855  0.00  0.00     0.013 A 
HETATM    6  C   UNK N   1      29.179  17.509   7.245  0.00  0.00     0.013 A 
ENDROOT
BRANCH   4   7
HETATM    7  C   UNK N   1      26.102  17.830   5.029  0.00  0.00    -0.026 A 
HETATM    8  C   UNK N   1      25.688  19.025   4.424  0.00  0.00     0.013 A 
HETATM    9  C   UNK N   1      24.386  19.185   3.974  0.00  0.00     0.013 A 
HETATM   10  C   UNK N   1      23.452  18.154   4.114  0.00  0.00    -0.026 A 
HETATM   11  C   UNK N   1      23.853  16.948   4.721  0.00  0.00     0.013 A 
HETATM   12  C   UNK N   1      25.172  16.786   5.176  0.00  0.00     0.013 A 
BRANCH  10  13
HETATM   13  C   UNK N   1      22.069  18.356   3.624  0.00  0.00    -0.026 A 
HETATM   14  C   UNK N   1      21.579  19.660   3.425  0.00  0.00     0.012 A 
HETATM   15  C   UNK N   1      20.279  19.869   2.963  0.00  0.00     0.001 A 
HETATM   16  C   UNK N   1      19.452  18.777   2.695  0.00  0.00     0.000 A 
HETATM   17  C   UNK N   1      19.926  17.477   2.888  0.00  0.00     0.001 A 
HETATM   18  C   UNK N   1      21.229  17.265   3.351  0.00  0.00     0.012 A 
ENDBRANCH  10  13
ENDBRANCH   4   7
BRANCH   1  19
HETATM   19  C   UNK N   1      31.629  17.364   6.656  0.00  0.00    -0.026 A 
HETATM   20  C   UNK N   1      32.589  17.030   5.682  0.00  0.00     0.012 A 
HETATM   21  C   UNK N   1      33.937  16.914   6.022  0.00  0.00     0.001 A 
HETATM   22  C   UNK N   1      34.344  17.131   7.339  0.00  0.00     0.000 A 
HETATM   23  C   UNK N   1      33.402  17.463   8.316  0.00  0.00     0.001 A 
HETATM   24  C   UNK N   1      32.050  17.579   7.978  0.00  0.00     0.012 A 
ENDBRANCH   1  19
TORSDOF 3
ENDMDL
