MODEL 1
REMARK VINA RESULT:     -12.9      0.000      0.000
REMARK  4 active torsions:
REMARK  status: ('A' for Active; 'I' for Inactive)
REMARK    1  A    between atoms: C_8  and  C_13 
REMARK    2  A    between atoms: C_19  and  N_15 
REMARK    3  A    between atoms: C_16  and  C_22 
REMARK    4  A    between atoms: C_23  and  N_29 
ROOT
HETATM    1  C   UNK N   1      24.449  12.465  10.522  0.00  0.00     0.000 A 
HETATM    2  C   UNK N   1      24.003  11.801  11.962  0.00  0.00    -0.002 A 
HETATM    3  C   UNK N   1      23.255  11.710  12.300  0.00  0.00    -0.002 A 
HETATM    4  C   UNK N   1      23.151  12.017  11.697  0.00  0.00     0.136 A 
HETATM    5  C   UNK N   1      22.665  12.333  11.157  0.00  0.00    -0.031 A 
HETATM    6  C   UNK N   1      23.976  12.465  10.620  0.00  0.00     0.007 A 
HETATM    7  C   UNK N   1      21.589  12.887  10.253  0.00  0.00     0.146 A 
HETATM    8  C   UNK N   1      21.999  13.234   9.465  0.00  0.00    -0.010 A 
HETATM    9  C   UNK N   1      22.933  13.151   9.441  0.00  0.00     0.011 A 
HETATM   10  C   UNK N   1      23.784  13.499   8.559  0.00  0.00     0.001 A 
HETATM   11  C   UNK N   1      23.362  13.847   7.940  0.00  0.00     0.002 A 
HETATM   12  C   UNK N   1      22.541  13.908   7.985  0.00  0.00     0.024 A 
HETATM   13  C   UNK N   1      22.141  13.622   8.647  0.00  0.00     0.042 A 
HETATM   14 Cl   UNK N   1      21.282  13.795   8.474  0.00  0.00    -0.084 Cl
HETATM   15  N   UNK N   1      21.070  12.831  10.474  0.00  0.00    -0.392 N 
HETATM   16  C   UNK N   1      21.156  12.403  11.325  0.00  0.00     0.083 A 
HETATM   17  C   UNK N   1      20.577  12.321  11.611  0.00  0.00     0.027 A 
HETATM   18  C   UNK N   1      20.109  12.954  10.423  0.00  0.00     0.027 A 
HETATM   19  C   UNK N   1      20.744  12.960  10.279  0.00  0.00     0.083 A 
HETATM   20  C   UNK N   1      21.364  13.200   9.664  0.00  0.00     0.066 A 
HETATM   21  C   UNK N   1      22.706  12.670  10.464  0.00  0.00     0.099 A 
HETATM   22  C   UNK N   1      22.049  12.274  11.403  0.00  0.00     0.066 A 
HETATM   23  C   UNK N   1      22.759  12.780  10.230  0.00  0.00     0.215 A 
HETATM   24  N   UNK N   1      23.267  12.150  11.403  0.00  0.00    -0.376 N 
ATOM     25  HN  UNK N   1      22.636  11.849  12.146  1.00  0.00     0.161 HD
HETATM   26  C   UNK N   1      24.081  12.035  11.471  0.00  0.00     0.086 A 
HETATM   27  C   UNK N   1      24.951  12.590  10.164  0.00  0.00     0.033 A 
HETATM   28  C   UNK N   1      24.640  12.953   9.493  0.00  0.00     0.086 A 
HETATM   29  N   UNK N   1      24.023  12.802   9.925  0.00  0.00    -0.376 N 
ATOM     30  HN  UNK N   1      24.443  12.357  10.742  1.00  0.00     0.161 HD
HETATM   31  O   UNK N   1      22.492  13.207   9.418  0.00  0.00    -0.386 OA
HETATM   32 Cl   UNK N   1      22.503  11.779  12.315  0.00  0.00    -0.116 Cl
HETATM   33  H   UNK N   1      21.582  13.426   9.162  0.00  0.00     0.210 HD
ENDROOT
TORSDOF 4
ENDMDL
MODEL 2
REMARK VINA RESULT:     -12.7      0.936      2.626
REMARK  4 active torsions:
REMARK  status: ('A' for Active; 'I' for Inactive)
REMARK    1  A    between atoms: C_8  and  C_13 
REMARK    2  A    between atoms: C_19  and  N_15 
REMARK    3  A    between atoms: C_16  and  C_22 
REMARK    4  A    between atoms: C_23  and  N_29 
ROOT
HETATM    1  C   UNK N   1      21.356  13.413   9.220  0.00  0.00     0.000 A 
HETATM    2  C   UNK N   1      20.302  12.936  10.391  0.00  0.00    -0.002 A 
HETATM    3  C   UNK N   1      20.440  12.562  11.114  0.00  0.00    -0.002 A 
HETATM    4  C   UNK N   1      21.056  12.643  10.826  0.00  0.00     0.136 A 
HETATM    5  C   UNK N   1      21.843  12.556  10.842  0.00  0.00    -0.031 A 
HETATM    6  C   UNK N   1      21.550  13.200   9.607  0.00  0.00     0.007 A 
HETATM    7  C   UNK N   1      23.318  12.303  11.050  0.00  0.00     0.146 A 
HETATM    8  C   UNK N   1      23.795  12.632  10.293  0.00  0.00    -0.010 A 
HETATM    9  C   UNK N   1      23.257  13.018   9.628  0.00  0.00     0.011 A 
HETATM   10  C   UNK N   1      23.556  13.546   8.508  0.00  0.00     0.001 A 
HETATM   11  C   UNK N   1      24.377  13.501   8.432  0.00  0.00     0.002 A 
HETATM   12  C   UNK N   1      24.829  13.157   9.030  0.00  0.00     0.024 A 
HETATM   13  C   UNK N   1      24.461  12.858   9.705  0.00  0.00     0.042 A 
HETATM   14 Cl   UNK N   1      25.135  12.544  10.199  0.00  0.00    -0.084 Cl
HETATM   15  N   UNK N   1      23.426  12.046  11.544  0.00  0.00    -0.392 N 
HETATM   16  C   UNK N   1      22.594  11.907  11.993  0.00  0.00     0.083 A 
HETATM   17  C   UNK N   1      22.678  11.612  12.567  0.00  0.00     0.027 A 
HETATM   18  C   UNK N   1      24.049  11.666  12.182  0.00  0.00     0.027 A 
HETATM   19  C   UNK N   1      23.800  11.954  11.654  0.00  0.00     0.083 A 
HETATM   20  C   UNK N   1      23.993  12.333  10.854  0.00  0.00     0.066 A 
HETATM   21  C   UNK N   1      22.454  12.715  10.398  0.00  0.00     0.099 A 
HETATM   22  C   UNK N   1      21.986  12.254  11.418  0.00  0.00     0.066 A 
HETATM   23  C   UNK N   1      22.637  12.784  10.222  0.00  0.00     0.215 A 
HETATM   24  N   UNK N   1      21.256  12.750  10.570  0.00  0.00    -0.376 N 
ATOM     25  HN  UNK N   1      20.953  12.341  11.454  1.00  0.00     0.161 HD
HETATM   26  C   UNK N   1      20.706  13.068  10.043  0.00  0.00     0.086 A 
HETATM   27  C   UNK N   1      21.383  13.691   8.656  0.00  0.00     0.033 A 
HETATM   28  C   UNK N   1      22.186  13.703   8.470  0.00  0.00     0.086 A 
HETATM   29  N   UNK N   1      22.159  13.362   9.159  0.00  0.00    -0.376 N 
ATOM     30  HN  UNK N   1      21.158  13.366   9.355  1.00  0.00     0.161 HD
HETATM   31  O   UNK N   1      23.543  12.843   9.921  0.00  0.00    -0.386 OA
HETATM   32 Cl   UNK N   1      20.877  12.252  11.647  0.00  0.00    -0.116 Cl
HETATM   33  H   UNK N   1      24.323  12.525  10.402  0.00  0.00     0.210 HD
ENDROOT
TORSDOF 4
ENDMDL
MODEL 3
REMARK VINA RESULT:     -12.7      0.959      2.431
REMARK  4 active torsions:
REMARK  status: ('A' for Active; 'I' for Inactive)
REMARK    1  A    between atoms: C_8  and  C_13 
REMARK    2  A    between atoms: C_19  and  N_15 
REMARK    3  A    between atoms: C_16  and  C_22 
REMARK    4  A    between atoms: C_23  and  N_29 
ROOT
HETATM    1  C   UNK N   1      22.353  11.972  11.706  0.00  0.00     0.000 A 
HETATM    2  C   UNK N   1      20.726  12.210  11.602  0.00  0.00    -0.002 A 
HETATM    3  C   UNK N   1      20.279  12.602  11.029  0.00  0.00    -0.002 A 
HETATM    4  C   UNK N   1      20.930  12.654  10.825  0.00  0.00     0.136 A 
HETATM    5  C   UNK N   1      21.474  12.906  10.307  0.00  0.00    -0.031 A 
HETATM    6  C   UNK N   1      22.198  12.220  11.322  0.00  0.00     0.007 A 
HETATM    7  C   UNK N   1      22.357  13.465   9.215  0.00  0.00     0.146 A 
HETATM    8  C   UNK N   1      23.264  13.248   9.414  0.00  0.00    -0.010 A 
HETATM    9  C   UNK N   1      23.386  12.760  10.206  0.00  0.00     0.011 A 
HETATM   10  C   UNK N   1      24.440  12.312  10.762  0.00  0.00     0.001 A 
HETATM   11  C   UNK N   1      25.077  12.530  10.284  0.00  0.00     0.002 A 
HETATM   12  C   UNK N   1      24.945  12.959   9.592  0.00  0.00     0.024 A 
HETATM   13  C   UNK N   1      24.177  13.171   9.378  0.00  0.00     0.042 A 
HETATM   14 Cl   UNK N   1      24.280  13.618   8.613  0.00  0.00    -0.084 Cl
HETATM   15  N   UNK N   1      22.061  13.737   8.815  0.00  0.00    -0.392 N 
HETATM   16  C   UNK N   1      21.136  13.695   9.052  0.00  0.00     0.083 A 
HETATM   17  C   UNK N   1      20.763  13.998   8.613  0.00  0.00     0.027 A 
HETATM   18  C   UNK N   1      22.020  14.238   7.986  0.00  0.00     0.027 A 
HETATM   19  C   UNK N   1      22.243  13.906   8.500  0.00  0.00     0.083 A 
HETATM   20  C   UNK N   1      22.981  13.580   8.911  0.00  0.00     0.066 A 
HETATM   21  C   UNK N   1      22.239  12.882  10.209  0.00  0.00     0.099 A 
HETATM   22  C   UNK N   1      21.141  13.229   9.829  0.00  0.00     0.066 A 
HETATM   23  C   UNK N   1      22.501  12.854  10.209  0.00  0.00     0.215 A 
HETATM   24  N   UNK N   1      21.265  12.593  10.867  0.00  0.00    -0.376 N 
ATOM     25  HN  UNK N   1      20.385  12.925  10.471  1.00  0.00     0.161 HD
HETATM   26  C   UNK N   1      21.273  12.168  11.574  0.00  0.00     0.086 A 
HETATM   27  C   UNK N   1      22.796  11.709  12.066  0.00  0.00     0.033 A 
HETATM   28  C   UNK N   1      23.503  11.869  11.672  0.00  0.00     0.086 A 
HETATM   29  N   UNK N   1      22.965  12.192  11.228  0.00  0.00    -0.376 N 
ATOM     30  HN  UNK N   1      22.111  11.976  11.743  1.00  0.00     0.161 HD
HETATM   31  O   UNK N   1      23.366  12.990   9.825  0.00  0.00    -0.386 OA
HETATM   32 Cl   UNK N   1      20.186  12.995  10.390  0.00  0.00    -0.116 Cl
HETATM   33  H   UNK N   1      23.555  13.464   9.000  0.00  0.00     0.210 HD
ENDROOT
TORSDOF 4
ENDMDL
MODEL 4
REMARK VINA RESULT:     -12.7      0.645      2.514
REMARK  4 active torsions:
REMARK  status: ('A' for Active; 'I' for Inactive)
REMARK    1  A    between atoms: C_8  and  C_13 
REMARK    2  A    between atoms: C_19  and  N_15 
REMARK    3  A    between atoms: C_16  and  C_22 
REMARK    4  A    between atoms: C_23  and  N_29 
ROOT
HETATM    1  C   UNK N   1      21.369  12.326  11.341  0.00  0.00     0.000 A 
HETATM    2  C   UNK N   1      22.585  11.732  12.280  0.00  0.00    -0.002 A 
HETATM    3  C   UNK N   1      23.401  11.731  12.158  0.00  0.00    -0.002 A 
HETATM    4  C   UNK N   1      23.133  12.043  11.611  0.00  0.00     0.136 A 
HETATM    5  C   UNK N   1      23.216  12.407  10.913  0.00  0.00    -0.031 A 
HETATM    6  C   UNK N   1      21.817  12.382  11.170  0.00  0.00     0.007 A 
HETATM    7  C   UNK N   1      23.572  13.072   9.604  0.00  0.00     0.146 A 
HETATM    8  C   UNK N   1      22.770  13.362   9.179  0.00  0.00    -0.010 A 
HETATM    9  C   UNK N   1      21.984  13.172   9.655  0.00  0.00     0.011 A 
HETATM   10  C   UNK N   1      20.762  13.411   9.387  0.00  0.00     0.001 A 
HETATM   11  C   UNK N   1      20.745  13.799   8.658  0.00  0.00     0.002 A 
HETATM   12  C   UNK N   1      21.450  13.955   8.258  0.00  0.00     0.024 A 
HETATM   13  C   UNK N   1      22.171  13.723   8.587  0.00  0.00     0.042 A 
HETATM   14 Cl   UNK N   1      22.777  13.992   7.990  0.00  0.00    -0.084 Cl
HETATM   15  N   UNK N   1      24.132  13.078   9.509  0.00  0.00    -0.392 N 
HETATM   16  C   UNK N   1      24.561  12.652  10.249  0.00  0.00     0.083 A 
HETATM   17  C   UNK N   1      25.207  12.639  10.175  0.00  0.00     0.027 A 
HETATM   18  C   UNK N   1      24.894  13.310   8.957  0.00  0.00     0.027 A 
HETATM   19  C   UNK N   1      24.285  13.242   9.177  0.00  0.00     0.083 A 
HETATM   20  C   UNK N   1      23.411  13.403   9.004  0.00  0.00     0.066 A 
HETATM   21  C   UNK N   1      22.774  12.730  10.369  0.00  0.00     0.099 A 
HETATM   22  C   UNK N   1      23.869  12.421  10.787  0.00  0.00     0.066 A 
HETATM   23  C   UNK N   1      22.593  12.831  10.206  0.00  0.00     0.215 A 
HETATM   24  N   UNK N   1      22.864  12.159  11.433  0.00  0.00    -0.376 N 
ATOM     25  HN  UNK N   1      23.823  11.939  11.704  1.00  0.00     0.161 HD
HETATM   26  C   UNK N   1      22.231  11.951  11.920  0.00  0.00     0.086 A 
HETATM   27  C   UNK N   1      20.743  12.390  11.316  0.00  0.00     0.033 A 
HETATM   28  C   UNK N   1      20.604  12.779  10.603  0.00  0.00     0.086 A 
HETATM   29  N   UNK N   1      21.369  12.704  10.629  0.00  0.00    -0.376 N 
ATOM     30  HN  UNK N   1      21.503  12.222  11.518  1.00  0.00     0.161 HD
HETATM   31  O   UNK N   1      22.334  13.278   9.402  0.00  0.00    -0.386 OA
HETATM   32 Cl   UNK N   1      24.032  11.886  11.771  0.00  0.00    -0.116 Cl
HETATM   33  H   UNK N   1      22.935  13.597   8.710  0.00  0.00     0.210 HD
ENDROOT
TORSDOF 4
ENDMDL
MODEL 5
REMARK VINA RESULT:     -12.5      0.980      2.611
REMARK  4 active torsions:
REMARK  status: ('A' for Active; 'I' for Inactive)
REMARK    1  A    between atoms: C_8  and  C_13 
REMARK    2  A    between atoms: C_19  and  N_15 
REMARK    3  A    between atoms: C_16  and  C_22 
REMARK    4  A    between atoms: C_23  and  N_29 
ROOT
HETATM    1  C   UNK N   1      23.783  12.063  11.306  0.00  0.00     0.000 A 
HETATM    2  C   UNK N   1      24.851  12.628  10.187  0.00  0.00    -0.002 A 
HETATM    3  C   UNK N   1      24.722  13.064   9.498  0.00  0.00    -0.002 A 
HETATM    4  C   UNK N   1      24.103  12.964   9.773  0.00  0.00     0.136 A 
HETATM    5  C   UNK N   1      23.317  13.060   9.760  0.00  0.00    -0.031 A 
HETATM    6  C   UNK N   1      23.594  12.310  10.937  0.00  0.00     0.007 A 
HETATM    7  C   UNK N   1      21.847  13.343   9.562  0.00  0.00     0.146 A 
HETATM    8  C   UNK N   1      21.360  12.956  10.285  0.00  0.00    -0.010 A 
HETATM    9  C   UNK N   1      21.889  12.510  10.919  0.00  0.00     0.011 A 
HETATM   10  C   UNK N   1      21.576  11.892  11.988  0.00  0.00     0.001 A 
HETATM   11  C   UNK N   1      20.755  11.938  12.062  0.00  0.00     0.002 A 
HETATM   12  C   UNK N   1      20.311  12.336  11.491  0.00  0.00     0.024 A 
HETATM   13  C   UNK N   1      20.687  12.687  10.847  0.00  0.00     0.042 A 
HETATM   14 Cl   UNK N   1      20.021  13.049  10.377  0.00  0.00    -0.084 Cl
HETATM   15  N   UNK N   1      21.745  13.642   9.091  0.00  0.00    -0.392 N 
HETATM   16  C   UNK N   1      22.582  13.812   8.662  0.00  0.00     0.083 A 
HETATM   17  C   UNK N   1      22.505  14.155   8.115  0.00  0.00     0.027 A 
HETATM   18  C   UNK N   1      21.130  14.082   8.484  0.00  0.00     0.027 A 
HETATM   19  C   UNK N   1      21.372  13.748   8.987  0.00  0.00     0.083 A 
HETATM   20  C   UNK N   1      21.169  13.304   9.750  0.00  0.00     0.066 A 
HETATM   21  C   UNK N   1      22.701  12.869  10.183  0.00  0.00     0.099 A 
HETATM   22  C   UNK N   1      23.181  13.410   9.210  0.00  0.00     0.066 A 
HETATM   23  C   UNK N   1      22.516  12.787  10.352  0.00  0.00     0.215 A 
HETATM   24  N   UNK N   1      23.900  12.837  10.018  0.00  0.00    -0.376 N 
ATOM     25  HN  UNK N   1      24.214  13.318   9.175  1.00  0.00     0.161 HD
HETATM   26  C   UNK N   1      24.443  12.470  10.520  0.00  0.00     0.086 A 
HETATM   27  C   UNK N   1      23.748  11.739  11.844  0.00  0.00     0.033 A 
HETATM   28  C   UNK N   1      22.944  11.719  12.022  0.00  0.00     0.086 A 
HETATM   29  N   UNK N   1      22.980  12.116  11.365  0.00  0.00    -0.376 N 
ATOM     30  HN  UNK N   1      23.983  12.120  11.177  1.00  0.00     0.161 HD
HETATM   31  O   UNK N   1      21.607  12.712  10.640  0.00  0.00    -0.386 OA
HETATM   32 Cl   UNK N   1      24.292  13.422   8.990  0.00  0.00    -0.116 Cl
HETATM   33  H   UNK N   1      20.834  13.077  10.182  0.00  0.00     0.210 HD
ENDROOT
TORSDOF 4
ENDMDL
MODEL 6
REMARK VINA RESULT:     -12.4      0.827      3.659
REMARK  4 active torsions:
REMARK  status: ('A' for Active; 'I' for Inactive)
REMARK    1  A    between atoms: C_8  and  C_13 
REMARK    2  A    between atoms: C_19  and  N_15 
REMARK    3  A    between atoms: C_16  and  C_22 
REMARK    4  A    between atoms: C_23  and  N_29 
ROOT
HETATM    1  C   UNK N   1      20.884  12.809  10.444  0.00  0.00     0.000 A 
HETATM    2  C   UNK N   1      20.826  13.504   8.952  0.00  0.00    -0.002 A 
HETATM    3  C   UNK N   1      21.435  13.704   8.432  0.00  0.00    -0.002 A 
HETATM    4  C   UNK N   1      21.741  13.430   8.979  0.00  0.00     0.136 A 
HETATM    5  C   UNK N   1      22.395  13.207   9.366  0.00  0.00    -0.031 A 
HETATM    6  C   UNK N   1      21.308  12.882  10.226  0.00  0.00     0.007 A 
HETATM    7  C   UNK N   1      23.744  12.848   9.945  0.00  0.00     0.146 A 
HETATM    8  C   UNK N   1      23.615  12.458  10.805  0.00  0.00    -0.010 A 
HETATM    9  C   UNK N   1      22.718  12.393  11.075  0.00  0.00     0.011 A 
HETATM   10  C   UNK N   1      22.194  11.934  12.141  0.00  0.00     0.001 A 
HETATM   11  C   UNK N   1      22.813  11.671  12.621  0.00  0.00     0.002 A 
HETATM   12  C   UNK N   1      23.593  11.738  12.362  0.00  0.00     0.024 A 
HETATM   13  C   UNK N   1      23.755  12.069  11.623  0.00  0.00     0.042 A 
HETATM   14 Cl   UNK N   1      24.645  12.038  11.562  0.00  0.00    -0.084 Cl
HETATM   15  N   UNK N   1      24.171  12.981   9.596  0.00  0.00    -0.392 N 
HETATM   16  C   UNK N   1      23.799  13.371   8.808  0.00  0.00     0.083 A 
HETATM   17  C   UNK N   1      24.262  13.537   8.382  0.00  0.00     0.027 A 
HETATM   18  C   UNK N   1      25.119  13.012   9.392  0.00  0.00     0.027 A 
HETATM   19  C   UNK N   1      24.553  12.909   9.697  0.00  0.00     0.083 A 
HETATM   20  C   UNK N   1      24.161  12.587  10.448  0.00  0.00     0.066 A 
HETATM   21  C   UNK N   1      22.591  12.882  10.039  0.00  0.00     0.099 A 
HETATM   22  C   UNK N   1      22.908  13.356   8.969  0.00  0.00     0.066 A 
HETATM   23  C   UNK N   1      22.619  12.770  10.276  0.00  0.00     0.215 A 
HETATM   24  N   UNK N   1      21.729  13.287   9.290  0.00  0.00    -0.376 N 
ATOM     25  HN  UNK N   1      22.088  13.668   8.415  1.00  0.00     0.161 HD
HETATM   26  C   UNK N   1      20.918  13.271   9.441  0.00  0.00     0.086 A 
HETATM   27  C   UNK N   1      20.519  12.614  10.918  0.00  0.00     0.033 A 
HETATM   28  C   UNK N   1      21.048  12.319  11.477  0.00  0.00     0.086 A 
HETATM   29  N   UNK N   1      21.499  12.556  10.901  0.00  0.00    -0.376 N 
ATOM     30  HN  UNK N   1      20.815  12.912  10.233  1.00  0.00     0.161 HD
HETATM   31  O   UNK N   1      23.153  12.408  10.981  0.00  0.00    -0.386 OA
HETATM   32 Cl   UNK N   1      22.159  13.754   8.218  0.00  0.00    -0.116 Cl
HETATM   33  H   UNK N   1      24.121  12.341  10.985  0.00  0.00     0.210 HD
ENDROOT
TORSDOF 4
ENDMDL
MODEL 7
REMARK VINA RESULT:     -12.3      0.972      2.512
REMARK  4 active torsions:
REMARK  status: ('A' for Active; 'I' for Inactive)
REMARK    1  A    between atoms: C_8  and  C_13 
REMARK    2  A    between atoms: C_19  and  N_15 
REMARK    3  A    between atoms: C_16  and  C_22 
REMARK    4  A    between atoms: C_23  and  N_29 
ROOT
HETATM    1  C   UNK N   1      23.341  13.585   8.636  0.00  0.00     0.000 A 
HETATM    2  C   UNK N   1      24.873  13.174   9.083  0.00  0.00    -0.002 A 
HETATM    3  C   UNK N   1      25.147  12.792   9.761  0.00  0.00    -0.002 A 
HETATM    4  C   UNK N   1      24.467  12.834   9.833  0.00  0.00     0.136 A 
HETATM    5  C   UNK N   1      23.807  12.698  10.248  0.00  0.00    -0.031 A 
HETATM    6  C   UNK N   1      23.387  13.360   9.061  0.00  0.00     0.007 A 
HETATM    7  C   UNK N   1      22.666  12.353  11.177  0.00  0.00     0.146 A 
HETATM    8  C   UNK N   1      21.850  12.652  10.785  0.00  0.00    -0.010 A 
HETATM    9  C   UNK N   1      21.947  13.071   9.951  0.00  0.00     0.011 A 
HETATM   10  C   UNK N   1      21.086  13.579   9.162  0.00  0.00     0.001 A 
HETATM   11  C   UNK N   1      20.346  13.483   9.517  0.00  0.00     0.002 A 
HETATM   12  C   UNK N   1      20.287  13.111  10.251  0.00  0.00     0.024 A 
HETATM   13  C   UNK N   1      20.966  12.835  10.630  0.00  0.00     0.042 A 
HETATM   14 Cl   UNK N   1      20.660  12.480  11.390  0.00  0.00    -0.084 Cl
HETATM   15  N   UNK N   1      22.842  12.090  11.648  0.00  0.00    -0.392 N 
HETATM   16  C   UNK N   1      23.792  12.002  11.600  0.00  0.00     0.083 A 
HETATM   17  C   UNK N   1      24.031  11.703  12.126  0.00  0.00     0.027 A 
HETATM   18  C   UNK N   1      22.658  11.670  12.502  0.00  0.00     0.027 A 
HETATM   19  C   UNK N   1      22.583  11.974  11.931  0.00  0.00     0.083 A 
HETATM   20  C   UNK N   1      21.986  12.340  11.357  0.00  0.00     0.066 A 
HETATM   21  C   UNK N   1      23.047  12.818  10.188  0.00  0.00     0.099 A 
HETATM   22  C   UNK N   1      23.997  12.388  10.806  0.00  0.00     0.066 A 
HETATM   23  C   UNK N   1      22.796  12.876  10.133  0.00  0.00     0.215 A 
HETATM   24  N   UNK N   1      24.158  12.929   9.720  0.00  0.00    -0.376 N 
ATOM     25  HN  UNK N   1      24.895  12.539  10.308  1.00  0.00     0.161 HD
HETATM   26  C   UNK N   1      24.340  13.281   8.997  0.00  0.00     0.086 A 
HETATM   27  C   UNK N   1      23.013  13.861   8.176  0.00  0.00     0.033 A 
HETATM   28  C   UNK N   1      22.230  13.822   8.430  0.00  0.00     0.086 A 
HETATM   29  N   UNK N   1      22.626  13.483   8.995  0.00  0.00    -0.376 N 
ATOM     30  HN  UNK N   1      23.583  13.550   8.649  1.00  0.00     0.161 HD
HETATM   31  O   UNK N   1      21.863  12.878  10.343  0.00  0.00    -0.386 OA
HETATM   32 Cl   UNK N   1      25.064  12.455  10.433  0.00  0.00    -0.116 Cl
HETATM   33  H   UNK N   1      21.460  12.511  11.146  0.00  0.00     0.210 HD
ENDROOT
TORSDOF 4
ENDMDL
MODEL 8
REMARK VINA RESULT:     -12.1     21.382     22.851
REMARK  4 active torsions:
REMARK  status: ('A' for Active; 'I' for Inactive)
REMARK    1  A    between atoms: C_8  and  C_13 
REMARK    2  A    between atoms: C_19  and  N_15 
REMARK    3  A    between atoms: C_16  and  C_22 
REMARK    4  A    between atoms: C_23  and  N_29 
ROOT
HETATM    1  C   UNK N   1      25.380  27.101  -5.216  0.00  0.00     0.000 A 
HETATM    2  C   UNK N   1      25.482  28.199  -3.993  0.00  0.00    -0.002 A 
HETATM    3  C   UNK N   1      25.988  28.844  -3.895  0.00  0.00    -0.002 A 
HETATM    4  C   UNK N   1      26.163  28.559  -4.492  0.00  0.00     0.136 A 
HETATM    5  C   UNK N   1      26.615  28.541  -5.142  0.00  0.00    -0.031 A 
HETATM    6  C   UNK N   1      25.719  27.442  -5.263  0.00  0.00     0.007 A 
HETATM    7  C   UNK N   1      27.568  28.667  -6.308  0.00  0.00     0.146 A 
HETATM    8  C   UNK N   1      27.387  27.966  -6.929  0.00  0.00    -0.010 A 
HETATM    9  C   UNK N   1      26.691  27.390  -6.678  0.00  0.00     0.011 A 
HETATM   10  C   UNK N   1      26.195  26.370  -7.257  0.00  0.00     0.001 A 
HETATM   11  C   UNK N   1      26.611  26.267  -7.963  0.00  0.00     0.002 A 
HETATM   12  C   UNK N   1      27.220  26.787  -8.162  0.00  0.00     0.024 A 
HETATM   13  C   UNK N   1      27.413  27.409  -7.656  0.00  0.00     0.042 A 
HETATM   14 Cl   UNK N   1      28.085  27.826  -8.071  0.00  0.00    -0.084 Cl
HETATM   15  N   UNK N   1      27.921  29.107  -6.252  0.00  0.00    -0.392 N 
HETATM   16  C   UNK N   1      27.719  29.545  -5.427  0.00  0.00     0.083 A 
HETATM   17  C   UNK N   1      28.107  30.059  -5.328  0.00  0.00     0.027 A 
HETATM   18  C   UNK N   1      28.649  29.655  -6.583  0.00  0.00     0.027 A 
HETATM   19  C   UNK N   1      28.197  29.191  -6.531  0.00  0.00     0.083 A 
HETATM   20  C   UNK N   1      27.831  28.463  -6.928  0.00  0.00     0.066 A 
HETATM   21  C   UNK N   1      26.696  28.116  -5.782  0.00  0.00     0.099 A 
HETATM   22  C   UNK N   1      27.037  29.053  -5.092  0.00  0.00     0.066 A 
HETATM   23  C   UNK N   1      26.694  27.950  -5.986  0.00  0.00     0.215 A 
HETATM   24  N   UNK N   1      26.124  28.320  -4.734  0.00  0.00    -0.376 N 
ATOM     25  HN  UNK N   1      26.477  29.128  -4.221  1.00  0.00     0.161 HD
HETATM   26  C   UNK N   1      25.503  27.869  -4.432  0.00  0.00     0.086 A 
HETATM   27  C   UNK N   1      25.061  26.593  -5.405  0.00  0.00     0.033 A 
HETATM   28  C   UNK N   1      25.403  26.392  -6.128  0.00  0.00     0.086 A 
HETATM   29  N   UNK N   1      25.796  27.013  -5.902  0.00  0.00    -0.376 N 
ATOM     30  HN  UNK N   1      25.349  27.231  -5.011  1.00  0.00     0.161 HD
HETATM   31  O   UNK N   1      27.025  27.642  -6.829  0.00  0.00    -0.386 OA
HETATM   32 Cl   UNK N   1      26.550  29.306  -4.101  0.00  0.00    -0.116 Cl
HETATM   33  H   UNK N   1      27.749  28.042  -7.336  0.00  0.00     0.210 HD
ENDROOT
TORSDOF 4
ENDMDL
MODEL 9
REMARK VINA RESULT:     -12.1     13.471     14.622
REMARK  4 active torsions:
REMARK  status: ('A' for Active; 'I' for Inactive)
REMARK    1  A    between atoms: C_8  and  C_13 
REMARK    2  A    between atoms: C_19  and  N_15 
REMARK    3  A    between atoms: C_16  and  C_22 
REMARK    4  A    between atoms: C_23  and  N_29 
ROOT
HETATM    1  C   UNK N   1      34.897  13.023  16.316  0.00  0.00     0.000 A 
HETATM    2  C   UNK N   1      35.096  13.883  17.707  0.00  0.00    -0.002 A 
HETATM    3  C   UNK N   1      35.232  13.625  18.479  0.00  0.00    -0.002 A 
HETATM    4  C   UNK N   1      35.190  13.058  18.099  0.00  0.00     0.136 A 
HETATM    5  C   UNK N   1      35.206  12.269  18.030  0.00  0.00    -0.031 A 
HETATM    6  C   UNK N   1      34.972  12.765  16.717  0.00  0.00     0.007 A 
HETATM    7  C   UNK N   1      35.269  10.761  18.098  0.00  0.00     0.146 A 
HETATM    8  C   UNK N   1      35.137  10.409  17.222  0.00  0.00    -0.010 A 
HETATM    9  C   UNK N   1      35.005  11.056  16.555  0.00  0.00     0.011 A 
HETATM   10  C   UNK N   1      34.803  10.943  15.303  0.00  0.00     0.001 A 
HETATM   11  C   UNK N   1      34.802  10.135  15.130  0.00  0.00     0.002 A 
HETATM   12  C   UNK N   1      34.921   9.585  15.733  0.00  0.00     0.024 A 
HETATM   13  C   UNK N   1      35.040   9.841  16.509  0.00  0.00     0.042 A 
HETATM   14 Cl   UNK N   1      35.142   9.087  16.974  0.00  0.00    -0.084 Cl
HETATM   15  N   UNK N   1      35.362  10.571  18.624  0.00  0.00    -0.392 N 
HETATM   16  C   UNK N   1      35.431  11.328  19.203  0.00  0.00     0.083 A 
HETATM   17  C   UNK N   1      35.539  11.149  19.819  0.00  0.00     0.027 A 
HETATM   18  C   UNK N   1      35.491   9.843  19.251  0.00  0.00     0.027 A 
HETATM   19  C   UNK N   1      35.389  10.179  18.703  0.00  0.00     0.083 A 
HETATM   20  C   UNK N   1      35.244  10.119  17.811  0.00  0.00     0.066 A 
HETATM   21  C   UNK N   1      35.134  11.731  17.481  0.00  0.00     0.099 A 
HETATM   22  C   UNK N   1      35.315  12.030  18.642  0.00  0.00     0.066 A 
HETATM   23  C   UNK N   1      35.104  11.578  17.269  0.00  0.00     0.215 A 
HETATM   24  N   UNK N   1      35.145  12.900  17.798  0.00  0.00    -0.376 N 
ATOM     25  HN  UNK N   1      35.304  13.057  18.794  1.00  0.00     0.161 HD
HETATM   26  C   UNK N   1      35.039  13.537  17.284  0.00  0.00     0.086 A 
HETATM   27  C   UNK N   1      34.794  13.089  15.699  0.00  0.00     0.033 A 
HETATM   28  C   UNK N   1      34.773  12.318  15.410  0.00  0.00     0.086 A 
HETATM   29  N   UNK N   1      34.900  12.231  16.163  0.00  0.00    -0.376 N 
ATOM     30  HN  UNK N   1      34.919  13.199  16.485  1.00  0.00     0.161 HD
HETATM   31  O   UNK N   1      35.064  10.723  16.844  0.00  0.00    -0.386 OA
HETATM   32 Cl   UNK N   1      35.338  13.100  19.013  0.00  0.00    -0.116 Cl
HETATM   33  H   UNK N   1      35.166   9.863  17.282  0.00  0.00     0.210 HD
ENDROOT
TORSDOF 4
ENDMDL
