MODEL 1
REMARK VINA RESULT:      -8.4      0.000      0.000
REMARK  6 active torsions:
REMARK  status: ('A' for Active; 'I' for Inactive)
REMARK    1  A    between atoms: C_2  and  C_3 
REMARK    2  A    between atoms: C_2  and  N_10 
REMARK    3  A    between atoms: N_10  and  C_11 
REMARK    4  A    between atoms: C_13  and  C_27 
REMARK    5  A    between atoms: C_15  and  N_18 
REMARK    6  A    between atoms: N_18  and  C_19 
ROOT
HETATM    1  C   UNK N   1      22.102  15.419   7.154  0.00  0.00     0.103 A 
HETATM    2  C   UNK N   1      21.021  15.793   7.947  0.00  0.00     0.060 A 
HETATM    3  C   UNK N   1      20.453  17.061   7.802  0.00  0.00    -0.016 A 
HETATM    4  C   UNK N   1      20.986  17.949   6.847  0.00  0.00     0.061 A 
HETATM    5  C   UNK N   1      22.079  17.534   6.065  0.00  0.00     0.108 A 
HETATM    6  N   UNK N   1      22.591  16.292   6.248  0.00  0.00    -0.329 N 
ATOM      7  HN  UNK N   1      23.384  16.004   5.674  1.00  0.00     0.169 HD
ENDROOT
BRANCH   1   8
HETATM    8  N   UNK N   1      22.718  14.149   7.257  0.00  0.00    -0.368 N 
HETATM    9  H   UNK N   1      23.652  14.097   6.949  0.00  0.00     0.161 HD
BRANCH   8  10
HETATM   10  C   UNK N   1      22.148  12.916   7.759  0.00  0.00     0.112 C 
HETATM   11  C   UNK N   1      21.295  12.012   6.879  0.00  0.00     0.037 C 
BRANCH  10  12
HETATM   12  C   UNK N   1      22.455  12.596   9.191  0.00  0.00    -0.036 A 
HETATM   13  C   UNK N   1      21.409  12.503  10.121  0.00  0.00     0.012 A 
HETATM   14  C   UNK N   1      21.676  12.206  11.457  0.00  0.00     0.043 A 
HETATM   15  C   UNK N   1      22.993  11.999  11.873  0.00  0.00     0.116 A 
HETATM   16  C   UNK N   1      24.041  12.090  10.952  0.00  0.00     0.043 A 
HETATM   17  F   UNK N   1      23.252  11.711  13.170  0.00  0.00    -0.206 F 
HETATM   18  C   UNK N   1      23.774  12.388   9.612  0.00  0.00     0.012 A 
ENDBRANCH  10  12
ENDBRANCH   8  10
ENDBRANCH   1   8
BRANCH   3  19
HETATM   19  C   UNK N   1      19.309  17.421   8.660  0.00  0.00     0.008 A 
HETATM   20  C   UNK N   1      18.025  16.909   8.545  0.00  0.00     0.120 A 
HETATM   21  N   UNK N   1      17.263  17.473   9.498  0.00  0.00    -0.310 N 
HETATM   22  N   UNK N   1      18.020  18.308  10.193  0.00  0.00    -0.307 N 
ATOM     23  HN  UNK N   1      16.272  17.290   9.658  1.00  0.00     0.186 HD
HETATM   24  C   UNK N   1      19.277  18.309   9.716  0.00  0.00     0.123 A 
HETATM   25  C   UNK N   1      17.531  19.097  11.306  0.00  0.00     0.177 C 
ENDBRANCH   3  19
BRANCH   5  26
HETATM   26  N   UNK N   1      22.650  18.400   5.088  0.00  0.00    -0.327 N 
HETATM   27  H   UNK N   1      23.560  18.743   5.243  0.00  0.00     0.169 HD
BRANCH  26  28
HETATM   28  C   UNK N   1      21.969  18.795   3.894  0.00  0.00     0.122 A 
HETATM   29  C   UNK N   1      20.944  17.999   3.379  0.00  0.00     0.136 A 
HETATM   30  N   UNK N   1      20.301  18.383   2.242  0.00  0.00    -0.371 N 
HETATM   31  C   UNK N   1      20.638  19.531   1.595  0.00  0.00     0.104 A 
ATOM     32  HN  UNK N   1      19.553  17.799   1.869  1.00  0.00     0.164 HD
HETATM   33  C   UNK N   1      21.660  20.328   2.105  0.00  0.00     0.106 A 
HETATM   34  N   UNK N   1      22.301  19.945   3.239  0.00  0.00    -0.350 N 
ATOM     35  HN  UNK N   1      23.048  20.531   3.610  1.00  0.00     0.166 HD
ENDBRANCH  26  28
ENDBRANCH   5  26
TORSDOF 6
ENDMDL
MODEL 2
REMARK VINA RESULT:      -8.1     10.143     13.524
REMARK  6 active torsions:
REMARK  status: ('A' for Active; 'I' for Inactive)
REMARK    1  A    between atoms: C_2  and  C_3 
REMARK    2  A    between atoms: C_2  and  N_10 
REMARK    3  A    between atoms: N_10  and  C_11 
REMARK    4  A    between atoms: C_13  and  C_27 
REMARK    5  A    between atoms: C_15  and  N_18 
REMARK    6  A    between atoms: N_18  and  C_19 
ROOT
HETATM    1  C   UNK N   1      31.285  17.819   8.041  0.00  0.00     0.103 A 
HETATM    2  C   UNK N   1      31.532  17.396   6.739  0.00  0.00     0.060 A 
HETATM    3  C   UNK N   1      32.789  16.893   6.393  0.00  0.00    -0.016 A 
HETATM    4  C   UNK N   1      33.796  16.821   7.376  0.00  0.00     0.061 A 
HETATM    5  C   UNK N   1      33.508  17.258   8.680  0.00  0.00     0.108 A 
HETATM    6  N   UNK N   1      32.271  17.738   8.961  0.00  0.00    -0.329 N 
ATOM      7  HN  UNK N   1      32.075  18.052   9.911  1.00  0.00     0.169 HD
ENDROOT
BRANCH   1   8
HETATM    8  N   UNK N   1      30.033  18.337   8.448  0.00  0.00    -0.368 N 
HETATM    9  H   UNK N   1      30.061  19.038   9.139  0.00  0.00     0.161 HD
BRANCH   8  10
HETATM   10  C   UNK N   1      28.715  17.965   7.978  0.00  0.00     0.112 C 
HETATM   11  C   UNK N   1      27.867  16.931   8.708  0.00  0.00     0.037 C 
BRANCH  10  12
HETATM   12  C   UNK N   1      28.249  18.663   6.737  0.00  0.00    -0.036 A 
HETATM   13  C   UNK N   1      28.285  17.990   5.506  0.00  0.00     0.012 A 
HETATM   14  C   UNK N   1      27.856  18.623   4.341  0.00  0.00     0.043 A 
HETATM   15  C   UNK N   1      27.386  19.937   4.397  0.00  0.00     0.116 A 
HETATM   16  C   UNK N   1      27.346  20.615   5.619  0.00  0.00     0.043 A 
HETATM   17  F   UNK N   1      26.969  20.552   3.266  0.00  0.00    -0.206 F 
HETATM   18  C   UNK N   1      27.777  19.980   6.788  0.00  0.00     0.012 A 
ENDBRANCH  10  12
ENDBRANCH   8  10
ENDBRANCH   1   8
BRANCH   3  19
HETATM   19  C   UNK N   1      33.012  16.454   5.003  0.00  0.00     0.008 A 
HETATM   20  C   UNK N   1      32.567  17.116   3.869  0.00  0.00     0.120 A 
HETATM   21  N   UNK N   1      32.963  16.415   2.792  0.00  0.00    -0.310 N 
HETATM   22  N   UNK N   1      33.630  15.352   3.213  0.00  0.00    -0.307 N 
ATOM     23  HN  UNK N   1      32.780  16.659   1.819  1.00  0.00     0.186 HD
HETATM   24  C   UNK N   1      33.686  15.334   4.556  0.00  0.00     0.123 A 
HETATM   25  C   UNK N   1      34.208  14.364   2.324  0.00  0.00     0.177 C 
ENDBRANCH   3  19
BRANCH   5  26
HETATM   26  N   UNK N   1      34.496  17.204   9.705  0.00  0.00    -0.327 N 
HETATM   27  H   UNK N   1      35.052  18.002   9.860  0.00  0.00     0.169 HD
BRANCH  26  28
HETATM   28  C   UNK N   1      34.721  16.051  10.520  0.00  0.00     0.122 A 
HETATM   29  C   UNK N   1      33.929  14.913  10.353  0.00  0.00     0.136 A 
HETATM   30  N   UNK N   1      34.149  13.819  11.132  0.00  0.00    -0.371 N 
HETATM   31  C   UNK N   1      35.130  13.811  12.074  0.00  0.00     0.104 A 
ATOM     32  HN  UNK N   1      33.568  12.990  11.008  1.00  0.00     0.164 HD
HETATM   33  C   UNK N   1      35.923  14.943  12.245  0.00  0.00     0.106 A 
HETATM   34  N   UNK N   1      35.703  16.034  11.467  0.00  0.00    -0.350 N 
ATOM     35  HN  UNK N   1      36.285  16.862  11.594  1.00  0.00     0.166 HD
ENDBRANCH  26  28
ENDBRANCH   5  26
TORSDOF 6
ENDMDL
MODEL 3
REMARK VINA RESULT:      -7.9      2.684      4.949
REMARK  6 active torsions:
REMARK  status: ('A' for Active; 'I' for Inactive)
REMARK    1  A    between atoms: C_2  and  C_3 
REMARK    2  A    between atoms: C_2  and  N_10 
REMARK    3  A    between atoms: N_10  and  C_11 
REMARK    4  A    between atoms: C_13  and  C_27 
REMARK    5  A    between atoms: C_15  and  N_18 
REMARK    6  A    between atoms: N_18  and  C_19 
ROOT
HETATM    1  C   UNK N   1      22.120  16.097   6.484  0.00  0.00     0.103 A 
HETATM    2  C   UNK N   1      21.405  16.836   5.545  0.00  0.00     0.060 A 
HETATM    3  C   UNK N   1      22.085  17.577   4.575  0.00  0.00    -0.016 A 
HETATM    4  C   UNK N   1      23.494  17.566   4.560  0.00  0.00     0.061 A 
HETATM    5  C   UNK N   1      24.179  16.807   5.525  0.00  0.00     0.108 A 
HETATM    6  N   UNK N   1      23.469  16.106   6.444  0.00  0.00    -0.329 N 
ATOM      7  HN  UNK N   1      23.979  15.560   7.139  1.00  0.00     0.169 HD
ENDROOT
BRANCH   1   8
HETATM    8  N   UNK N   1      21.486  15.329   7.488  0.00  0.00    -0.368 N 
HETATM    9  H   UNK N   1      21.039  15.839   8.203  0.00  0.00     0.161 HD
BRANCH   8  10
HETATM   10  C   UNK N   1      21.410  13.887   7.599  0.00  0.00     0.112 C 
HETATM   11  C   UNK N   1      20.752  13.035   6.522  0.00  0.00     0.037 C 
BRANCH  10  12
HETATM   12  C   UNK N   1      22.019  13.299   8.836  0.00  0.00    -0.036 A 
HETATM   13  C   UNK N   1      23.413  13.176   8.932  0.00  0.00     0.012 A 
HETATM   14  C   UNK N   1      23.997  12.631  10.076  0.00  0.00     0.043 A 
HETATM   15  C   UNK N   1      23.190  12.205  11.132  0.00  0.00     0.116 A 
HETATM   16  C   UNK N   1      21.799  12.324  11.044  0.00  0.00     0.043 A 
HETATM   17  F   UNK N   1      23.756  11.676  12.241  0.00  0.00    -0.206 F 
HETATM   18  C   UNK N   1      21.214  12.871   9.897  0.00  0.00     0.012 A 
ENDBRANCH  10  12
ENDBRANCH   8  10
ENDBRANCH   1   8
BRANCH   3  19
HETATM   19  C   UNK N   1      21.294  18.348   3.597  0.00  0.00     0.008 A 
HETATM   20  C   UNK N   1      20.005  18.041   3.185  0.00  0.00     0.120 A 
HETATM   21  N   UNK N   1      19.621  18.969   2.291  0.00  0.00    -0.310 N 
HETATM   22  N   UNK N   1      20.613  19.831   2.135  0.00  0.00    -0.307 N 
ATOM     23  HN  UNK N   1      18.719  19.003   1.815  1.00  0.00     0.186 HD
HETATM   24  C   UNK N   1      21.656  19.491   2.913  0.00  0.00     0.123 A 
HETATM   25  C   UNK N   1      20.553  20.972   1.243  0.00  0.00     0.177 C 
ENDBRANCH   3  19
BRANCH   5  26
HETATM   26  N   UNK N   1      25.603  16.766   5.548  0.00  0.00    -0.327 N 
HETATM   27  H   UNK N   1      26.042  15.914   5.774  0.00  0.00     0.169 HD
BRANCH  26  28
HETATM   28  C   UNK N   1      26.426  17.899   5.260  0.00  0.00     0.122 A 
HETATM   29  C   UNK N   1      27.243  17.899   4.127  0.00  0.00     0.136 A 
HETATM   30  N   UNK N   1      28.024  18.981   3.860  0.00  0.00    -0.371 N 
HETATM   31  C   UNK N   1      28.025  20.068   4.678  0.00  0.00     0.104 A 
ATOM     32  HN  UNK N   1      28.618  18.977   3.032  1.00  0.00     0.164 HD
HETATM   33  C   UNK N   1      27.213  20.073   5.809  0.00  0.00     0.106 A 
HETATM   34  N   UNK N   1      26.435  18.994   6.075  0.00  0.00    -0.350 N 
ATOM     35  HN  UNK N   1      25.841  19.000   6.904  1.00  0.00     0.166 HD
ENDBRANCH  26  28
ENDBRANCH   5  26
TORSDOF 6
ENDMDL
MODEL 4
REMARK VINA RESULT:      -7.8     13.375     16.496
REMARK  6 active torsions:
REMARK  status: ('A' for Active; 'I' for Inactive)
REMARK    1  A    between atoms: C_2  and  C_3 
REMARK    2  A    between atoms: C_2  and  N_10 
REMARK    3  A    between atoms: N_10  and  C_11 
REMARK    4  A    between atoms: C_13  and  C_27 
REMARK    5  A    between atoms: C_15  and  N_18 
REMARK    6  A    between atoms: N_18  and  C_19 
ROOT
HETATM    1  C   UNK N   1      35.932  14.132  12.741  0.00  0.00     0.103 A 
HETATM    2  C   UNK N   1      36.828  13.408  11.959  0.00  0.00     0.060 A 
HETATM    3  C   UNK N   1      37.168  13.864  10.682  0.00  0.00    -0.016 A 
HETATM    4  C   UNK N   1      36.595  15.059  10.202  0.00  0.00     0.061 A 
HETATM    5  C   UNK N   1      35.694  15.760  11.023  0.00  0.00     0.108 A 
HETATM    6  N   UNK N   1      35.400  15.272  12.253  0.00  0.00    -0.329 N 
ATOM      7  HN  UNK N   1      34.745  15.792  12.838  1.00  0.00     0.169 HD
ENDROOT
BRANCH   1   8
HETATM    8  N   UNK N   1      35.552  13.719  14.040  0.00  0.00    -0.368 N 
HETATM    9  H   UNK N   1      34.721  13.193  14.098  0.00  0.00     0.161 HD
BRANCH   8  10
HETATM   10  C   UNK N   1      36.229  13.971  15.295  0.00  0.00     0.112 C 
HETATM   11  C   UNK N   1      37.228  15.110  15.449  0.00  0.00     0.037 C 
BRANCH  10  12
HETATM   12  C   UNK N   1      35.881  13.042  16.417  0.00  0.00    -0.036 A 
HETATM   13  C   UNK N   1      35.412  13.565  17.632  0.00  0.00     0.012 A 
HETATM   14  C   UNK N   1      35.083  12.715  18.687  0.00  0.00     0.043 A 
HETATM   15  C   UNK N   1      35.222  11.334  18.536  0.00  0.00     0.116 A 
HETATM   16  C   UNK N   1      35.689  10.805  17.329  0.00  0.00     0.043 A 
HETATM   17  F   UNK N   1      34.903  10.510  19.561  0.00  0.00    -0.206 F 
HETATM   18  C   UNK N   1      36.019  11.657  16.270  0.00  0.00     0.012 A 
ENDBRANCH  10  12
ENDBRANCH   8  10
ENDBRANCH   1   8
BRANCH   3  19
HETATM   19  C   UNK N   1      38.120  13.070   9.883  0.00  0.00     0.008 A 
HETATM   20  C   UNK N   1      38.889  13.554   8.835  0.00  0.00     0.120 A 
HETATM   21  N   UNK N   1      39.629  12.538   8.356  0.00  0.00    -0.310 N 
HETATM   22  N   UNK N   1      39.350  11.454   9.062  0.00  0.00    -0.307 N 
ATOM     23  HN  UNK N   1      40.292  12.595   7.583  1.00  0.00     0.186 HD
HETATM   24  C   UNK N   1      38.433  11.732  10.006  0.00  0.00     0.123 A 
HETATM   25  C   UNK N   1      39.964  10.163   8.826  0.00  0.00     0.177 C 
ENDBRANCH   3  19
BRANCH   5  26
HETATM   26  N   UNK N   1      35.091  16.972  10.578  0.00  0.00    -0.327 N 
HETATM   27  H   UNK N   1      35.270  17.796  11.087  0.00  0.00     0.169 HD
BRANCH  26  28
HETATM   28  C   UNK N   1      34.241  17.052   9.431  0.00  0.00     0.122 A 
HETATM   29  C   UNK N   1      34.544  17.943   8.398  0.00  0.00     0.136 A 
HETATM   30  N   UNK N   1      33.730  18.013   7.310  0.00  0.00    -0.371 N 
HETATM   31  C   UNK N   1      32.622  17.231   7.208  0.00  0.00     0.104 A 
ATOM     32  HN  UNK N   1      33.954  18.664   6.558  1.00  0.00     0.164 HD
HETATM   33  C   UNK N   1      32.315  16.341   8.235  0.00  0.00     0.106 A 
HETATM   34  N   UNK N   1      33.128  16.272   9.319  0.00  0.00    -0.350 N 
ATOM     35  HN  UNK N   1      32.901  15.619  10.070  1.00  0.00     0.166 HD
ENDBRANCH  26  28
ENDBRANCH   5  26
TORSDOF 6
ENDMDL
MODEL 5
REMARK VINA RESULT:      -7.8     13.712     16.742
REMARK  6 active torsions:
REMARK  status: ('A' for Active; 'I' for Inactive)
REMARK    1  A    between atoms: C_2  and  C_3 
REMARK    2  A    between atoms: C_2  and  N_10 
REMARK    3  A    between atoms: N_10  and  C_11 
REMARK    4  A    between atoms: C_13  and  C_27 
REMARK    5  A    between atoms: C_15  and  N_18 
REMARK    6  A    between atoms: N_18  and  C_19 
ROOT
HETATM    1  C   UNK N   1      36.027  13.435  12.389  0.00  0.00     0.103 A 
HETATM    2  C   UNK N   1      37.019  12.969  11.531  0.00  0.00     0.060 A 
HETATM    3  C   UNK N   1      37.381  13.718  10.408  0.00  0.00    -0.016 A 
HETATM    4  C   UNK N   1      36.731  14.943  10.158  0.00  0.00     0.061 A 
HETATM    5  C   UNK N   1      35.734  15.379  11.048  0.00  0.00     0.108 A 
HETATM    6  N   UNK N   1      35.422  14.612  12.123  0.00  0.00    -0.329 N 
ATOM      7  HN  UNK N   1      34.697  14.940  12.761  1.00  0.00     0.169 HD
ENDROOT
BRANCH   1   8
HETATM    8  N   UNK N   1      35.620  12.720  13.539  0.00  0.00    -0.368 N 
HETATM    9  H   UNK N   1      34.705  12.355  13.519  0.00  0.00     0.161 HD
BRANCH   8  10
HETATM   10  C   UNK N   1      36.378  12.456  14.745  0.00  0.00     0.112 C 
HETATM   11  C   UNK N   1      37.148  11.155  14.937  0.00  0.00     0.037 C 
BRANCH  10  12
HETATM   12  C   UNK N   1      36.352  13.540  15.778  0.00  0.00    -0.036 A 
HETATM   13  C   UNK N   1      35.508  13.420  16.891  0.00  0.00     0.012 A 
HETATM   14  C   UNK N   1      35.471  14.420  17.862  0.00  0.00     0.043 A 
HETATM   15  C   UNK N   1      36.280  15.550  17.727  0.00  0.00     0.116 A 
HETATM   16  C   UNK N   1      37.125  15.678  16.620  0.00  0.00     0.043 A 
HETATM   17  F   UNK N   1      36.244  16.520  18.669  0.00  0.00    -0.206 F 
HETATM   18  C   UNK N   1      37.162  14.675  15.646  0.00  0.00     0.012 A 
ENDBRANCH  10  12
ENDBRANCH   8  10
ENDBRANCH   1   8
BRANCH   3  19
HETATM   19  C   UNK N   1      38.436  13.192   9.522  0.00  0.00     0.008 A 
HETATM   20  C   UNK N   1      39.081  11.973   9.675  0.00  0.00     0.120 A 
HETATM   21  N   UNK N   1      39.976  11.846   8.679  0.00  0.00    -0.310 N 
HETATM   22  N   UNK N   1      39.909  12.929   7.922  0.00  0.00    -0.307 N 
ATOM     23  HN  UNK N   1      40.598  11.051   8.532  1.00  0.00     0.186 HD
HETATM   24  C   UNK N   1      38.983  13.779   8.399  0.00  0.00     0.123 A 
HETATM   25  C   UNK N   1      40.734  13.140   6.749  0.00  0.00     0.177 C 
ENDBRANCH   3  19
BRANCH   5  26
HETATM   26  N   UNK N   1      35.051  16.611  10.835  0.00  0.00    -0.327 N 
HETATM   27  H   UNK N   1      35.023  17.263  11.573  0.00  0.00     0.169 HD
BRANCH  26  28
HETATM   28  C   UNK N   1      34.404  16.949   9.605  0.00  0.00     0.122 A 
HETATM   29  C   UNK N   1      33.381  16.137   9.109  0.00  0.00     0.136 A 
HETATM   30  N   UNK N   1      32.770  16.465   7.938  0.00  0.00    -0.371 N 
HETATM   31  C   UNK N   1      33.137  17.572   7.238  0.00  0.00     0.104 A 
ATOM     32  HN  UNK N   1      32.024  15.870   7.578  1.00  0.00     0.164 HD
HETATM   33  C   UNK N   1      34.156  18.385   7.729  0.00  0.00     0.106 A 
HETATM   34  N   UNK N   1      34.765  18.057   8.897  0.00  0.00    -0.350 N 
ATOM     35  HN  UNK N   1      35.511  18.654   9.254  1.00  0.00     0.166 HD
ENDBRANCH  26  28
ENDBRANCH   5  26
TORSDOF 6
ENDMDL
MODEL 6
REMARK VINA RESULT:      -7.6      3.576      5.959
REMARK  6 active torsions:
REMARK  status: ('A' for Active; 'I' for Inactive)
REMARK    1  A    between atoms: C_2  and  C_3 
REMARK    2  A    between atoms: C_2  and  N_10 
REMARK    3  A    between atoms: N_10  and  C_11 
REMARK    4  A    between atoms: C_13  and  C_27 
REMARK    5  A    between atoms: C_15  and  N_18 
REMARK    6  A    between atoms: N_18  and  C_19 
ROOT
HETATM    1  C   UNK N   1      23.714  15.335   6.649  0.00  0.00     0.103 A 
HETATM    2  C   UNK N   1      23.057  16.259   5.842  0.00  0.00     0.060 A 
HETATM    3  C   UNK N   1      23.793  17.168   5.077  0.00  0.00    -0.016 A 
HETATM    4  C   UNK N   1      25.201  17.135   5.134  0.00  0.00     0.061 A 
HETATM    5  C   UNK N   1      25.827  16.187   5.962  0.00  0.00     0.108 A 
HETATM    6  N   UNK N   1      25.064  15.329   6.683  0.00  0.00    -0.329 N 
ATOM      7  HN  UNK N   1      25.531  14.646   7.280  1.00  0.00     0.169 HD
ENDROOT
BRANCH   1   8
HETATM    8  N   UNK N   1      23.022  14.393   7.445  0.00  0.00    -0.368 N 
HETATM    9  H   UNK N   1      22.170  14.700   7.833  0.00  0.00     0.161 HD
BRANCH   8  10
HETATM   10  C   UNK N   1      23.406  13.032   7.760  0.00  0.00     0.112 C 
HETATM   11  C   UNK N   1      23.849  12.055   6.679  0.00  0.00     0.037 C 
BRANCH  10  12
HETATM   12  C   UNK N   1      23.337  12.659   9.210  0.00  0.00    -0.036 A 
HETATM   13  C   UNK N   1      22.089  12.537   9.838  0.00  0.00     0.012 A 
HETATM   14  C   UNK N   1      22.006  12.191  11.185  0.00  0.00     0.043 A 
HETATM   15  C   UNK N   1      23.173  11.963  11.917  0.00  0.00     0.116 A 
HETATM   16  C   UNK N   1      24.422  12.082  11.299  0.00  0.00     0.043 A 
HETATM   17  F   UNK N   1      23.093  11.626  13.225  0.00  0.00    -0.206 F 
HETATM   18  C   UNK N   1      24.505  12.430   9.947  0.00  0.00     0.012 A 
ENDBRANCH  10  12
ENDBRANCH   8  10
ENDBRANCH   1   8
BRANCH   3  19
HETATM   19  C   UNK N   1      23.061  18.131   4.234  0.00  0.00     0.008 A 
HETATM   20  C   UNK N   1      23.572  19.327   3.751  0.00  0.00     0.120 A 
HETATM   21  N   UNK N   1      22.612  19.929   3.025  0.00  0.00    -0.310 N 
HETATM   22  N   UNK N   1      21.537  19.157   3.040  0.00  0.00    -0.307 N 
ATOM     23  HN  UNK N   1      22.699  20.825   2.545  1.00  0.00     0.186 HD
HETATM   24  C   UNK N   1      21.765  18.049   3.766  0.00  0.00     0.123 A 
HETATM   25  C   UNK N   1      20.301  19.489   2.359  0.00  0.00     0.177 C 
ENDBRANCH   3  19
BRANCH   5  26
HETATM   26  N   UNK N   1      27.247  16.119   6.051  0.00  0.00    -0.327 N 
HETATM   27  H   UNK N   1      27.731  15.575   5.387  0.00  0.00     0.169 HD
BRANCH  26  28
HETATM   28  C   UNK N   1      28.006  16.799   7.053  0.00  0.00     0.122 A 
HETATM   29  C   UNK N   1      29.371  17.025   6.862  0.00  0.00     0.136 A 
HETATM   30  N   UNK N   1      30.087  17.674   7.822  0.00  0.00    -0.371 N 
HETATM   31  C   UNK N   1      29.497  18.108   8.968  0.00  0.00     0.104 A 
ATOM     32  HN  UNK N   1      31.083  17.837   7.678  1.00  0.00     0.164 HD
HETATM   33  C   UNK N   1      28.136  17.885   9.163  0.00  0.00     0.106 A 
HETATM   34  N   UNK N   1      27.423  17.238   8.206  0.00  0.00    -0.350 N 
ATOM     35  HN  UNK N   1      26.427  17.076   8.352  1.00  0.00     0.166 HD
ENDBRANCH  26  28
ENDBRANCH   5  26
TORSDOF 6
ENDMDL
MODEL 7
REMARK VINA RESULT:      -7.5     15.551     16.969
REMARK  6 active torsions:
REMARK  status: ('A' for Active; 'I' for Inactive)
REMARK    1  A    between atoms: C_2  and  C_3 
REMARK    2  A    between atoms: C_2  and  N_10 
REMARK    3  A    between atoms: N_10  and  C_11 
REMARK    4  A    between atoms: C_13  and  C_27 
REMARK    5  A    between atoms: C_15  and  N_18 
REMARK    6  A    between atoms: N_18  and  C_19 
ROOT
HETATM    1  C   UNK N   1      28.396  23.995  -4.872  0.00  0.00     0.103 A 
HETATM    2  C   UNK N   1      28.217  25.269  -4.339  0.00  0.00     0.060 A 
HETATM    3  C   UNK N   1      27.013  25.948  -4.539  0.00  0.00    -0.016 A 
HETATM    4  C   UNK N   1      25.989  25.330  -5.285  0.00  0.00     0.061 A 
HETATM    5  C   UNK N   1      26.209  24.043  -5.807  0.00  0.00     0.108 A 
HETATM    6  N   UNK N   1      27.397  23.430  -5.582  0.00  0.00    -0.329 N 
ATOM      7  HN  UNK N   1      27.543  22.496  -5.967  1.00  0.00     0.169 HD
ENDROOT
BRANCH   1   8
HETATM    8  N   UNK N   1      29.593  23.261  -4.701  0.00  0.00    -0.368 N 
HETATM    9  H   UNK N   1      30.179  23.202  -5.491  0.00  0.00     0.161 HD
BRANCH   8  10
HETATM   10  C   UNK N   1      30.066  22.583  -3.512  0.00  0.00     0.112 C 
HETATM   11  C   UNK N   1      29.422  22.812  -2.151  0.00  0.00     0.037 C 
BRANCH  10  12
HETATM   12  C   UNK N   1      31.222  21.652  -3.713  0.00  0.00    -0.036 A 
HETATM   13  C   UNK N   1      32.353  21.759  -2.890  0.00  0.00     0.012 A 
HETATM   14  C   UNK N   1      33.437  20.900  -3.063  0.00  0.00     0.043 A 
HETATM   15  C   UNK N   1      33.400  19.926  -4.062  0.00  0.00     0.116 A 
HETATM   16  C   UNK N   1      32.276  19.812  -4.887  0.00  0.00     0.043 A 
HETATM   17  F   UNK N   1      34.452  19.092  -4.230  0.00  0.00    -0.206 F 
HETATM   18  C   UNK N   1      31.188  20.673  -4.714  0.00  0.00     0.012 A 
ENDBRANCH  10  12
ENDBRANCH   8  10
ENDBRANCH   1   8
BRANCH   3  19
HETATM   19  C   UNK N   1      26.861  27.295  -3.959  0.00  0.00     0.008 A 
HETATM   20  C   UNK N   1      25.681  28.024  -3.915  0.00  0.00     0.120 A 
HETATM   21  N   UNK N   1      25.937  29.198  -3.313  0.00  0.00    -0.310 N 
HETATM   22  N   UNK N   1      27.220  29.225  -2.984  0.00  0.00    -0.307 N 
ATOM     23  HN  UNK N   1      25.260  29.941  -3.139  1.00  0.00     0.186 HD
HETATM   24  C   UNK N   1      27.823  28.083  -3.360  0.00  0.00     0.123 A 
HETATM   25  C   UNK N   1      27.854  30.342  -2.315  0.00  0.00     0.177 C 
ENDBRANCH   3  19
BRANCH   5  26
HETATM   26  N   UNK N   1      25.201  23.381  -6.567  0.00  0.00    -0.327 N 
HETATM   27  H   UNK N   1      24.275  23.405  -6.234  0.00  0.00     0.169 HD
BRANCH  26  28
HETATM   28  C   UNK N   1      25.468  22.684  -7.787  0.00  0.00     0.122 A 
HETATM   29  C   UNK N   1      25.178  21.321  -7.889  0.00  0.00     0.136 A 
HETATM   30  N   UNK N   1      25.434  20.665  -9.054  0.00  0.00    -0.371 N 
HETATM   31  C   UNK N   1      25.969  21.312 -10.124  0.00  0.00     0.104 A 
ATOM     32  HN  UNK N   1      25.221  19.670  -9.125  1.00  0.00     0.164 HD
HETATM   33  C   UNK N   1      26.260  22.670 -10.027  0.00  0.00     0.106 A 
HETATM   34  N   UNK N   1      26.004  23.324  -8.865  0.00  0.00    -0.350 N 
ATOM     35  HN  UNK N   1      26.218  24.319  -8.797  1.00  0.00     0.166 HD
ENDBRANCH  26  28
ENDBRANCH   5  26
TORSDOF 6
ENDMDL
MODEL 8
REMARK VINA RESULT:      -7.3      4.186      6.427
REMARK  6 active torsions:
REMARK  status: ('A' for Active; 'I' for Inactive)
REMARK    1  A    between atoms: C_2  and  C_3 
REMARK    2  A    between atoms: C_2  and  N_10 
REMARK    3  A    between atoms: N_10  and  C_11 
REMARK    4  A    between atoms: C_13  and  C_27 
REMARK    5  A    between atoms: C_15  and  N_18 
REMARK    6  A    between atoms: N_18  and  C_19 
ROOT
HETATM    1  C   UNK N   1      24.853  15.691   5.471  0.00  0.00     0.103 A 
HETATM    2  C   UNK N   1      24.225  15.228   6.624  0.00  0.00     0.060 A 
HETATM    3  C   UNK N   1      22.838  15.061   6.645  0.00  0.00    -0.016 A 
HETATM    4  C   UNK N   1      22.089  15.367   5.491  0.00  0.00     0.061 A 
HETATM    5  C   UNK N   1      22.760  15.832   4.347  0.00  0.00     0.108 A 
HETATM    6  N   UNK N   1      24.108  15.975   4.381  0.00  0.00    -0.329 N 
ATOM      7  HN  UNK N   1      24.583  16.314   3.544  1.00  0.00     0.169 HD
ENDROOT
BRANCH   1   8
HETATM    8  N   UNK N   1      26.253  15.879   5.391  0.00  0.00    -0.368 N 
HETATM    9  H   UNK N   1      26.795  15.347   6.018  0.00  0.00     0.161 HD
BRANCH   8  10
HETATM   10  C   UNK N   1      26.990  16.755   4.505  0.00  0.00     0.112 C 
HETATM   11  C   UNK N   1      27.616  16.244   3.214  0.00  0.00     0.037 C 
BRANCH  10  12
HETATM   12  C   UNK N   1      27.092  18.184   4.943  0.00  0.00    -0.036 A 
HETATM   13  C   UNK N   1      26.694  19.209   4.070  0.00  0.00     0.012 A 
HETATM   14  C   UNK N   1      26.782  20.544   4.461  0.00  0.00     0.043 A 
HETATM   15  C   UNK N   1      27.269  20.866   5.730  0.00  0.00     0.116 A 
HETATM   16  C   UNK N   1      27.667  19.851   6.606  0.00  0.00     0.043 A 
HETATM   17  F   UNK N   1      27.354  22.162   6.109  0.00  0.00    -0.206 F 
HETATM   18  C   UNK N   1      27.579  18.512   6.213  0.00  0.00     0.012 A 
ENDBRANCH  10  12
ENDBRANCH   8  10
ENDBRANCH   1   8
BRANCH   3  19
HETATM   19  C   UNK N   1      22.208  14.568   7.884  0.00  0.00     0.008 A 
HETATM   20  C   UNK N   1      21.114  15.142   8.515  0.00  0.00     0.120 A 
HETATM   21  N   UNK N   1      20.833  14.414   9.610  0.00  0.00    -0.310 N 
HETATM   22  N   UNK N   1      21.703  13.420   9.681  0.00  0.00    -0.307 N 
ATOM     23  HN  UNK N   1      20.078  14.597  10.271  1.00  0.00     0.186 HD
HETATM   24  C   UNK N   1      22.563  13.474   8.648  0.00  0.00     0.123 A 
HETATM   25  C   UNK N   1      21.703  12.428  10.737  0.00  0.00     0.177 C 
ENDBRANCH   3  19
BRANCH   5  26
HETATM   26  N   UNK N   1      22.043  16.153   3.158  0.00  0.00    -0.327 N 
HETATM   27  H   UNK N   1      22.127  15.549   2.385  0.00  0.00     0.169 HD
BRANCH  26  28
HETATM   28  C   UNK N   1      21.209  17.307   3.031  0.00  0.00     0.122 A 
HETATM   29  C   UNK N   1      19.997  17.220   2.343  0.00  0.00     0.136 A 
HETATM   30  N   UNK N   1      19.209  18.323   2.225  0.00  0.00    -0.371 N 
HETATM   31  C   UNK N   1      19.579  19.515   2.767  0.00  0.00     0.104 A 
ATOM     32  HN  UNK N   1      18.324  18.256   1.722  1.00  0.00     0.164 HD
HETATM   33  C   UNK N   1      20.787  19.607   3.455  0.00  0.00     0.106 A 
HETATM   34  N   UNK N   1      21.573  18.506   3.571  0.00  0.00    -0.350 N 
ATOM     35  HN  UNK N   1      22.457  18.577   4.075  1.00  0.00     0.166 HD
ENDBRANCH  26  28
ENDBRANCH   5  26
TORSDOF 6
ENDMDL
MODEL 9
REMARK VINA RESULT:      -7.3      3.137      7.411
REMARK  6 active torsions:
REMARK  status: ('A' for Active; 'I' for Inactive)
REMARK    1  A    between atoms: C_2  and  C_3 
REMARK    2  A    between atoms: C_2  and  N_10 
REMARK    3  A    between atoms: N_10  and  C_11 
REMARK    4  A    between atoms: C_13  and  C_27 
REMARK    5  A    between atoms: C_15  and  N_18 
REMARK    6  A    between atoms: N_18  and  C_19 
ROOT
HETATM    1  C   UNK N   1      22.043  16.670   6.604  0.00  0.00     0.103 A 
HETATM    2  C   UNK N   1      20.934  17.232   7.229  0.00  0.00     0.060 A 
HETATM    3  C   UNK N   1      20.201  16.487   8.155  0.00  0.00    -0.016 A 
HETATM    4  C   UNK N   1      20.598  15.166   8.446  0.00  0.00     0.061 A 
HETATM    5  C   UNK N   1      21.724  14.634   7.794  0.00  0.00     0.108 A 
HETATM    6  N   UNK N   1      22.399  15.402   6.903  0.00  0.00    -0.329 N 
ATOM      7  HN  UNK N   1      23.214  15.004   6.437  1.00  0.00     0.169 HD
ENDROOT
BRANCH   1   8
HETATM    8  N   UNK N   1      22.823  17.376   5.658  0.00  0.00    -0.368 N 
HETATM    9  H   UNK N   1      23.095  18.286   5.918  0.00  0.00     0.161 HD
BRANCH   8  10
HETATM   10  C   UNK N   1      23.271  16.931   4.355  0.00  0.00     0.112 C 
HETATM   11  C   UNK N   1      24.748  16.727   4.043  0.00  0.00     0.037 C 
BRANCH  10  12
HETATM   12  C   UNK N   1      22.190  16.689   3.345  0.00  0.00    -0.036 A 
HETATM   13  C   UNK N   1      22.178  15.492   2.614  0.00  0.00     0.012 A 
HETATM   14  C   UNK N   1      21.181  15.250   1.670  0.00  0.00     0.043 A 
HETATM   15  C   UNK N   1      20.186  16.204   1.451  0.00  0.00     0.116 A 
HETATM   16  C   UNK N   1      20.190  17.401   2.176  0.00  0.00     0.043 A 
HETATM   17  F   UNK N   1      19.217  15.969   0.535  0.00  0.00    -0.206 F 
HETATM   18  C   UNK N   1      21.191  17.643   3.122  0.00  0.00     0.012 A 
ENDBRANCH  10  12
ENDBRANCH   8  10
ENDBRANCH   1   8
BRANCH   3  19
HETATM   19  C   UNK N   1      19.032  17.117   8.797  0.00  0.00     0.008 A 
HETATM   20  C   UNK N   1      17.714  16.969   8.390  0.00  0.00     0.120 A 
HETATM   21  N   UNK N   1      16.938  17.692   9.217  0.00  0.00    -0.310 N 
HETATM   22  N   UNK N   1      17.718  18.277  10.112  0.00  0.00    -0.307 N 
ATOM     23  HN  UNK N   1      15.922  17.775   9.163  1.00  0.00     0.186 HD
HETATM   24  C   UNK N   1      19.005  17.954   9.894  0.00  0.00     0.123 A 
HETATM   25  C   UNK N   1      17.223  19.138  11.167  0.00  0.00     0.177 C 
ENDBRANCH   3  19
BRANCH   5  26
HETATM   26  N   UNK N   1      22.161  13.304   8.057  0.00  0.00    -0.327 N 
HETATM   27  H   UNK N   1      22.115  12.645   7.327  0.00  0.00     0.169 HD
BRANCH  26  28
HETATM   28  C   UNK N   1      22.662  12.878   9.327  0.00  0.00     0.122 A 
HETATM   29  C   UNK N   1      24.025  12.989   9.612  0.00  0.00     0.136 A 
HETATM   30  N   UNK N   1      24.495  12.581  10.823  0.00  0.00    -0.371 N 
HETATM   31  C   UNK N   1      23.660  12.066  11.765  0.00  0.00     0.104 A 
ATOM     32  HN  UNK N   1      25.490  12.664  11.027  1.00  0.00     0.164 HD
HETATM   33  C   UNK N   1      22.300  11.953  11.486  0.00  0.00     0.106 A 
HETATM   34  N   UNK N   1      21.833  12.360  10.278  0.00  0.00    -0.350 N 
ATOM     35  HN  UNK N   1      20.836  12.276  10.076  1.00  0.00     0.166 HD
ENDBRANCH  26  28
ENDBRANCH   5  26
TORSDOF 6
ENDMDL
