MODEL 1
REMARK VINA RESULT:      -9.4      0.000      0.000
REMARK  7 active torsions:
REMARK  status: ('A' for Active; 'I' for Inactive)
REMARK    1  A    between atoms: C_4  and  C_9 
REMARK    2  A    between atoms: C_5  and  O_8 
REMARK       I    between atoms: C_9  and  N_11 
REMARK    3  A    between atoms: C_12  and  N_11 
REMARK    4  A    between atoms: C_15  and  N_18 
REMARK       I    between atoms: N_18  and  C_19 
REMARK    5  A    between atoms: C_19  and  C_21 
REMARK    6  A    between atoms: C_22  and  O_29 
REMARK    7  A    between atoms: O_29  and  C_30 
ROOT
HETATM    1  N   UNK N   1      30.168  17.596   6.396  0.00  0.00    -0.352 N 
HETATM    2  C   UNK N   1      28.845  17.778   6.616  0.00  0.00     0.256 C 
HETATM    3  O   UNK N   1      28.268  17.210   7.532  0.00  0.00    -0.267 OA
HETATM    4  H   UNK N   1      30.582  18.128   5.679  0.00  0.00     0.163 HD
ENDROOT
BRANCH   1   5
HETATM    5  C   UNK N   1      31.025  16.690   7.127  0.00  0.00     0.084 C 
HETATM    6  C   UNK N   1      32.188  16.079   6.315  0.00  0.00     0.027 C 
HETATM    7  C   UNK N   1      33.438  16.968   6.281  0.00  0.00     0.027 C 
HETATM    8  C   UNK N   1      33.828  17.464   7.676  0.00  0.00     0.084 C 
HETATM    9  C   UNK N   1      32.648  18.209   8.312  0.00  0.00     0.027 C 
HETATM   10  C   UNK N   1      31.444  17.282   8.460  0.00  0.00     0.027 C 
BRANCH   8  11
HETATM   11  N   UNK N   1      34.365  16.359   8.461  0.00  0.00    -0.352 N 
HETATM   12  C   UNK N   1      35.114  16.425   9.598  0.00  0.00     0.254 C 
HETATM   13  O   UNK N   1      35.477  17.503  10.051  0.00  0.00    -0.268 OA
HETATM   14  H   UNK N   1      34.162  15.454   8.129  0.00  0.00     0.163 HD
BRANCH  12  15
HETATM   15  C   UNK N   1      35.511  15.178  10.284  0.00  0.00     0.065 A 
HETATM   16  C   UNK N   1      36.821  14.701  10.116  0.00  0.00     0.026 A 
HETATM   17  C   UNK N   1      37.239  13.536  10.758  0.00  0.00    -0.061 A 
HETATM   18  C   UNK N   1      38.634  13.056  10.582  0.00  0.00     0.048 C 
HETATM   19  C   UNK N   1      36.352  12.829  11.570  0.00  0.00     0.009 A 
HETATM   20  C   UNK N   1      35.043  13.284  11.739  0.00  0.00     0.038 A 
HETATM   21  C   UNK N   1      34.617  14.453  11.104  0.00  0.00     0.081 A 
BRANCH  21  22
HETATM   22  O   UNK N   1      33.347  14.865  11.282  0.00  0.00    -0.360 OA
HETATM   23  H   UNK N   1      33.038  15.076  12.142  0.00  0.00     0.217 HD
ENDBRANCH  21  22
ENDBRANCH  12  15
ENDBRANCH   8  11
ENDBRANCH   1   5
BRANCH   2  24
HETATM   24  C   UNK N   1      28.145  18.813   5.872  0.00  0.00     0.086 A 
HETATM   25  C   UNK N   1      28.070  18.703   4.485  0.00  0.00     0.164 A 
HETATM   26  N   UNK N   1      27.402  19.646   3.763  0.00  0.00    -0.343 N 
HETATM   27  C   UNK N   1      26.803  20.707   4.377  0.00  0.00     0.132 A 
ATOM     28  HN  UNK N   1      27.349  19.557   2.748  1.00  0.00     0.167 HD
HETATM   29  C   UNK N   1      26.850  20.835   5.771  0.00  0.00     0.132 A 
HETATM   30  C   UNK N   1      27.516  19.872   6.523  0.00  0.00     0.065 A 
HETATM   31  F   UNK N   1      26.259  21.887   6.387  0.00  0.00    -0.205 F 
BRANCH  25  32
HETATM   32  O   UNK N   1      28.602  17.592   3.911  0.00  0.00    -0.293 OA
BRANCH  32  33
HETATM   33  C   UNK N   1      27.993  16.509   3.395  0.00  0.00     0.081 A 
HETATM   34  C   UNK N   1      28.767  15.623   2.638  0.00  0.00     0.082 A 
HETATM   35  C   UNK N   1      28.181  14.512   2.034  0.00  0.00     0.157 A 
HETATM   36  C   UNK N   1      26.807  14.289   2.172  0.00  0.00     0.154 A 
HETATM   37  F   UNK N   1      28.945  13.659   1.308  0.00  0.00    -0.203 F 
HETATM   38  C   UNK N   1      26.028  15.171   2.931  0.00  0.00     0.048 A 
HETATM   39  F   UNK N   1      26.228  13.223   1.572  0.00  0.00    -0.203 F 
HETATM   40  C   UNK N   1      26.619  16.279   3.545  0.00  0.00     0.040 A 
ENDBRANCH  32  33
ENDBRANCH  25  32
ENDBRANCH   2  24
TORSDOF 7
ENDMDL
MODEL 2
REMARK VINA RESULT:      -9.1      3.667      6.165
REMARK  7 active torsions:
REMARK  status: ('A' for Active; 'I' for Inactive)
REMARK    1  A    between atoms: C_4  and  C_9 
REMARK    2  A    between atoms: C_5  and  O_8 
REMARK       I    between atoms: C_9  and  N_11 
REMARK    3  A    between atoms: C_12  and  N_11 
REMARK    4  A    between atoms: C_15  and  N_18 
REMARK       I    between atoms: N_18  and  C_19 
REMARK    5  A    between atoms: C_19  and  C_21 
REMARK    6  A    between atoms: C_22  and  O_29 
REMARK    7  A    between atoms: O_29  and  C_30 
ROOT
HETATM    1  N   UNK N   1      33.994  14.783   7.586  0.00  0.00    -0.352 N 
HETATM    2  C   UNK N   1      32.974  14.608   6.713  0.00  0.00     0.256 C 
HETATM    3  O   UNK N   1      32.000  13.929   7.002  0.00  0.00    -0.267 OA
HETATM    4  H   UNK N   1      34.721  15.389   7.313  0.00  0.00     0.163 HD
ENDROOT
BRANCH   1   5
HETATM    5  C   UNK N   1      34.106  14.159   8.885  0.00  0.00     0.084 C 
HETATM    6  C   UNK N   1      35.207  13.083   9.009  0.00  0.00     0.027 C 
HETATM    7  C   UNK N   1      36.586  13.661   9.353  0.00  0.00     0.027 C 
HETATM    8  C   UNK N   1      36.521  14.641  10.526  0.00  0.00     0.084 C 
HETATM    9  C   UNK N   1      35.524  15.764  10.212  0.00  0.00     0.027 C 
HETATM   10  C   UNK N   1      34.124  15.193   9.994  0.00  0.00     0.027 C 
BRANCH   8  11
HETATM   11  N   UNK N   1      36.271  13.914  11.766  0.00  0.00    -0.352 N 
HETATM   12  C   UNK N   1      36.200  14.415  13.031  0.00  0.00     0.254 C 
HETATM   13  O   UNK N   1      36.420  15.598  13.254  0.00  0.00    -0.268 OA
HETATM   14  H   UNK N   1      36.138  12.942  11.677  0.00  0.00     0.163 HD
BRANCH  12  15
HETATM   15  C   UNK N   1      35.873  13.513  14.156  0.00  0.00     0.065 A 
HETATM   16  C   UNK N   1      34.871  12.547  13.977  0.00  0.00     0.026 A 
HETATM   17  C   UNK N   1      34.541  11.668  15.008  0.00  0.00    -0.061 A 
HETATM   18  C   UNK N   1      33.490  10.640  14.796  0.00  0.00     0.048 C 
HETATM   19  C   UNK N   1      35.204  11.749  16.233  0.00  0.00     0.009 A 
HETATM   20  C   UNK N   1      36.196  12.711  16.430  0.00  0.00     0.038 A 
HETATM   21  C   UNK N   1      36.535  13.592  15.401  0.00  0.00     0.081 A 
BRANCH  21  22
HETATM   22  O   UNK N   1      37.493  14.513  15.622  0.00  0.00    -0.360 OA
HETATM   23  H   UNK N   1      37.449  15.348  15.199  0.00  0.00     0.217 HD
ENDBRANCH  21  22
ENDBRANCH  12  15
ENDBRANCH   8  11
ENDBRANCH   1   5
BRANCH   2  24
HETATM   24  C   UNK N   1      32.950  15.398   5.493  0.00  0.00     0.086 A 
HETATM   25  C   UNK N   1      32.542  16.729   5.568  0.00  0.00     0.164 A 
HETATM   26  N   UNK N   1      32.531  17.501   4.445  0.00  0.00    -0.343 N 
HETATM   27  C   UNK N   1      32.910  16.991   3.238  0.00  0.00     0.132 A 
ATOM     28  HN  UNK N   1      32.235  18.475   4.508  1.00  0.00     0.167 HD
HETATM   29  C   UNK N   1      33.339  15.662   3.136  0.00  0.00     0.132 A 
HETATM   30  C   UNK N   1      33.370  14.865   4.277  0.00  0.00     0.065 A 
HETATM   31  F   UNK N   1      33.715  15.149   1.940  0.00  0.00    -0.205 F 
BRANCH  25  32
HETATM   32  O   UNK N   1      32.253  17.232   6.797  0.00  0.00    -0.293 OA
BRANCH  32  33
HETATM   33  C   UNK N   1      31.061  17.458   7.380  0.00  0.00     0.081 A 
HETATM   34  C   UNK N   1      31.050  18.152   8.594  0.00  0.00     0.082 A 
HETATM   35  C   UNK N   1      29.852  18.370   9.273  0.00  0.00     0.157 A 
HETATM   36  C   UNK N   1      28.654  17.878   8.743  0.00  0.00     0.154 A 
HETATM   37  F   UNK N   1      29.856  19.049  10.446  0.00  0.00    -0.203 F 
HETATM   38  C   UNK N   1      28.659  17.185   7.527  0.00  0.00     0.048 A 
HETATM   39  F   UNK N   1      27.490  18.068   9.406  0.00  0.00    -0.203 F 
HETATM   40  C   UNK N   1      29.860  16.977   6.843  0.00  0.00     0.040 A 
ENDBRANCH  32  33
ENDBRANCH  25  32
ENDBRANCH   2  24
TORSDOF 7
ENDMDL
MODEL 3
REMARK VINA RESULT:      -9.0      2.413      2.669
REMARK  7 active torsions:
REMARK  status: ('A' for Active; 'I' for Inactive)
REMARK    1  A    between atoms: C_4  and  C_9 
REMARK    2  A    between atoms: C_5  and  O_8 
REMARK       I    between atoms: C_9  and  N_11 
REMARK    3  A    between atoms: C_12  and  N_11 
REMARK    4  A    between atoms: C_15  and  N_18 
REMARK       I    between atoms: N_18  and  C_19 
REMARK    5  A    between atoms: C_19  and  C_21 
REMARK    6  A    between atoms: C_22  and  O_29 
REMARK    7  A    between atoms: O_29  and  C_30 
ROOT
HETATM    1  N   UNK N   1      29.667  17.383   6.668  0.00  0.00    -0.352 N 
HETATM    2  C   UNK N   1      28.467  17.786   7.148  0.00  0.00     0.256 C 
HETATM    3  O   UNK N   1      28.103  17.495   8.278  0.00  0.00    -0.267 OA
HETATM    4  H   UNK N   1      29.922  17.700   5.772  0.00  0.00     0.163 HD
ENDROOT
BRANCH   1   5
HETATM    5  C   UNK N   1      30.604  16.527   7.360  0.00  0.00     0.084 C 
HETATM    6  C   UNK N   1      31.747  15.960   6.491  0.00  0.00     0.027 C 
HETATM    7  C   UNK N   1      32.951  16.905   6.377  0.00  0.00     0.027 C 
HETATM    8  C   UNK N   1      33.394  17.437   7.742  0.00  0.00     0.084 C 
HETATM    9  C   UNK N   1      32.217  18.135   8.435  0.00  0.00     0.027 C 
HETATM   10  C   UNK N   1      31.068  17.155   8.660  0.00  0.00     0.027 C 
BRANCH   8  11
HETATM   11  N   UNK N   1      34.025  16.368   8.508  0.00  0.00    -0.352 N 
HETATM   12  C   UNK N   1      34.940  16.484   9.511  0.00  0.00     0.254 C 
HETATM   13  O   UNK N   1      35.390  17.577   9.831  0.00  0.00    -0.268 OA
HETATM   14  H   UNK N   1      33.756  15.450   8.273  0.00  0.00     0.163 HD
BRANCH  12  15
HETATM   15  C   UNK N   1      35.415  15.272  10.210  0.00  0.00     0.065 A 
HETATM   16  C   UNK N   1      36.737  14.846  10.004  0.00  0.00     0.026 A 
HETATM   17  C   UNK N   1      37.228  13.716  10.656  0.00  0.00    -0.061 A 
HETATM   18  C   UNK N   1      38.634  13.290  10.439  0.00  0.00     0.048 C 
HETATM   19  C   UNK N   1      36.402  12.992  11.517  0.00  0.00     0.009 A 
HETATM   20  C   UNK N   1      35.082  13.397  11.725  0.00  0.00     0.038 A 
HETATM   21  C   UNK N   1      34.583  14.530  11.079  0.00  0.00     0.081 A 
BRANCH  21  22
HETATM   22  O   UNK N   1      33.305  14.893  11.296  0.00  0.00    -0.360 OA
HETATM   23  H   UNK N   1      32.775  15.195  10.584  0.00  0.00     0.217 HD
ENDBRANCH  21  22
ENDBRANCH  12  15
ENDBRANCH   8  11
ENDBRANCH   1   5
BRANCH   2  24
HETATM   24  C   UNK N   1      27.688  18.743   6.378  0.00  0.00     0.086 A 
HETATM   25  C   UNK N   1      26.767  18.261   5.450  0.00  0.00     0.164 A 
HETATM   26  N   UNK N   1      26.007  19.133   4.730  0.00  0.00    -0.343 N 
HETATM   27  C   UNK N   1      26.135  20.481   4.898  0.00  0.00     0.132 A 
ATOM     28  HN  UNK N   1      25.333  18.772   4.055  1.00  0.00     0.167 HD
HETATM   29  C   UNK N   1      27.042  20.993   5.834  0.00  0.00     0.132 A 
HETATM   30  C   UNK N   1      27.815  20.115   6.588  0.00  0.00     0.065 A 
HETATM   31  F   UNK N   1      27.174  22.330   6.005  0.00  0.00    -0.205 F 
BRANCH  25  32
HETATM   32  O   UNK N   1      26.602  16.915   5.367  0.00  0.00    -0.293 OA
BRANCH  32  33
HETATM   33  C   UNK N   1      25.636  16.128   5.875  0.00  0.00     0.081 A 
HETATM   34  C   UNK N   1      26.010  15.149   6.801  0.00  0.00     0.082 A 
HETATM   35  C   UNK N   1      25.062  14.269   7.321  0.00  0.00     0.157 A 
HETATM   36  C   UNK N   1      23.730  14.357   6.903  0.00  0.00     0.154 A 
HETATM   37  F   UNK N   1      25.439  13.329   8.222  0.00  0.00    -0.203 F 
HETATM   38  C   UNK N   1      23.349  15.336   5.979  0.00  0.00     0.048 A 
HETATM   39  F   UNK N   1      22.808  13.493   7.389  0.00  0.00    -0.203 F 
HETATM   40  C   UNK N   1      24.299  16.224   5.466  0.00  0.00     0.040 A 
ENDBRANCH  32  33
ENDBRANCH  25  32
ENDBRANCH   2  24
TORSDOF 7
ENDMDL
MODEL 4
REMARK VINA RESULT:      -8.9      3.689      9.948
REMARK  7 active torsions:
REMARK  status: ('A' for Active; 'I' for Inactive)
REMARK    1  A    between atoms: C_4  and  C_9 
REMARK    2  A    between atoms: C_5  and  O_8 
REMARK       I    between atoms: C_9  and  N_11 
REMARK    3  A    between atoms: C_12  and  N_11 
REMARK    4  A    between atoms: C_15  and  N_18 
REMARK       I    between atoms: N_18  and  C_19 
REMARK    5  A    between atoms: C_19  and  C_21 
REMARK    6  A    between atoms: C_22  and  O_29 
REMARK    7  A    between atoms: O_29  and  C_30 
ROOT
HETATM    1  N   UNK N   1      29.175  18.140   5.791  0.00  0.00    -0.352 N 
HETATM    2  C   UNK N   1      29.865  17.231   6.520  0.00  0.00     0.256 C 
HETATM    3  O   UNK N   1      29.312  16.258   7.011  0.00  0.00    -0.267 OA
HETATM    4  H   UNK N   1      29.691  18.868   5.376  0.00  0.00     0.163 HD
ENDROOT
BRANCH   1   5
HETATM    5  C   UNK N   1      27.747  18.131   5.571  0.00  0.00     0.084 C 
HETATM    6  C   UNK N   1      26.934  19.100   6.458  0.00  0.00     0.027 C 
HETATM    7  C   UNK N   1      26.846  20.520   5.883  0.00  0.00     0.027 C 
HETATM    8  C   UNK N   1      26.441  20.519   4.408  0.00  0.00     0.084 C 
HETATM    9  C   UNK N   1      27.426  19.665   3.598  0.00  0.00     0.027 C 
HETATM   10  C   UNK N   1      27.417  18.220   4.093  0.00  0.00     0.027 C 
BRANCH   8  11
HETATM   11  N   UNK N   1      25.038  20.142   4.280  0.00  0.00    -0.352 N 
HETATM   12  C   UNK N   1      24.221  20.307   3.202  0.00  0.00     0.254 C 
HETATM   13  O   UNK N   1      24.612  20.888   2.198  0.00  0.00    -0.268 OA
HETATM   14  H   UNK N   1      24.631  19.716   5.069  0.00  0.00     0.163 HD
BRANCH  12  15
HETATM   15  C   UNK N   1      22.835  19.796   3.251  0.00  0.00     0.065 A 
HETATM   16  C   UNK N   1      22.622  18.452   3.597  0.00  0.00     0.026 A 
HETATM   17  C   UNK N   1      21.329  17.935   3.668  0.00  0.00    -0.061 A 
HETATM   18  C   UNK N   1      21.122  16.515   4.052  0.00  0.00     0.048 C 
HETATM   19  C   UNK N   1      20.233  18.751   3.388  0.00  0.00     0.009 A 
HETATM   20  C   UNK N   1      20.429  20.087   3.033  0.00  0.00     0.038 A 
HETATM   21  C   UNK N   1      21.720  20.615   2.963  0.00  0.00     0.081 A 
BRANCH  21  22
HETATM   22  O   UNK N   1      21.878  21.906   2.613  0.00  0.00    -0.360 OA
HETATM   23  H   UNK N   1      21.132  22.471   2.553  0.00  0.00     0.217 HD
ENDBRANCH  21  22
ENDBRANCH  12  15
ENDBRANCH   8  11
ENDBRANCH   1   5
BRANCH   2  24
HETATM   24  C   UNK N   1      31.316  17.312   6.552  0.00  0.00     0.086 A 
HETATM   25  C   UNK N   1      32.018  17.182   5.355  0.00  0.00     0.164 A 
HETATM   26  N   UNK N   1      33.377  17.275   5.350  0.00  0.00    -0.343 N 
HETATM   27  C   UNK N   1      34.071  17.492   6.505  0.00  0.00     0.132 A 
ATOM     28  HN  UNK N   1      33.884  17.182   4.470  1.00  0.00     0.167 HD
HETATM   29  C   UNK N   1      33.391  17.642   7.720  0.00  0.00     0.132 A 
HETATM   30  C   UNK N   1      32.001  17.564   7.739  0.00  0.00     0.065 A 
HETATM   31  F   UNK N   1      34.073  17.856   8.870  0.00  0.00    -0.205 F 
BRANCH  25  32
HETATM   32  O   UNK N   1      31.296  17.052   4.211  0.00  0.00    -0.293 OA
BRANCH  32  33
HETATM   33  C   UNK N   1      30.863  15.944   3.582  0.00  0.00     0.081 A 
HETATM   34  C   UNK N   1      29.684  16.035   2.835  0.00  0.00     0.082 A 
HETATM   35  C   UNK N   1      29.158  14.909   2.206  0.00  0.00     0.157 A 
HETATM   36  C   UNK N   1      29.805  13.675   2.333  0.00  0.00     0.154 A 
HETATM   37  F   UNK N   1      28.017  15.013   1.481  0.00  0.00    -0.203 F 
HETATM   38  C   UNK N   1      30.987  13.578   3.077  0.00  0.00     0.048 A 
HETATM   39  F   UNK N   1      29.289  12.573   1.741  0.00  0.00    -0.203 F 
HETATM   40  C   UNK N   1      31.519  14.711   3.699  0.00  0.00     0.040 A 
ENDBRANCH  32  33
ENDBRANCH  25  32
ENDBRANCH   2  24
TORSDOF 7
ENDMDL
MODEL 5
REMARK VINA RESULT:      -8.7      4.702      7.216
REMARK  7 active torsions:
REMARK  status: ('A' for Active; 'I' for Inactive)
REMARK    1  A    between atoms: C_4  and  C_9 
REMARK    2  A    between atoms: C_5  and  O_8 
REMARK       I    between atoms: C_9  and  N_11 
REMARK    3  A    between atoms: C_12  and  N_11 
REMARK    4  A    between atoms: C_15  and  N_18 
REMARK       I    between atoms: N_18  and  C_19 
REMARK    5  A    between atoms: C_19  and  C_21 
REMARK    6  A    between atoms: C_22  and  O_29 
REMARK    7  A    between atoms: O_29  and  C_30 
ROOT
HETATM    1  N   UNK N   1      24.891  18.653   3.551  0.00  0.00    -0.352 N 
HETATM    2  C   UNK N   1      24.204  19.818   3.484  0.00  0.00     0.256 C 
HETATM    3  O   UNK N   1      24.778  20.896   3.501  0.00  0.00    -0.267 OA
HETATM    4  H   UNK N   1      24.372  17.820   3.474  0.00  0.00     0.163 HD
ENDROOT
BRANCH   1   5
HETATM    5  C   UNK N   1      26.320  18.529   3.724  0.00  0.00     0.084 C 
HETATM    6  C   UNK N   1      26.993  19.674   4.513  0.00  0.00     0.027 C 
HETATM    7  C   UNK N   1      26.958  19.467   6.033  0.00  0.00     0.027 C 
HETATM    8  C   UNK N   1      27.421  18.064   6.432  0.00  0.00     0.084 C 
HETATM    9  C   UNK N   1      26.561  17.011   5.720  0.00  0.00     0.027 C 
HETATM   10  C   UNK N   1      26.699  17.141   4.205  0.00  0.00     0.027 C 
BRANCH   8  11
HETATM   11  N   UNK N   1      28.859  17.940   6.225  0.00  0.00    -0.352 N 
HETATM   12  C   UNK N   1      29.796  17.489   7.106  0.00  0.00     0.254 C 
HETATM   13  O   UNK N   1      29.490  17.187   8.253  0.00  0.00    -0.268 OA
HETATM   14  H   UNK N   1      29.195  18.215   5.341  0.00  0.00     0.163 HD
BRANCH  12  15
HETATM   15  C   UNK N   1      31.207  17.379   6.679  0.00  0.00     0.065 A 
HETATM   16  C   UNK N   1      31.486  17.143   5.324  0.00  0.00     0.026 A 
HETATM   17  C   UNK N   1      32.804  17.047   4.878  0.00  0.00    -0.061 A 
HETATM   18  C   UNK N   1      33.081  16.813   3.437  0.00  0.00     0.048 C 
HETATM   19  C   UNK N   1      33.859  17.180   5.782  0.00  0.00     0.009 A 
HETATM   20  C   UNK N   1      33.597  17.406   7.134  0.00  0.00     0.038 A 
HETATM   21  C   UNK N   1      32.280  17.507   7.589  0.00  0.00     0.081 A 
BRANCH  21  22
HETATM   22  O   UNK N   1      32.059  17.721   8.900  0.00  0.00    -0.360 OA
HETATM   23  H   UNK N   1      31.644  17.060   9.420  0.00  0.00     0.217 HD
ENDBRANCH  21  22
ENDBRANCH  12  15
ENDBRANCH   8  11
ENDBRANCH   1   5
BRANCH   2  24
HETATM   24  C   UNK N   1      22.780  19.777   3.191  0.00  0.00     0.086 A 
HETATM   25  C   UNK N   1      21.960  18.969   3.975  0.00  0.00     0.164 A 
HETATM   26  N   UNK N   1      20.619  18.928   3.738  0.00  0.00    -0.343 N 
HETATM   27  C   UNK N   1      20.059  19.666   2.737  0.00  0.00     0.132 A 
ATOM     28  HN  UNK N   1      20.024  18.337   4.319  1.00  0.00     0.167 HD
HETATM   29  C   UNK N   1      20.858  20.499   1.942  0.00  0.00     0.132 A 
HETATM   30  C   UNK N   1      22.227  20.562   2.181  0.00  0.00     0.065 A 
HETATM   31  F   UNK N   1      20.308  21.233   0.945  0.00  0.00    -0.205 F 
BRANCH  25  32
HETATM   32  O   UNK N   1      22.532  18.313   5.018  0.00  0.00    -0.293 OA
BRANCH  32  33
HETATM   33  C   UNK N   1      21.974  17.533   5.962  0.00  0.00     0.081 A 
HETATM   34  C   UNK N   1      21.027  18.113   6.813  0.00  0.00     0.082 A 
HETATM   35  C   UNK N   1      20.454  17.371   7.843  0.00  0.00     0.157 A 
HETATM   36  C   UNK N   1      20.838  16.040   8.037  0.00  0.00     0.154 A 
HETATM   37  F   UNK N   1      19.534  17.945   8.656  0.00  0.00    -0.203 F 
HETATM   38  C   UNK N   1      21.782  15.452   7.187  0.00  0.00     0.048 A 
HETATM   39  F   UNK N   1      20.300  15.318   9.048  0.00  0.00    -0.203 F 
HETATM   40  C   UNK N   1      22.349  16.196   6.147  0.00  0.00     0.040 A 
ENDBRANCH  32  33
ENDBRANCH  25  32
ENDBRANCH   2  24
TORSDOF 7
ENDMDL
MODEL 6
REMARK VINA RESULT:      -8.4      6.655     13.033
REMARK  7 active torsions:
REMARK  status: ('A' for Active; 'I' for Inactive)
REMARK    1  A    between atoms: C_4  and  C_9 
REMARK    2  A    between atoms: C_5  and  O_8 
REMARK       I    between atoms: C_9  and  N_11 
REMARK    3  A    between atoms: C_12  and  N_11 
REMARK    4  A    between atoms: C_15  and  N_18 
REMARK       I    between atoms: N_18  and  C_19 
REMARK    5  A    between atoms: C_19  and  C_21 
REMARK    6  A    between atoms: C_22  and  O_29 
REMARK    7  A    between atoms: O_29  and  C_30 
ROOT
HETATM    1  N   UNK N   1      36.337  11.554  12.363  0.00  0.00    -0.352 N 
HETATM    2  C   UNK N   1      36.351  10.210  12.525  0.00  0.00     0.256 C 
HETATM    3  O   UNK N   1      35.658   9.479  11.834  0.00  0.00    -0.267 OA
HETATM    4  H   UNK N   1      36.962  12.080  12.912  0.00  0.00     0.163 HD
ENDROOT
BRANCH   1   5
HETATM    5  C   UNK N   1      35.482  12.282  11.453  0.00  0.00     0.084 C 
HETATM    6  C   UNK N   1      34.880  13.590  12.012  0.00  0.00     0.027 C 
HETATM    7  C   UNK N   1      35.805  14.803  11.850  0.00  0.00     0.027 C 
HETATM    8  C   UNK N   1      36.360  14.917  10.428  0.00  0.00     0.084 C 
HETATM    9  C   UNK N   1      37.090  13.621  10.050  0.00  0.00     0.027 C 
HETATM   10  C   UNK N   1      36.132  12.433  10.090  0.00  0.00     0.027 C 
BRANCH   8  11
HETATM   11  N   UNK N   1      35.299  15.325   9.515  0.00  0.00    -0.352 N 
HETATM   12  C   UNK N   1      34.848  16.587   9.265  0.00  0.00     0.254 C 
HETATM   13  O   UNK N   1      35.290  17.548   9.882  0.00  0.00    -0.268 OA
HETATM   14  H   UNK N   1      34.853  14.601   9.018  0.00  0.00     0.163 HD
BRANCH  12  15
HETATM   15  C   UNK N   1      33.797  16.799   8.248  0.00  0.00     0.065 A 
HETATM   16  C   UNK N   1      32.521  17.204   8.670  0.00  0.00     0.026 A 
HETATM   17  C   UNK N   1      31.505  17.428   7.742  0.00  0.00    -0.061 A 
HETATM   18  C   UNK N   1      30.165  17.872   8.205  0.00  0.00     0.048 C 
HETATM   19  C   UNK N   1      31.750  17.243   6.381  0.00  0.00     0.009 A 
HETATM   20  C   UNK N   1      33.011  16.832   5.946  0.00  0.00     0.038 A 
HETATM   21  C   UNK N   1      34.035  16.609   6.869  0.00  0.00     0.081 A 
BRANCH  21  22
HETATM   22  O   UNK N   1      35.239  16.208   6.420  0.00  0.00    -0.360 OA
HETATM   23  H   UNK N   1      35.852  15.812   7.008  0.00  0.00     0.217 HD
ENDBRANCH  21  22
ENDBRANCH  12  15
ENDBRANCH   8  11
ENDBRANCH   1   5
BRANCH   2  24
HETATM   24  C   UNK N   1      37.352   9.619  13.398  0.00  0.00     0.086 A 
HETATM   25  C   UNK N   1      37.146   9.664  14.776  0.00  0.00     0.164 A 
HETATM   26  N   UNK N   1      38.055   9.099  15.618  0.00  0.00    -0.343 N 
HETATM   27  C   UNK N   1      39.176   8.487  15.136  0.00  0.00     0.132 A 
ATOM     28  HN  UNK N   1      37.896   9.132  16.626  1.00  0.00     0.167 HD
HETATM   29  C   UNK N   1      39.401   8.414  13.755  0.00  0.00     0.132 A 
HETATM   30  C   UNK N   1      38.474   8.974  12.881  0.00  0.00     0.065 A 
HETATM   31  F   UNK N   1      40.512   7.811  13.270  0.00  0.00    -0.205 F 
BRANCH  25  32
HETATM   32  O   UNK N   1      35.981  10.203  15.222  0.00  0.00    -0.293 OA
BRANCH  32  33
HETATM   33  C   UNK N   1      35.768  11.176  16.127  0.00  0.00     0.081 A 
HETATM   34  C   UNK N   1      35.529  10.795  17.451  0.00  0.00     0.082 A 
HETATM   35  C   UNK N   1      35.249  11.754  18.423  0.00  0.00     0.157 A 
HETATM   36  C   UNK N   1      35.192  13.106  18.068  0.00  0.00     0.154 A 
HETATM   37  F   UNK N   1      35.024  11.370  19.704  0.00  0.00    -0.203 F 
HETATM   38  C   UNK N   1      35.433  13.493  16.746  0.00  0.00     0.048 A 
HETATM   39  F   UNK N   1      34.901  14.042  19.003  0.00  0.00    -0.203 F 
HETATM   40  C   UNK N   1      35.725  12.531  15.774  0.00  0.00     0.040 A 
ENDBRANCH  32  33
ENDBRANCH  25  32
ENDBRANCH   2  24
TORSDOF 7
ENDMDL
MODEL 7
REMARK VINA RESULT:      -8.3      3.813      6.412
REMARK  7 active torsions:
REMARK  status: ('A' for Active; 'I' for Inactive)
REMARK    1  A    between atoms: C_4  and  C_9 
REMARK    2  A    between atoms: C_5  and  O_8 
REMARK       I    between atoms: C_9  and  N_11 
REMARK    3  A    between atoms: C_12  and  N_11 
REMARK    4  A    between atoms: C_15  and  N_18 
REMARK       I    between atoms: N_18  and  C_19 
REMARK    5  A    between atoms: C_19  and  C_21 
REMARK    6  A    between atoms: C_22  and  O_29 
REMARK    7  A    between atoms: O_29  and  C_30 
ROOT
HETATM    1  N   UNK N   1      33.702  13.842   7.109  0.00  0.00    -0.352 N 
HETATM    2  C   UNK N   1      33.028  13.412   6.017  0.00  0.00     0.256 C 
HETATM    3  O   UNK N   1      32.336  12.405   6.051  0.00  0.00    -0.267 OA
HETATM    4  H   UNK N   1      34.193  14.691   7.029  0.00  0.00     0.163 HD
ENDROOT
BRANCH   1   5
HETATM    5  C   UNK N   1      33.761  13.160   8.382  0.00  0.00     0.084 C 
HETATM    6  C   UNK N   1      35.180  12.942   8.951  0.00  0.00     0.027 C 
HETATM    7  C   UNK N   1      35.703  14.139   9.756  0.00  0.00     0.027 C 
HETATM    8  C   UNK N   1      34.678  14.635  10.779  0.00  0.00     0.084 C 
HETATM    9  C   UNK N   1      33.364  14.988  10.070  0.00  0.00     0.027 C 
HETATM   10  C   UNK N   1      32.782  13.759   9.374  0.00  0.00     0.027 C 
BRANCH   8  11
HETATM   11  N   UNK N   1      34.560  13.671  11.867  0.00  0.00    -0.352 N 
HETATM   12  C   UNK N   1      35.341  13.564  12.979  0.00  0.00     0.254 C 
HETATM   13  O   UNK N   1      36.319  14.284  13.135  0.00  0.00    -0.268 OA
HETATM   14  H   UNK N   1      33.827  13.018  11.790  0.00  0.00     0.163 HD
BRANCH  12  15
HETATM   15  C   UNK N   1      35.016  12.550  14.005  0.00  0.00     0.065 A 
HETATM   16  C   UNK N   1      35.333  12.820  15.345  0.00  0.00     0.026 A 
HETATM   17  C   UNK N   1      35.030  11.896  16.345  0.00  0.00    -0.061 A 
HETATM   18  C   UNK N   1      35.358  12.205  17.761  0.00  0.00     0.048 C 
HETATM   19  C   UNK N   1      34.414  10.689  16.017  0.00  0.00     0.009 A 
HETATM   20  C   UNK N   1      34.101  10.402  14.687  0.00  0.00     0.038 A 
HETATM   21  C   UNK N   1      34.396  11.323  13.680  0.00  0.00     0.081 A 
BRANCH  21  22
HETATM   22  O   UNK N   1      34.087  11.016  12.406  0.00  0.00    -0.360 OA
HETATM   23  H   UNK N   1      34.253  11.633  11.720  0.00  0.00     0.217 HD
ENDBRANCH  21  22
ENDBRANCH  12  15
ENDBRANCH   8  11
ENDBRANCH   1   5
BRANCH   2  24
HETATM   24  C   UNK N   1      32.970  14.270   4.845  0.00  0.00     0.086 A 
HETATM   25  C   UNK N   1      31.935  15.199   4.747  0.00  0.00     0.164 A 
HETATM   26  N   UNK N   1      31.868  16.032   3.671  0.00  0.00    -0.343 N 
HETATM   27  C   UNK N   1      32.800  15.972   2.676  0.00  0.00     0.132 A 
ATOM     28  HN  UNK N   1      31.110  16.712   3.609  1.00  0.00     0.167 HD
HETATM   29  C   UNK N   1      33.859  15.058   2.755  0.00  0.00     0.132 A 
HETATM   30  C   UNK N   1      33.949  14.210   3.855  0.00  0.00     0.065 A 
HETATM   31  F   UNK N   1      34.786  14.992   1.769  0.00  0.00    -0.205 F 
BRANCH  25  32
HETATM   32  O   UNK N   1      31.073  15.294   5.793  0.00  0.00    -0.293 OA
BRANCH  32  33
HETATM   33  C   UNK N   1      30.880  16.299   6.667  0.00  0.00     0.081 A 
HETATM   34  C   UNK N   1      32.008  16.875   7.260  0.00  0.00     0.082 A 
HETATM   35  C   UNK N   1      31.870  17.882   8.213  0.00  0.00     0.157 A 
HETATM   36  C   UNK N   1      30.592  18.311   8.590  0.00  0.00     0.154 A 
HETATM   37  F   UNK N   1      32.973  18.435   8.775  0.00  0.00    -0.203 F 
HETATM   38  C   UNK N   1      29.460  17.741   7.997  0.00  0.00     0.048 A 
HETATM   39  F   UNK N   1      30.449  19.276   9.528  0.00  0.00    -0.203 F 
HETATM   40  C   UNK N   1      29.601  16.737   7.034  0.00  0.00     0.040 A 
ENDBRANCH  32  33
ENDBRANCH  25  32
ENDBRANCH   2  24
TORSDOF 7
ENDMDL
MODEL 8
REMARK VINA RESULT:      -8.2      4.511      7.077
REMARK  7 active torsions:
REMARK  status: ('A' for Active; 'I' for Inactive)
REMARK    1  A    between atoms: C_4  and  C_9 
REMARK    2  A    between atoms: C_5  and  O_8 
REMARK       I    between atoms: C_9  and  N_11 
REMARK    3  A    between atoms: C_12  and  N_11 
REMARK    4  A    between atoms: C_15  and  N_18 
REMARK       I    between atoms: N_18  and  C_19 
REMARK    5  A    between atoms: C_19  and  C_21 
REMARK    6  A    between atoms: C_22  and  O_29 
REMARK    7  A    between atoms: O_29  and  C_30 
ROOT
HETATM    1  N   UNK N   1      34.715  12.830   6.789  0.00  0.00    -0.352 N 
HETATM    2  C   UNK N   1      33.632  12.655   5.995  0.00  0.00     0.256 C 
HETATM    3  O   UNK N   1      32.554  12.310   6.455  0.00  0.00    -0.267 OA
HETATM    4  H   UNK N   1      35.536  13.164   6.363  0.00  0.00     0.163 HD
ENDROOT
BRANCH   1   5
HETATM    5  C   UNK N   1      34.765  12.568   8.210  0.00  0.00     0.084 C 
HETATM    6  C   UNK N   1      36.052  11.876   8.710  0.00  0.00     0.027 C 
HETATM    7  C   UNK N   1      37.189  12.859   9.019  0.00  0.00     0.027 C 
HETATM    8  C   UNK N   1      36.719  14.028   9.887  0.00  0.00     0.084 C 
HETATM    9  C   UNK N   1      35.550  14.747   9.201  0.00  0.00     0.027 C 
HETATM   10  C   UNK N   1      34.371  13.795   9.010  0.00  0.00     0.027 C 
BRANCH   8  11
HETATM   11  N   UNK N   1      36.455  13.561  11.244  0.00  0.00    -0.352 N 
HETATM   12  C   UNK N   1      36.097  14.303  12.330  0.00  0.00     0.254 C 
HETATM   13  O   UNK N   1      36.023  15.524  12.263  0.00  0.00    -0.268 OA
HETATM   14  H   UNK N   1      36.547  12.592  11.394  0.00  0.00     0.163 HD
BRANCH  12  15
HETATM   15  C   UNK N   1      35.812  13.628  13.613  0.00  0.00     0.065 A 
HETATM   16  C   UNK N   1      34.903  12.558  13.627  0.00  0.00     0.026 A 
HETATM   17  C   UNK N   1      34.618  11.886  14.814  0.00  0.00    -0.061 A 
HETATM   18  C   UNK N   1      33.666  10.745  14.807  0.00  0.00     0.048 C 
HETATM   19  C   UNK N   1      35.231  12.278  16.004  0.00  0.00     0.009 A 
HETATM   20  C   UNK N   1      36.129  13.347  16.009  0.00  0.00     0.038 A 
HETATM   21  C   UNK N   1      36.425  14.023  14.823  0.00  0.00     0.081 A 
BRANCH  21  22
HETATM   22  O   UNK N   1      37.292  15.053  14.860  0.00  0.00    -0.360 OA
HETATM   23  H   UNK N   1      37.708  15.346  14.073  0.00  0.00     0.217 HD
ENDBRANCH  21  22
ENDBRANCH  12  15
ENDBRANCH   8  11
ENDBRANCH   1   5
BRANCH   2  24
HETATM   24  C   UNK N   1      33.707  13.073   4.605  0.00  0.00     0.086 A 
HETATM   25  C   UNK N   1      34.035  14.399   4.323  0.00  0.00     0.164 A 
HETATM   26  N   UNK N   1      34.135  14.814   3.030  0.00  0.00    -0.343 N 
HETATM   27  C   UNK N   1      33.913  13.953   1.995  0.00  0.00     0.132 A 
ATOM     28  HN  UNK N   1      34.379  15.785   2.831  1.00  0.00     0.167 HD
HETATM   29  C   UNK N   1      33.596  12.612   2.248  0.00  0.00     0.132 A 
HETATM   30  C   UNK N   1      33.505  12.168   3.564  0.00  0.00     0.065 A 
HETATM   31  F   UNK N   1      33.374  11.752   1.226  0.00  0.00    -0.205 F 
BRANCH  25  32
HETATM   32  O   UNK N   1      34.334  15.210   5.371  0.00  0.00    -0.293 OA
BRANCH  32  33
HETATM   33  C   UNK N   1      33.536  16.017   6.095  0.00  0.00     0.081 A 
HETATM   34  C   UNK N   1      34.130  17.088   6.771  0.00  0.00     0.082 A 
HETATM   35  C   UNK N   1      33.365  17.926   7.579  0.00  0.00     0.157 A 
HETATM   36  C   UNK N   1      31.994  17.686   7.728  0.00  0.00     0.154 A 
HETATM   37  F   UNK N   1      33.954  18.962   8.225  0.00  0.00    -0.203 F 
HETATM   38  C   UNK N   1      31.393  16.619   7.051  0.00  0.00     0.048 A 
HETATM   39  F   UNK N   1      31.248  18.484   8.526  0.00  0.00    -0.203 F 
HETATM   40  C   UNK N   1      32.161  15.785   6.232  0.00  0.00     0.040 A 
ENDBRANCH  32  33
ENDBRANCH  25  32
ENDBRANCH   2  24
TORSDOF 7
ENDMDL
MODEL 9
REMARK VINA RESULT:      -8.0      4.732     10.845
REMARK  7 active torsions:
REMARK  status: ('A' for Active; 'I' for Inactive)
REMARK    1  A    between atoms: C_4  and  C_9 
REMARK    2  A    between atoms: C_5  and  O_8 
REMARK       I    between atoms: C_9  and  N_11 
REMARK    3  A    between atoms: C_12  and  N_11 
REMARK    4  A    between atoms: C_15  and  N_18 
REMARK       I    between atoms: N_18  and  C_19 
REMARK    5  A    between atoms: C_19  and  C_21 
REMARK    6  A    between atoms: C_22  and  O_29 
REMARK    7  A    between atoms: O_29  and  C_30 
ROOT
HETATM    1  N   UNK N   1      35.065  14.859   8.111  0.00  0.00    -0.352 N 
HETATM    2  C   UNK N   1      35.511  13.599   8.324  0.00  0.00     0.256 C 
HETATM    3  O   UNK N   1      34.950  12.633   7.827  0.00  0.00    -0.267 OA
HETATM    4  H   UNK N   1      35.597  15.595   8.492  0.00  0.00     0.163 HD
ENDROOT
BRANCH   1   5
HETATM    5  C   UNK N   1      33.877  15.216   7.370  0.00  0.00     0.084 C 
HETATM    6  C   UNK N   1      32.541  14.791   8.017  0.00  0.00     0.027 C 
HETATM    7  C   UNK N   1      32.009  15.807   9.036  0.00  0.00     0.027 C 
HETATM    8  C   UNK N   1      32.021  17.234   8.484  0.00  0.00     0.084 C 
HETATM    9  C   UNK N   1      33.440  17.606   8.036  0.00  0.00     0.027 C 
HETATM   10  C   UNK N   1      33.917  16.667   6.930  0.00  0.00     0.027 C 
BRANCH   8  11
HETATM   11  N   UNK N   1      30.986  17.380   7.467  0.00  0.00    -0.352 N 
HETATM   12  C   UNK N   1      29.680  17.724   7.644  0.00  0.00     0.254 C 
HETATM   13  O   UNK N   1      29.218  17.890   8.766  0.00  0.00    -0.268 OA
HETATM   14  H   UNK N   1      31.266  17.209   6.538  0.00  0.00     0.163 HD
BRANCH  12  15
HETATM   15  C   UNK N   1      28.799  17.881   6.467  0.00  0.00     0.065 A 
HETATM   16  C   UNK N   1      29.040  17.089   5.334  0.00  0.00     0.026 A 
HETATM   17  C   UNK N   1      28.224  17.196   4.208  0.00  0.00    -0.061 A 
HETATM   18  C   UNK N   1      28.483  16.337   3.023  0.00  0.00     0.048 C 
HETATM   19  C   UNK N   1      27.162  18.101   4.198  0.00  0.00     0.009 A 
HETATM   20  C   UNK N   1      26.916  18.903   5.314  0.00  0.00     0.038 A 
HETATM   21  C   UNK N   1      27.726  18.799   6.448  0.00  0.00     0.081 A 
BRANCH  21  22
HETATM   22  O   UNK N   1      27.467  19.589   7.507  0.00  0.00    -0.360 OA
HETATM   23  H   UNK N   1      28.026  19.566   8.258  0.00  0.00     0.217 HD
ENDBRANCH  21  22
ENDBRANCH  12  15
ENDBRANCH   8  11
ENDBRANCH   1   5
BRANCH   2  24
HETATM   24  C   UNK N   1      36.788  13.409   8.992  0.00  0.00     0.086 A 
HETATM   25  C   UNK N   1      36.816  13.388  10.385  0.00  0.00     0.164 A 
HETATM   26  N   UNK N   1      37.995  13.190  11.039  0.00  0.00    -0.343 N 
HETATM   27  C   UNK N   1      39.160  13.015  10.350  0.00  0.00     0.132 A 
ATOM     28  HN  UNK N   1      38.008  13.172  12.059  1.00  0.00     0.167 HD
HETATM   29  C   UNK N   1      39.159  13.017   8.949  0.00  0.00     0.132 A 
HETATM   30  C   UNK N   1      37.961  13.203   8.267  0.00  0.00     0.065 A 
HETATM   31  F   UNK N   1      40.312  12.845   8.259  0.00  0.00    -0.205 F 
BRANCH  25  32
HETATM   32  O   UNK N   1      35.630  13.480  11.041  0.00  0.00    -0.293 OA
BRANCH  32  33
HETATM   33  C   UNK N   1      35.102  12.685  11.990  0.00  0.00     0.081 A 
HETATM   34  C   UNK N   1      35.107  13.151  13.309  0.00  0.00     0.082 A 
HETATM   35  C   UNK N   1      34.624  12.351  14.343  0.00  0.00     0.157 A 
HETATM   36  C   UNK N   1      34.143  11.067  14.062  0.00  0.00     0.154 A 
HETATM   37  F   UNK N   1      34.630  12.818  15.616  0.00  0.00    -0.203 F 
HETATM   38  C   UNK N   1      34.133  10.597  12.744  0.00  0.00     0.048 A 
HETATM   39  F   UNK N   1      33.690  10.277  15.063  0.00  0.00    -0.203 F 
HETATM   40  C   UNK N   1      34.609  11.405  11.706  0.00  0.00     0.040 A 
ENDBRANCH  32  33
ENDBRANCH  25  32
ENDBRANCH   2  24
TORSDOF 7
ENDMDL
