MODEL 1
REMARK VINA RESULT:      -4.9      0.000      0.000
REMARK  7 active torsions:
REMARK  status: ('A' for Active; 'I' for Inactive)
REMARK    1  A    between atoms: P_4  and  N_10 
REMARK    2  A    between atoms: C_7  and  O_8 
REMARK    3  A    between atoms: O_8  and  O_9 
REMARK    4  A    between atoms: N_10  and  C_11 
REMARK    5  A    between atoms: N_10  and  C_14 
REMARK    6  A    between atoms: C_11  and  C_12 
REMARK    7  A    between atoms: C_14  and  C_15 
ROOT
HETATM    1  C   UNK N   1      35.479  15.962  10.005  0.00  0.00     0.083 C 
HETATM    2  C   UNK N   1      34.591  14.745   9.806  0.00  0.00     0.183 C 
HETATM    3  O   UNK N   1      33.257  15.149   9.979  0.00  0.00    -0.307 OA
HETATM    4  P   UNK N   1      32.745  15.773   8.426  0.00  0.00     0.367 P 
HETATM    5  O   UNK N   1      31.476  15.410   9.250  0.00  0.00    -0.248 OA
HETATM    6  N   UNK N   1      33.491  17.184   9.304  0.00  0.00    -0.308 N 
HETATM    7  C   UNK N   1      34.941  17.091   9.135  0.00  0.00     0.264 C 
HETATM    8  H   UNK N   1      32.989  17.906   9.820  0.00  0.00     0.166 HD
ENDROOT
BRANCH   4   9
HETATM    9  N   UNK N   1      31.623  17.144   7.964  0.00  0.00    -0.221 NA
BRANCH   9  10
HETATM   10  C   UNK N   1      30.520  17.201   8.927  0.00  0.00     0.116 C 
BRANCH  10  11
HETATM   11  C   UNK N   1      29.824  18.545   8.830  0.00  0.00     0.129 C 
HETATM   12 Cl   UNK N   1      28.071  18.310   9.003  0.00  0.00    -0.129 Cl
ENDBRANCH  10  11
ENDBRANCH   9  10
BRANCH   9  13
HETATM   13  C   UNK N   1      30.979  16.818   6.690  0.00  0.00     0.116 C 
BRANCH  13  14
HETATM   14  C   UNK N   1      32.002  16.239   5.730  0.00  0.00     0.129 C 
HETATM   15 Cl   UNK N   1      33.028  17.544   5.098  0.00  0.00    -0.129 Cl
ENDBRANCH  13  14
ENDBRANCH   9  13
ENDBRANCH   4   9
BRANCH   7  16
HETATM   16  O   UNK N   1      35.540  18.297   9.503  0.00  0.00    -0.217 OA
BRANCH  16  17
HETATM   17  O   UNK N   1      35.256  19.126   8.523  0.00  0.00    -0.248 OA
HETATM   18  H   UNK N   1      35.294  20.075   8.328  0.00  0.00     0.253 HD
ENDBRANCH  16  17
ENDBRANCH   7  16
TORSDOF 7
ENDMDL
MODEL 2
REMARK VINA RESULT:      -4.9      1.458      1.623
REMARK  7 active torsions:
REMARK  status: ('A' for Active; 'I' for Inactive)
REMARK    1  A    between atoms: P_4  and  N_10 
REMARK    2  A    between atoms: C_7  and  O_8 
REMARK    3  A    between atoms: O_8  and  O_9 
REMARK    4  A    between atoms: N_10  and  C_11 
REMARK    5  A    between atoms: N_10  and  C_14 
REMARK    6  A    between atoms: C_11  and  C_12 
REMARK    7  A    between atoms: C_14  and  C_15 
ROOT
HETATM    1  C   UNK N   1      34.952  17.144   9.305  0.00  0.00     0.083 C 
HETATM    2  C   UNK N   1      34.236  15.805   9.257  0.00  0.00     0.183 C 
HETATM    3  O   UNK N   1      32.856  16.055   9.177  0.00  0.00    -0.307 OA
HETATM    4  P   UNK N   1      32.516  16.294   7.476  0.00  0.00     0.367 P 
HETATM    5  O   UNK N   1      31.184  15.932   8.196  0.00  0.00    -0.248 OA
HETATM    6  N   UNK N   1      32.972  17.934   8.125  0.00  0.00    -0.308 N 
HETATM    7  C   UNK N   1      34.433  18.003   8.158  0.00  0.00     0.264 C 
HETATM    8  H   UNK N   1      32.327  18.669   8.413  0.00  0.00     0.166 HD
ENDROOT
BRANCH   4   9
HETATM    9  N   UNK N   1      31.336  17.390   6.604  0.00  0.00    -0.221 NA
BRANCH   9  10
HETATM   10  C   UNK N   1      29.974  17.062   7.033  0.00  0.00     0.116 C 
BRANCH  10  11
HETATM   11  C   UNK N   1      28.976  17.894   6.252  0.00  0.00     0.129 C 
HETATM   12 Cl   UNK N   1      28.303  19.150   7.313  0.00  0.00    -0.129 Cl
ENDBRANCH  10  11
ENDBRANCH   9  10
BRANCH   9  13
HETATM   13  C   UNK N   1      31.358  17.065   5.176  0.00  0.00     0.116 C 
BRANCH  13  14
HETATM   14  C   UNK N   1      32.731  16.552   4.786  0.00  0.00     0.129 C 
HETATM   15 Cl   UNK N   1      32.973  16.776   3.040  0.00  0.00    -0.129 Cl
ENDBRANCH  13  14
ENDBRANCH   9  13
ENDBRANCH   4   9
BRANCH   7  16
HETATM   16  O   UNK N   1      34.842  19.325   8.337  0.00  0.00    -0.217 OA
BRANCH  16  17
HETATM   17  O   UNK N   1      35.863  19.252   9.162  0.00  0.00    -0.248 OA
HETATM   18  H   UNK N   1      36.038  19.152  10.110  0.00  0.00     0.253 HD
ENDBRANCH  16  17
ENDBRANCH   7  16
TORSDOF 7
ENDMDL
MODEL 3
REMARK VINA RESULT:      -4.9      0.850      2.929
REMARK  7 active torsions:
REMARK  status: ('A' for Active; 'I' for Inactive)
REMARK    1  A    between atoms: P_4  and  N_10 
REMARK    2  A    between atoms: C_7  and  O_8 
REMARK    3  A    between atoms: O_8  and  O_9 
REMARK    4  A    between atoms: N_10  and  C_11 
REMARK    5  A    between atoms: N_10  and  C_14 
REMARK    6  A    between atoms: C_11  and  C_12 
REMARK    7  A    between atoms: C_14  and  C_15 
ROOT
HETATM    1  C   UNK N   1      35.504  16.184  10.337  0.00  0.00     0.083 C 
HETATM    2  C   UNK N   1      34.725  14.882  10.266  0.00  0.00     0.183 C 
HETATM    3  O   UNK N   1      33.358  15.197  10.199  0.00  0.00    -0.307 OA
HETATM    4  P   UNK N   1      33.022  15.485   8.505  0.00  0.00     0.367 P 
HETATM    5  O   UNK N   1      31.678  15.172   9.224  0.00  0.00    -0.248 OA
HETATM    6  N   UNK N   1      33.558  17.088   9.183  0.00  0.00    -0.308 N 
HETATM    7  C   UNK N   1      35.020  17.089   9.210  0.00  0.00     0.264 C 
HETATM    8  H   UNK N   1      32.950  17.847   9.488  0.00  0.00     0.166 HD
ENDROOT
BRANCH   4   9
HETATM    9  N   UNK N   1      31.892  16.652   7.660  0.00  0.00    -0.221 NA
BRANCH   9  10
HETATM   10  C   UNK N   1      32.578  17.222   6.497  0.00  0.00     0.116 C 
BRANCH  10  11
HETATM   11  C   UNK N   1      31.820  16.871   5.231  0.00  0.00     0.129 C 
HETATM   12 Cl   UNK N   1      32.724  17.470   3.824  0.00  0.00    -0.129 Cl
ENDBRANCH  10  11
ENDBRANCH   9  10
BRANCH   9  13
HETATM   13  C   UNK N   1      31.650  17.796   8.540  0.00  0.00     0.116 C 
BRANCH  13  14
HETATM   14  C   UNK N   1      30.203  18.238   8.423  0.00  0.00     0.129 C 
HETATM   15 Cl   UNK N   1      29.544  18.542  10.045  0.00  0.00    -0.129 Cl
ENDBRANCH  13  14
ENDBRANCH   9  13
ENDBRANCH   4   9
BRANCH   7  16
HETATM   16  O   UNK N   1      35.492  18.387   9.412  0.00  0.00    -0.217 OA
BRANCH  16  17
HETATM   17  O   UNK N   1      35.038  19.073   8.387  0.00  0.00    -0.248 OA
HETATM   18  H   UNK N   1      35.229  19.202   7.445  0.00  0.00     0.253 HD
ENDBRANCH  16  17
ENDBRANCH   7  16
TORSDOF 7
ENDMDL
MODEL 4
REMARK VINA RESULT:      -4.8      5.771      7.146
REMARK  7 active torsions:
REMARK  status: ('A' for Active; 'I' for Inactive)
REMARK    1  A    between atoms: P_4  and  N_10 
REMARK    2  A    between atoms: C_7  and  O_8 
REMARK    3  A    between atoms: O_8  and  O_9 
REMARK    4  A    between atoms: N_10  and  C_11 
REMARK    5  A    between atoms: N_10  and  C_14 
REMARK    6  A    between atoms: C_11  and  C_12 
REMARK    7  A    between atoms: C_14  and  C_15 
ROOT
HETATM    1  C   UNK N   1      35.729  13.479  16.502  0.00  0.00     0.083 C 
HETATM    2  C   UNK N   1      34.822  12.525  15.743  0.00  0.00     0.183 C 
HETATM    3  O   UNK N   1      34.493  13.124  14.516  0.00  0.00    -0.307 OA
HETATM    4  P   UNK N   1      35.809  12.731  13.430  0.00  0.00     0.367 P 
HETATM    5  O   UNK N   1      34.568  13.119  12.575  0.00  0.00    -0.248 OA
HETATM    6  N   UNK N   1      36.304  14.269  14.270  0.00  0.00    -0.308 N 
HETATM    7  C   UNK N   1      36.860  13.901  15.572  0.00  0.00     0.264 C 
HETATM    8  H   UNK N   1      36.210  15.214  13.901  0.00  0.00     0.166 HD
ENDROOT
BRANCH   4   9
HETATM    9  N   UNK N   1      36.599  13.668  12.071  0.00  0.00    -0.221 NA
BRANCH   9  10
HETATM   10  C   UNK N   1      35.905  14.949  11.909  0.00  0.00     0.116 C 
BRANCH  10  11
HETATM   11  C   UNK N   1      36.308  15.588  10.594  0.00  0.00     0.129 C 
HETATM   12 Cl   UNK N   1      35.171  16.898  10.208  0.00  0.00    -0.129 Cl
ENDBRANCH  10  11
ENDBRANCH   9  10
BRANCH   9  13
HETATM   13  C   UNK N   1      36.363  12.962  10.810  0.00  0.00     0.116 C 
BRANCH  13  14
HETATM   14  C   UNK N   1      37.563  12.097  10.472  0.00  0.00     0.129 C 
HETATM   15 Cl   UNK N   1      38.994  13.127  10.254  0.00  0.00    -0.129 Cl
ENDBRANCH  13  14
ENDBRANCH   9  13
ENDBRANCH   4   9
BRANCH   7  16
HETATM   16  O   UNK N   1      37.542  14.987  16.122  0.00  0.00    -0.217 OA
BRANCH  16  17
HETATM   17  O   UNK N   1      37.576  15.884  15.161  0.00  0.00    -0.248 OA
HETATM   18  H   UNK N   1      37.378  16.823  15.024  0.00  0.00     0.253 HD
ENDBRANCH  16  17
ENDBRANCH   7  16
TORSDOF 7
ENDMDL
MODEL 5
REMARK VINA RESULT:      -4.8      4.108      6.069
REMARK  7 active torsions:
REMARK  status: ('A' for Active; 'I' for Inactive)
REMARK    1  A    between atoms: P_4  and  N_10 
REMARK    2  A    between atoms: C_7  and  O_8 
REMARK    3  A    between atoms: O_8  and  O_9 
REMARK    4  A    between atoms: N_10  and  C_11 
REMARK    5  A    between atoms: N_10  and  C_14 
REMARK    6  A    between atoms: C_11  and  C_12 
REMARK    7  A    between atoms: C_14  and  C_15 
ROOT
HETATM    1  C   UNK N   1      33.159  17.212   8.544  0.00  0.00     0.083 C 
HETATM    2  C   UNK N   1      34.628  17.599   8.533  0.00  0.00     0.183 C 
HETATM    3  O   UNK N   1      35.152  17.348   9.812  0.00  0.00    -0.307 OA
HETATM    4  P   UNK N   1      35.601  15.656   9.816  0.00  0.00     0.367 P 
HETATM    5  O   UNK N   1      36.378  16.372  10.960  0.00  0.00    -0.248 OA
HETATM    6  N   UNK N   1      33.855  15.705  10.328  0.00  0.00    -0.308 N 
HETATM    7  C   UNK N   1      33.042  15.804   9.116  0.00  0.00     0.264 C 
HETATM    8  H   UNK N   1      33.506  15.671  11.285  0.00  0.00     0.166 HD
ENDROOT
BRANCH   4   9
HETATM    9  N   UNK N   1      35.554  14.378  11.126  0.00  0.00    -0.221 NA
BRANCH   9  10
HETATM   10  C   UNK N   1      36.009  14.971  12.386  0.00  0.00     0.116 C 
BRANCH  10  11
HETATM   11  C   UNK N   1      35.947  13.934  13.492  0.00  0.00     0.129 C 
HETATM   12 Cl   UNK N   1      36.843  14.533  14.905  0.00  0.00    -0.129 Cl
ENDBRANCH  10  11
ENDBRANCH   9  10
BRANCH   9  13
HETATM   13  C   UNK N   1      36.553  13.353  10.822  0.00  0.00     0.116 C 
BRANCH  13  14
HETATM   14  C   UNK N   1      35.984  12.358   9.827  0.00  0.00     0.129 C 
HETATM   15 Cl   UNK N   1      34.484  11.662  10.478  0.00  0.00    -0.129 Cl
ENDBRANCH  13  14
ENDBRANCH   9  13
ENDBRANCH   4   9
BRANCH   7  16
HETATM   16  O   UNK N   1      31.708  15.526   9.414  0.00  0.00    -0.217 OA
BRANCH  16  17
HETATM   17  O   UNK N   1      31.714  15.164  10.677  0.00  0.00    -0.248 OA
HETATM   18  H   UNK N   1      32.108  14.485  11.246  0.00  0.00     0.253 HD
ENDBRANCH  16  17
ENDBRANCH   7  16
TORSDOF 7
ENDMDL
MODEL 6
REMARK VINA RESULT:      -4.7      9.515     10.777
REMARK  7 active torsions:
REMARK  status: ('A' for Active; 'I' for Inactive)
REMARK    1  A    between atoms: P_4  and  N_10 
REMARK    2  A    between atoms: C_7  and  O_8 
REMARK    3  A    between atoms: O_8  and  O_9 
REMARK    4  A    between atoms: N_10  and  C_11 
REMARK    5  A    between atoms: N_10  and  C_14 
REMARK    6  A    between atoms: C_11  and  C_12 
REMARK    7  A    between atoms: C_14  and  C_15 
ROOT
HETATM    1  C   UNK N   1      22.359  11.957  11.967  0.00  0.00     0.083 C 
HETATM    2  C   UNK N   1      21.131  12.279  11.132  0.00  0.00     0.183 C 
HETATM    3  O   UNK N   1      21.403  13.443  10.393  0.00  0.00    -0.307 OA
HETATM    4  P   UNK N   1      22.239  12.905   8.952  0.00  0.00     0.367 P 
HETATM    5  O   UNK N   1      21.652  14.321   8.679  0.00  0.00    -0.248 OA
HETATM    6  N   UNK N   1      23.533  13.164  10.206  0.00  0.00    -0.308 N 
HETATM    7  C   UNK N   1      23.575  11.969  11.049  0.00  0.00     0.264 C 
HETATM    8  H   UNK N   1      24.121  13.990  10.304  0.00  0.00     0.166 HD
ENDROOT
BRANCH   4   9
HETATM    9  N   UNK N   1      23.582  13.655   7.961  0.00  0.00    -0.221 NA
BRANCH   9  10
HETATM   10  C   UNK N   1      23.001  14.302   6.782  0.00  0.00     0.116 C 
BRANCH  10  11
HETATM   11  C   UNK N   1      23.904  15.427   6.315  0.00  0.00     0.129 C 
HETATM   12 Cl   UNK N   1      22.909  16.824   5.854  0.00  0.00    -0.129 Cl
ENDBRANCH  10  11
ENDBRANCH   9  10
BRANCH   9  13
HETATM   13  C   UNK N   1      24.421  12.586   7.416  0.00  0.00     0.116 C 
BRANCH  13  14
HETATM   14  C   UNK N   1      23.553  11.564   6.705  0.00  0.00     0.129 C 
HETATM   15 Cl   UNK N   1      23.903   9.943   7.345  0.00  0.00    -0.129 Cl
ENDBRANCH  13  14
ENDBRANCH   9  13
ENDBRANCH   4   9
BRANCH   7  16
HETATM   16  O   UNK N   1      24.743  11.968  11.814  0.00  0.00    -0.217 OA
BRANCH  16  17
HETATM   17  O   UNK N   1      25.494  12.906  11.281  0.00  0.00    -0.248 OA
HETATM   18  H   UNK N   1      26.279  13.431  11.498  0.00  0.00     0.253 HD
ENDBRANCH  16  17
ENDBRANCH   7  16
TORSDOF 7
ENDMDL
MODEL 7
REMARK VINA RESULT:      -4.7      3.879      5.861
REMARK  7 active torsions:
REMARK  status: ('A' for Active; 'I' for Inactive)
REMARK    1  A    between atoms: P_4  and  N_10 
REMARK    2  A    between atoms: C_7  and  O_8 
REMARK    3  A    between atoms: O_8  and  O_9 
REMARK    4  A    between atoms: N_10  and  C_11 
REMARK    5  A    between atoms: N_10  and  C_14 
REMARK    6  A    between atoms: C_11  and  C_12 
REMARK    7  A    between atoms: C_14  and  C_15 
ROOT
HETATM    1  C   UNK N   1      32.407  17.434   7.794  0.00  0.00     0.083 C 
HETATM    2  C   UNK N   1      31.966  16.071   8.300  0.00  0.00     0.183 C 
HETATM    3  O   UNK N   1      33.046  15.184   8.154  0.00  0.00    -0.307 OA
HETATM    4  P   UNK N   1      34.029  15.395   9.587  0.00  0.00     0.367 P 
HETATM    5  O   UNK N   1      34.377  14.017   8.953  0.00  0.00    -0.248 OA
HETATM    6  N   UNK N   1      34.628  16.630   8.391  0.00  0.00    -0.308 N 
HETATM    7  C   UNK N   1      33.732  17.783   8.462  0.00  0.00     0.264 C 
HETATM    8  H   UNK N   1      35.440  16.535   7.782  0.00  0.00     0.166 HD
ENDROOT
BRANCH   4   9
HETATM    9  N   UNK N   1      35.839  15.333   9.853  0.00  0.00    -0.221 NA
BRANCH   9  10
HETATM   10  C   UNK N   1      36.297  13.951   9.694  0.00  0.00     0.116 C 
BRANCH  10  11
HETATM   11  C   UNK N   1      37.759  13.937   9.290  0.00  0.00     0.129 C 
HETATM   12 Cl   UNK N   1      38.703  13.097  10.539  0.00  0.00    -0.129 Cl
ENDBRANCH  10  11
ENDBRANCH   9  10
BRANCH   9  13
HETATM   13  C   UNK N   1      36.122  15.654  11.253  0.00  0.00     0.116 C 
BRANCH  13  14
HETATM   14  C   UNK N   1      35.552  14.575  12.154  0.00  0.00     0.129 C 
HETATM   15 Cl   UNK N   1      36.378  14.617  13.726  0.00  0.00    -0.129 Cl
ENDBRANCH  13  14
ENDBRANCH   9  13
ENDBRANCH   4   9
BRANCH   7  16
HETATM   16  O   UNK N   1      34.311  18.876   7.815  0.00  0.00    -0.217 OA
BRANCH  16  17
HETATM   17  O   UNK N   1      35.338  19.206   8.567  0.00  0.00    -0.248 OA
HETATM   18  H   UNK N   1      36.175  19.688   8.498  0.00  0.00     0.253 HD
ENDBRANCH  16  17
ENDBRANCH   7  16
TORSDOF 7
ENDMDL
MODEL 8
REMARK VINA RESULT:      -4.5      3.389      4.857
REMARK  7 active torsions:
REMARK  status: ('A' for Active; 'I' for Inactive)
REMARK    1  A    between atoms: P_4  and  N_10 
REMARK    2  A    between atoms: C_7  and  O_8 
REMARK    3  A    between atoms: O_8  and  O_9 
REMARK    4  A    between atoms: N_10  and  C_11 
REMARK    5  A    between atoms: N_10  and  C_14 
REMARK    6  A    between atoms: C_11  and  C_12 
REMARK    7  A    between atoms: C_14  and  C_15 
ROOT
HETATM    1  C   UNK N   1      32.584  17.570   7.162  0.00  0.00     0.083 C 
HETATM    2  C   UNK N   1      31.722  16.405   7.620  0.00  0.00     0.183 C 
HETATM    3  O   UNK N   1      32.535  15.261   7.680  0.00  0.00    -0.307 OA
HETATM    4  P   UNK N   1      33.301  15.307   9.253  0.00  0.00     0.367 P 
HETATM    5  O   UNK N   1      33.363  13.846   8.720  0.00  0.00    -0.248 OA
HETATM    6  N   UNK N   1      34.388  16.260   8.146  0.00  0.00    -0.308 N 
HETATM    7  C   UNK N   1      33.833  17.608   8.036  0.00  0.00     0.264 C 
HETATM    8  H   UNK N   1      35.231  15.916   7.686  0.00  0.00     0.166 HD
ENDROOT
BRANCH   4   9
HETATM    9  N   UNK N   1      34.964  14.796   9.823  0.00  0.00    -0.221 NA
BRANCH   9  10
HETATM   10  C   UNK N   1      35.535  15.865  10.647  0.00  0.00     0.116 C 
BRANCH  10  11
HETATM   11  C   UNK N   1      35.939  15.311  11.999  0.00  0.00     0.129 C 
HETATM   12 Cl   UNK N   1      35.003  13.837  12.331  0.00  0.00    -0.129 Cl
ENDBRANCH  10  11
ENDBRANCH   9  10
BRANCH   9  13
HETATM   13  C   UNK N   1      35.855  14.713   8.664  0.00  0.00     0.116 C 
BRANCH  13  14
HETATM   14  C   UNK N   1      36.953  13.700   8.932  0.00  0.00     0.129 C 
HETATM   15 Cl   UNK N   1      36.233  12.184   9.513  0.00  0.00    -0.129 Cl
ENDBRANCH  13  14
ENDBRANCH   9  13
ENDBRANCH   4   9
BRANCH   7  16
HETATM   16  O   UNK N   1      34.777  18.467   7.470  0.00  0.00    -0.217 OA
BRANCH  16  17
HETATM   17  O   UNK N   1      35.248  19.162   8.482  0.00  0.00    -0.248 OA
HETATM   18  H   UNK N   1      35.893  19.071   9.200  0.00  0.00     0.253 HD
ENDBRANCH  16  17
ENDBRANCH   7  16
TORSDOF 7
ENDMDL
MODEL 9
REMARK VINA RESULT:      -4.4     11.796     13.316
REMARK  7 active torsions:
REMARK  status: ('A' for Active; 'I' for Inactive)
REMARK    1  A    between atoms: P_4  and  N_10 
REMARK    2  A    between atoms: C_7  and  O_8 
REMARK    3  A    between atoms: O_8  and  O_9 
REMARK    4  A    between atoms: N_10  and  C_11 
REMARK    5  A    between atoms: N_10  and  C_14 
REMARK    6  A    between atoms: C_11  and  C_12 
REMARK    7  A    between atoms: C_14  and  C_15 
ROOT
HETATM    1  C   UNK N   1      20.503  19.753   1.783  0.00  0.00     0.083 C 
HETATM    2  C   UNK N   1      21.191  20.504   2.910  0.00  0.00     0.183 C 
HETATM    3  O   UNK N   1      20.710  19.995   4.127  0.00  0.00    -0.307 OA
HETATM    4  P   UNK N   1      21.689  18.586   4.472  0.00  0.00     0.367 P 
HETATM    5  O   UNK N   1      21.034  19.064   5.801  0.00  0.00    -0.248 OA
HETATM    6  N   UNK N   1      20.305  17.988   3.451  0.00  0.00    -0.308 N 
HETATM    7  C   UNK N   1      20.640  18.259   2.053  0.00  0.00     0.264 C 
HETATM    8  H   UNK N   1      19.452  17.545   3.791  0.00  0.00     0.166 HD
ENDROOT
BRANCH   4   9
HETATM    9  N   UNK N   1      21.297  16.984   5.266  0.00  0.00    -0.221 NA
BRANCH   9  10
HETATM   10  C   UNK N   1      20.858  17.229   6.642  0.00  0.00     0.116 C 
BRANCH  10  11
HETATM   11  C   UNK N   1      20.207  15.979   7.204  0.00  0.00     0.129 C 
HETATM   12 Cl   UNK N   1      20.677  15.789   8.907  0.00  0.00    -0.129 Cl
ENDBRANCH  10  11
ENDBRANCH   9  10
BRANCH   9  13
HETATM   13  C   UNK N   1      22.532  16.212   5.408  0.00  0.00     0.116 C 
BRANCH  13  14
HETATM   14  C   UNK N   1      22.634  15.193   4.288  0.00  0.00     0.129 C 
HETATM   15 Cl   UNK N   1      21.016  14.560   3.915  0.00  0.00    -0.129 Cl
ENDBRANCH  13  14
ENDBRANCH   9  13
ENDBRANCH   4   9
BRANCH   7  16
HETATM   16  O   UNK N   1      19.783  17.548   1.212  0.00  0.00    -0.217 OA
BRANCH  16  17
HETATM   17  O   UNK N   1      20.279  17.716   0.007  0.00  0.00    -0.248 OA
HETATM   18  H   UNK N   1      20.019  18.083  -0.851  0.00  0.00     0.253 HD
ENDBRANCH  16  17
ENDBRANCH   7  16
TORSDOF 7
ENDMDL
