REMARK  7 active torsions:
REMARK  status: ('A' for Active; 'I' for Inactive)
REMARK    1  A    between atoms: O_2  and  C_3 
REMARK    2  A    between atoms: C_6  and  N_23 
REMARK    3  A    between atoms: C_8  and  C_9 
REMARK    4  A    between atoms: C_9  and  N_10 
REMARK    5  A    between atoms: C_11  and  N_10 
REMARK    6  A    between atoms: C_16  and  C_17 
REMARK    7  A    between atoms: C_24  and  C_29 
ROOT
HETATM    1  C   UNK N   1       6.780   1.608   0.654  0.00  0.00     0.076 A 
HETATM    2  C   UNK N   1       7.976   0.877   0.563  0.00  0.00     0.039 A 
HETATM    3  C   UNK N   1       7.948  -0.487   0.277  0.00  0.00     0.034 A 
HETATM    4  C   UNK N   1       6.732  -1.145   0.054  0.00  0.00     0.057 A 
HETATM    5  C   UNK N   1       5.543  -0.412   0.116  0.00  0.00     0.043 A 
HETATM    6  C   UNK N   1       5.558   0.950   0.424  0.00  0.00    -0.005 A 
ENDROOT
BRANCH   6   7
HETATM    7  C   UNK N   1       4.264   1.677   0.536  0.00  0.00     0.156 C 
BRANCH   7   8
HETATM    8  N   UNK N   1       3.657   1.800  -0.785  0.00  0.00    -0.411 N 
HETATM    9  H   UNK N   1       3.923   1.240  -1.594  0.00  0.00     0.154 HD
BRANCH   8  10
HETATM   10  C   UNK N   1       2.613   2.832  -0.802  0.00  0.00     0.103 C 
HETATM   11  C   UNK N   1       1.302   2.266  -0.262  0.00  0.00     0.029 C 
HETATM   12  C   UNK N   1       0.220   3.338  -0.294  0.00  0.00     0.021 C 
HETATM   13  C   UNK N   1       0.702   4.569   0.470  0.00  0.00     0.114 C 
HETATM   14  N   UNK N   1       1.911   5.108  -0.151  0.00  0.00    -0.411 N 
HETATM   15  C   UNK N   1       2.989   4.125  -0.029  0.00  0.00     0.132 C 
HETATM   16  H   UNK N   1       1.990   6.022  -0.598  0.00  0.00     0.153 HD
BRANCH  15  17
HETATM   17  C   UNK N   1       4.306   4.754  -0.414  0.00  0.00    -0.034 A 
HETATM   18  C   UNK N   1       4.796   5.818   0.355  0.00  0.00     0.009 A 
HETATM   19  C   UNK N   1       6.029   6.402   0.050  0.00  0.00     0.001 A 
HETATM   20  C   UNK N   1       6.782   5.924  -1.026  0.00  0.00     0.000 A 
HETATM   21  C   UNK N   1       6.302   4.863  -1.798  0.00  0.00     0.001 A 
HETATM   22  C   UNK N   1       5.069   4.280  -1.494  0.00  0.00     0.009 A 
ENDBRANCH  15  17
ENDBRANCH   8  10
ENDBRANCH   7   8
ENDBRANCH   6   7
BRANCH   1  23
HETATM   23  O   UNK N   1       6.789   2.928   0.964  0.00  0.00    -0.355 OA
HETATM   24  C   UNK N   1       7.944   3.632   1.224  0.00  0.00     0.210 C 
ENDBRANCH   1  23
BRANCH   4  25
HETATM   25  N   UNK N   1       6.676  -2.564  -0.177  0.00  0.00    -0.221 N 
HETATM   26  C   UNK N   1       7.625  -3.514  -0.024  0.00  0.00     0.223 A 
HETATM   27  N   UNK N   1       7.100  -4.720  -0.308  0.00  0.00    -0.266 N 
HETATM   28  N   UNK N   1       5.834  -4.496  -0.634  0.00  0.00    -0.007 NA
ATOM     29  HN  UNK N   1       7.578  -5.621  -0.279  1.00  0.00     0.185 HD
HETATM   30  N   UNK N   1       5.576  -3.200  -0.547  0.00  0.00     0.001 NA
BRANCH  26  31
HETATM   31  C   UNK N   1       9.036  -3.311   0.450  0.00  0.00     0.451 C 
HETATM   32  F   UNK N   1       9.026  -2.694   1.689  0.00  0.00    -0.163 F 
HETATM   33  F   UNK N   1       9.672  -4.531   0.575  0.00  0.00    -0.163 F 
HETATM   34  F   UNK N   1       9.736  -2.536  -0.455  0.00  0.00    -0.163 F 
ENDBRANCH  26  31
ENDBRANCH   4  25
TORSDOF 7
