MODEL 1
REMARK VINA RESULT:      -6.9      0.000      0.000
REMARK  5 active torsions:
REMARK  status: ('A' for Active; 'I' for Inactive)
REMARK    1  A    between atoms: C_2  and  C_3 
REMARK    2  A    between atoms: C_3  and  N_4 
REMARK    3  A    between atoms: N_9  and  C_12 
REMARK    4  A    between atoms: C_12  and  C_13 
REMARK    5  A    between atoms: C_16  and  C_19 
ROOT
HETATM    1  N   UNK N   1      29.731  22.707  -5.896  0.00  0.00    -0.283 N 
HETATM    2  C   UNK N   1      29.320  23.797  -5.202  0.00  0.00     0.145 A 
HETATM    3  C   UNK N   1      29.625  23.995  -3.905  0.00  0.00     0.147 A 
HETATM    4  C   UNK N   1      30.402  23.080  -3.215  0.00  0.00     0.282 A 
HETATM    5  O   UNK N   1      30.687  23.268  -2.043  0.00  0.00    -0.265 OA
HETATM    6  N   UNK N   1      30.840  21.950  -3.891  0.00  0.00    -0.264 N 
HETATM    7  C   UNK N   1      30.501  21.761  -5.232  0.00  0.00     0.333 A 
HETATM    8  O   UNK N   1      30.881  20.763  -5.823  0.00  0.00    -0.246 OA
HETATM    9  N   UNK N   1      29.066  25.138  -3.473  0.00  0.00    -0.338 N 
HETATM   10  C   UNK N   1      28.422  25.614  -4.573  0.00  0.00     0.092 A 
HETATM   11  N   UNK N   1      28.566  24.809  -5.656  0.00  0.00    -0.329 N 
ATOM     12  HN  UNK N   1      28.189  24.941  -6.595  1.00  0.00     0.168 HD
HETATM   13  H   UNK N   1      29.111  25.536  -2.574  0.00  0.00     0.167 HD
ENDROOT
BRANCH  10  14
HETATM   14  C   UNK N   1      27.592  26.862  -4.578  0.00  0.00     0.023 C 
HETATM   15  C   UNK N   1      26.467  26.845  -3.544  0.00  0.00     0.022 C 
HETATM   16  C   UNK N   1      25.513  27.880  -4.104  0.00  0.00    -0.013 C 
HETATM   17  C   UNK N   1      26.223  29.270  -4.095  0.00  0.00     0.009 C 
HETATM   18  C   UNK N   1      25.428  27.381  -5.537  0.00  0.00     0.010 C 
HETATM   19  C   UNK N   1      27.592  29.206  -4.843  0.00  0.00    -0.013 C 
HETATM   20  C   UNK N   1      28.428  28.093  -4.250  0.00  0.00     0.022 C 
HETATM   21  C   UNK N   1      27.368  28.618  -6.226  0.00  0.00     0.010 C 
HETATM   22  C   UNK N   1      26.896  27.194  -5.923  0.00  0.00     0.002 C 
ENDBRANCH  10  14
BRANCH   1  23
HETATM   23  C   UNK N   1      29.345  22.523  -7.296  0.00  0.00     0.135 C 
BRANCH  23  24
HETATM   24  C   UNK N   1      28.010  21.802  -7.399  0.00  0.00     0.016 C 
HETATM   25  C   UNK N   1      28.200  20.497  -8.143  0.00  0.00     0.006 C 
ENDBRANCH  23  24
ENDBRANCH   1  23
BRANCH   6  26
HETATM   26  C   UNK N   1      31.675  20.958  -3.208  0.00  0.00     0.137 C 
BRANCH  26  27
HETATM   27  C   UNK N   1      33.149  21.314  -3.314  0.00  0.00     0.016 C 
HETATM   28  C   UNK N   1      33.925  20.100  -3.779  0.00  0.00     0.006 C 
ENDBRANCH  26  27
ENDBRANCH   6  26
TORSDOF 5
ENDMDL
MODEL 2
REMARK VINA RESULT:      -6.6     12.306     16.374
REMARK  5 active torsions:
REMARK  status: ('A' for Active; 'I' for Inactive)
REMARK    1  A    between atoms: C_2  and  C_3 
REMARK    2  A    between atoms: C_3  and  N_4 
REMARK    3  A    between atoms: N_9  and  C_12 
REMARK    4  A    between atoms: C_12  and  C_13 
REMARK    5  A    between atoms: C_16  and  C_19 
ROOT
HETATM    1  N   UNK N   1      30.585  16.866   5.764  0.00  0.00    -0.283 N 
HETATM    2  C   UNK N   1      31.287  16.691   6.912  0.00  0.00     0.145 A 
HETATM    3  C   UNK N   1      30.889  17.195   8.096  0.00  0.00     0.147 A 
HETATM    4  C   UNK N   1      29.711  17.917   8.195  0.00  0.00     0.282 A 
HETATM    5  O   UNK N   1      29.347  18.362   9.272  0.00  0.00    -0.265 OA
HETATM    6  N   UNK N   1      28.966  18.119   7.042  0.00  0.00    -0.264 N 
HETATM    7  C   UNK N   1      29.406  17.596   5.824  0.00  0.00     0.333 A 
HETATM    8  O   UNK N   1      28.753  17.781   4.809  0.00  0.00    -0.246 OA
HETATM    9  N   UNK N   1      31.786  16.890   9.048  0.00  0.00    -0.338 N 
HETATM   10  C   UNK N   1      32.731  16.175   8.379  0.00  0.00     0.092 A 
HETATM   11  N   UNK N   1      32.446  16.033   7.059  0.00  0.00    -0.329 N 
ATOM     12  HN  UNK N   1      32.986  15.542   6.346  1.00  0.00     0.168 HD
HETATM   13  H   UNK N   1      31.765  17.127  10.003  0.00  0.00     0.167 HD
ENDROOT
BRANCH  10  14
HETATM   14  C   UNK N   1      33.984  15.651   9.012  0.00  0.00     0.023 C 
HETATM   15  C   UNK N   1      34.981  15.082   8.004  0.00  0.00     0.022 C 
HETATM   16  C   UNK N   1      35.826  14.178   8.877  0.00  0.00    -0.013 C 
HETATM   17  C   UNK N   1      36.575  15.055   9.929  0.00  0.00     0.009 C 
HETATM   18  C   UNK N   1      34.716  13.411   9.577  0.00  0.00     0.010 C 
HETATM   19  C   UNK N   1      35.574  15.947  10.730  0.00  0.00    -0.013 C 
HETATM   20  C   UNK N   1      34.737  16.748   9.757  0.00  0.00     0.022 C 
HETATM   21  C   UNK N   1      34.481  15.062  11.306  0.00  0.00     0.010 C 
HETATM   22  C   UNK N   1      33.781  14.522  10.056  0.00  0.00     0.002 C 
ENDBRANCH  10  14
BRANCH   1  23
HETATM   23  C   UNK N   1      31.078  16.325   4.497  0.00  0.00     0.135 C 
BRANCH  23  24
HETATM   24  C   UNK N   1      32.017  17.308   3.817  0.00  0.00     0.016 C 
HETATM   25  C   UNK N   1      33.095  16.544   3.077  0.00  0.00     0.006 C 
ENDBRANCH  23  24
ENDBRANCH   1  23
BRANCH   6  26
HETATM   26  C   UNK N   1      27.707  18.865   7.098  0.00  0.00     0.137 C 
BRANCH  26  27
HETATM   27  C   UNK N   1      27.921  20.331   6.760  0.00  0.00     0.016 C 
HETATM   28  C   UNK N   1      26.910  20.758   5.716  0.00  0.00     0.006 C 
ENDBRANCH  26  27
ENDBRANCH   6  26
TORSDOF 5
ENDMDL
MODEL 3
REMARK VINA RESULT:      -6.6     17.276     21.370
REMARK  5 active torsions:
REMARK  status: ('A' for Active; 'I' for Inactive)
REMARK    1  A    between atoms: C_2  and  C_3 
REMARK    2  A    between atoms: C_3  and  N_4 
REMARK    3  A    between atoms: N_9  and  C_12 
REMARK    4  A    between atoms: C_12  and  C_13 
REMARK    5  A    between atoms: C_16  and  C_19 
ROOT
HETATM    1  N   UNK N   1      34.187  13.485   9.317  0.00  0.00    -0.283 N 
HETATM    2  C   UNK N   1      34.573  13.588  10.613  0.00  0.00     0.145 A 
HETATM    3  C   UNK N   1      34.962  14.752  11.169  0.00  0.00     0.147 A 
HETATM    4  C   UNK N   1      34.970  15.920  10.428  0.00  0.00     0.282 A 
HETATM    5  O   UNK N   1      35.312  16.976  10.938  0.00  0.00    -0.265 OA
HETATM    6  N   UNK N   1      34.583  15.855   9.096  0.00  0.00    -0.264 N 
HETATM    7  C   UNK N   1      34.195  14.635   8.539  0.00  0.00     0.333 A 
HETATM    8  O   UNK N   1      33.862  14.578   7.366  0.00  0.00    -0.246 OA
HETATM    9  N   UNK N   1      35.312  14.551  12.450  0.00  0.00    -0.338 N 
HETATM   10  C   UNK N   1      35.106  13.218  12.634  0.00  0.00     0.092 A 
HETATM   11  N   UNK N   1      34.645  12.600  11.516  0.00  0.00    -0.329 N 
ATOM     12  HN  UNK N   1      34.410  11.615  11.393  1.00  0.00     0.168 HD
HETATM   13  H   UNK N   1      35.640  15.211  13.103  0.00  0.00     0.167 HD
ENDROOT
BRANCH  10  14
HETATM   14  C   UNK N   1      35.410  12.495  13.910  0.00  0.00     0.023 C 
HETATM   15  C   UNK N   1      36.098  11.148  13.694  0.00  0.00     0.022 C 
HETATM   16  C   UNK N   1      35.797  10.432  14.995  0.00  0.00    -0.013 C 
HETATM   17  C   UNK N   1      36.490  11.202  16.162  0.00  0.00     0.009 C 
HETATM   18  C   UNK N   1      34.298  10.678  15.064  0.00  0.00     0.010 C 
HETATM   19  C   UNK N   1      36.078  12.708  16.163  0.00  0.00    -0.013 C 
HETATM   20  C   UNK N   1      36.355  13.298  14.797  0.00  0.00     0.022 C 
HETATM   21  C   UNK N   1      34.562  12.802  16.155  0.00  0.00     0.010 C 
HETATM   22  C   UNK N   1      34.185  12.181  14.807  0.00  0.00     0.002 C 
ENDBRANCH  10  14
BRANCH   1  23
HETATM   23  C   UNK N   1      33.804  12.191   8.752  0.00  0.00     0.135 C 
BRANCH  23  24
HETATM   24  C   UNK N   1      35.019  11.457   8.206  0.00  0.00     0.016 C 
HETATM   25  C   UNK N   1      35.141  10.110   8.886  0.00  0.00     0.006 C 
ENDBRANCH  23  24
ENDBRANCH   1  23
BRANCH   6  26
HETATM   26  C   UNK N   1      34.562  17.067   8.273  0.00  0.00     0.137 C 
BRANCH  26  27
HETATM   27  C   UNK N   1      33.249  17.816   8.431  0.00  0.00     0.016 C 
HETATM   28  C   UNK N   1      32.379  17.562   7.218  0.00  0.00     0.006 C 
ENDBRANCH  26  27
ENDBRANCH   6  26
TORSDOF 5
ENDMDL
MODEL 4
REMARK VINA RESULT:      -6.5      1.804      3.944
REMARK  5 active torsions:
REMARK  status: ('A' for Active; 'I' for Inactive)
REMARK    1  A    between atoms: C_2  and  C_3 
REMARK    2  A    between atoms: C_3  and  N_4 
REMARK    3  A    between atoms: N_9  and  C_12 
REMARK    4  A    between atoms: C_12  and  C_13 
REMARK    5  A    between atoms: C_16  and  C_19 
ROOT
HETATM    1  N   UNK N   1      30.043  21.881  -5.580  0.00  0.00    -0.283 N 
HETATM    2  C   UNK N   1      28.988  22.715  -5.754  0.00  0.00     0.145 A 
HETATM    3  C   UNK N   1      28.026  22.496  -6.673  0.00  0.00     0.147 A 
HETATM    4  C   UNK N   1      28.069  21.376  -7.485  0.00  0.00     0.282 A 
HETATM    5  O   UNK N   1      27.191  21.174  -8.308  0.00  0.00    -0.265 OA
HETATM    6  N   UNK N   1      29.135  20.499  -7.338  0.00  0.00    -0.264 N 
HETATM    7  C   UNK N   1      30.125  20.754  -6.387  0.00  0.00     0.333 A 
HETATM    8  O   UNK N   1      31.066  19.985  -6.265  0.00  0.00    -0.246 OA
HETATM    9  N   UNK N   1      27.127  23.492  -6.639  0.00  0.00    -0.338 N 
HETATM   10  C   UNK N   1      27.591  24.310  -5.655  0.00  0.00     0.092 A 
HETATM   11  N   UNK N   1      28.736  23.851  -5.088  0.00  0.00    -0.329 N 
ATOM     12  HN  UNK N   1      29.279  24.272  -4.334  1.00  0.00     0.168 HD
HETATM   13  H   UNK N   1      26.322  23.606  -7.195  0.00  0.00     0.167 HD
ENDROOT
BRANCH  10  14
HETATM   14  C   UNK N   1      26.945  25.607  -5.275  0.00  0.00     0.023 C 
HETATM   15  C   UNK N   1      25.654  25.890  -6.043  0.00  0.00     0.022 C 
HETATM   16  C   UNK N   1      25.529  27.392  -5.900  0.00  0.00    -0.013 C 
HETATM   17  C   UNK N   1      25.335  27.736  -4.390  0.00  0.00     0.009 C 
HETATM   18  C   UNK N   1      26.933  27.794  -6.320  0.00  0.00     0.010 C 
HETATM   19  C   UNK N   1      26.475  27.115  -3.522  0.00  0.00    -0.013 C 
HETATM   20  C   UNK N   1      26.556  25.630  -3.801  0.00  0.00     0.022 C 
HETATM   21  C   UNK N   1      27.816  27.535  -4.100  0.00  0.00     0.010 C 
HETATM   22  C   UNK N   1      27.819  26.872  -5.480  0.00  0.00     0.002 C 
ENDBRANCH  10  14
BRANCH   1  23
HETATM   23  C   UNK N   1      31.078  22.181  -4.590  0.00  0.00     0.135 C 
BRANCH  23  24
HETATM   24  C   UNK N   1      30.690  21.644  -3.221  0.00  0.00     0.016 C 
HETATM   25  C   UNK N   1      30.471  22.802  -2.271  0.00  0.00     0.006 C 
ENDBRANCH  23  24
ENDBRANCH   1  23
BRANCH   6  26
HETATM   26  C   UNK N   1      29.219  19.293  -8.166  0.00  0.00     0.137 C 
BRANCH  26  27
HETATM   27  C   UNK N   1      29.937  19.574  -9.475  0.00  0.00     0.016 C 
HETATM   28  C   UNK N   1      30.337  18.263 -10.119  0.00  0.00     0.006 C 
ENDBRANCH  26  27
ENDBRANCH   6  26
TORSDOF 5
ENDMDL
MODEL 5
REMARK VINA RESULT:      -6.5     16.555     19.947
REMARK  5 active torsions:
REMARK  status: ('A' for Active; 'I' for Inactive)
REMARK    1  A    between atoms: C_2  and  C_3 
REMARK    2  A    between atoms: C_3  and  N_4 
REMARK    3  A    between atoms: N_9  and  C_12 
REMARK    4  A    between atoms: C_12  and  C_13 
REMARK    5  A    between atoms: C_16  and  C_19 
ROOT
HETATM    1  N   UNK N   1      34.965  12.099  11.709  0.00  0.00    -0.283 N 
HETATM    2  C   UNK N   1      34.936  13.346  11.174  0.00  0.00     0.145 A 
HETATM    3  C   UNK N   1      35.414  14.429  11.818  0.00  0.00     0.147 A 
HETATM    4  C   UNK N   1      35.983  14.309  13.074  0.00  0.00     0.282 A 
HETATM    5  O   UNK N   1      36.426  15.290  13.649  0.00  0.00    -0.265 OA
HETATM    6  N   UNK N   1      36.030  13.049  13.656  0.00  0.00    -0.264 N 
HETATM    7  C   UNK N   1      35.517  11.944  12.973  0.00  0.00     0.333 A 
HETATM    8  O   UNK N   1      35.552  10.838  13.490  0.00  0.00    -0.246 OA
HETATM    9  N   UNK N   1      35.230  15.526  11.065  0.00  0.00    -0.338 N 
HETATM   10  C   UNK N   1      34.629  15.046   9.942  0.00  0.00     0.092 A 
HETATM   11  N   UNK N   1      34.439  13.703   9.981  0.00  0.00    -0.329 N 
ATOM     12  HN  UNK N   1      34.017  13.105   9.270  1.00  0.00     0.168 HD
HETATM   13  H   UNK N   1      35.472  16.456  11.275  0.00  0.00     0.167 HD
ENDROOT
BRANCH  10  14
HETATM   14  C   UNK N   1      34.168  15.911   8.809  0.00  0.00     0.023 C 
HETATM   15  C   UNK N   1      34.561  17.379   8.968  0.00  0.00     0.022 C 
HETATM   16  C   UNK N   1      33.565  18.070   8.060  0.00  0.00    -0.013 C 
HETATM   17  C   UNK N   1      33.822  17.607   6.592  0.00  0.00     0.009 C 
HETATM   18  C   UNK N   1      32.287  17.420   8.564  0.00  0.00     0.010 C 
HETATM   19  C   UNK N   1      33.799  16.050   6.483  0.00  0.00    -0.013 C 
HETATM   20  C   UNK N   1      34.775  15.468   7.483  0.00  0.00     0.022 C 
HETATM   21  C   UNK N   1      32.506  15.534   7.092  0.00  0.00     0.010 C 
HETATM   22  C   UNK N   1      32.637  15.931   8.565  0.00  0.00     0.002 C 
ENDBRANCH  10  14
BRANCH   1  23
HETATM   23  C   UNK N   1      34.403  10.961  10.982  0.00  0.00     0.135 C 
BRANCH  23  24
HETATM   24  C   UNK N   1      35.456  10.305  10.103  0.00  0.00     0.016 C 
HETATM   25  C   UNK N   1      35.595   8.847  10.487  0.00  0.00     0.006 C 
ENDBRANCH  23  24
ENDBRANCH   1  23
BRANCH   6  26
HETATM   26  C   UNK N   1      36.633  12.869  14.979  0.00  0.00     0.137 C 
BRANCH  26  27
HETATM   27  C   UNK N   1      35.614  13.097  16.083  0.00  0.00     0.016 C 
HETATM   28  C   UNK N   1      35.499  11.844  16.925  0.00  0.00     0.006 C 
ENDBRANCH  26  27
ENDBRANCH   6  26
TORSDOF 5
ENDMDL
MODEL 6
REMARK VINA RESULT:      -6.4      2.647      5.128
REMARK  5 active torsions:
REMARK  status: ('A' for Active; 'I' for Inactive)
REMARK    1  A    between atoms: C_2  and  C_3 
REMARK    2  A    between atoms: C_3  and  N_4 
REMARK    3  A    between atoms: N_9  and  C_12 
REMARK    4  A    between atoms: C_12  and  C_13 
REMARK    5  A    between atoms: C_16  and  C_19 
ROOT
HETATM    1  N   UNK N   1      28.233  22.741  -7.474  0.00  0.00    -0.283 N 
HETATM    2  C   UNK N   1      27.478  23.793  -7.067  0.00  0.00     0.145 A 
HETATM    3  C   UNK N   1      26.206  23.979  -7.472  0.00  0.00     0.147 A 
HETATM    4  C   UNK N   1      25.598  23.076  -8.328  0.00  0.00     0.282 A 
HETATM    5  O   UNK N   1      24.442  23.242  -8.683  0.00  0.00    -0.265 OA
HETATM    6  N   UNK N   1      26.340  21.989  -8.768  0.00  0.00    -0.264 N 
HETATM    7  C   UNK N   1      27.660  21.823  -8.343  0.00  0.00     0.333 A 
HETATM    8  O   UNK N   1      28.312  20.870  -8.738  0.00  0.00    -0.246 OA
HETATM    9  N   UNK N   1      25.716  25.108  -6.934  0.00  0.00    -0.338 N 
HETATM   10  C   UNK N   1      26.750  25.580  -6.185  0.00  0.00     0.092 A 
HETATM   11  N   UNK N   1      27.849  24.785  -6.246  0.00  0.00    -0.329 N 
ATOM     12  HN  UNK N   1      28.746  24.912  -5.777  1.00  0.00     0.168 HD
HETATM   13  H   UNK N   1      24.822  25.501  -7.053  0.00  0.00     0.167 HD
ENDROOT
BRANCH  10  14
HETATM   14  C   UNK N   1      26.707  26.870  -5.424  0.00  0.00     0.023 C 
HETATM   15  C   UNK N   1      27.271  28.055  -6.206  0.00  0.00     0.022 C 
HETATM   16  C   UNK N   1      27.611  29.028  -5.096  0.00  0.00    -0.013 C 
HETATM   17  C   UNK N   1      26.290  29.446  -4.376  0.00  0.00     0.009 C 
HETATM   18  C   UNK N   1      28.392  28.094  -4.186  0.00  0.00     0.010 C 
HETATM   19  C   UNK N   1      25.494  28.194  -3.893  0.00  0.00    -0.013 C 
HETATM   20  C   UNK N   1      25.278  27.262  -5.065  0.00  0.00     0.022 C 
HETATM   21  C   UNK N   1      26.416  27.316  -3.064  0.00  0.00     0.010 C 
HETATM   22  C   UNK N   1      27.475  26.875  -4.077  0.00  0.00     0.002 C 
ENDBRANCH  10  14
BRANCH   1  23
HETATM   23  C   UNK N   1      29.620  22.602  -7.031  0.00  0.00     0.135 C 
BRANCH  23  24
HETATM   24  C   UNK N   1      29.700  21.784  -5.752  0.00  0.00     0.016 C 
HETATM   25  C   UNK N   1      30.593  20.582  -5.980  0.00  0.00     0.006 C 
ENDBRANCH  23  24
ENDBRANCH   1  23
BRANCH   6  26
HETATM   26  C   UNK N   1      25.737  20.999  -9.665  0.00  0.00     0.137 C 
BRANCH  26  27
HETATM   27  C   UNK N   1      26.029  21.326 -11.120  0.00  0.00     0.016 C 
HETATM   28  C   UNK N   1      25.327  20.322 -12.010  0.00  0.00     0.006 C 
ENDBRANCH  26  27
ENDBRANCH   6  26
TORSDOF 5
ENDMDL
MODEL 7
REMARK VINA RESULT:      -6.4     11.302     14.211
REMARK  5 active torsions:
REMARK  status: ('A' for Active; 'I' for Inactive)
REMARK    1  A    between atoms: C_2  and  C_3 
REMARK    2  A    between atoms: C_3  and  N_4 
REMARK    3  A    between atoms: N_9  and  C_12 
REMARK    4  A    between atoms: C_12  and  C_13 
REMARK    5  A    between atoms: C_16  and  C_19 
ROOT
HETATM    1  N   UNK N   1      27.554  17.780   4.747  0.00  0.00    -0.283 N 
HETATM    2  C   UNK N   1      28.764  17.192   4.917  0.00  0.00     0.145 A 
HETATM    3  C   UNK N   1      29.186  16.158   4.162  0.00  0.00     0.147 A 
HETATM    4  C   UNK N   1      28.389  15.652   3.150  0.00  0.00     0.282 A 
HETATM    5  O   UNK N   1      28.779  14.723   2.461  0.00  0.00    -0.265 OA
HETATM    6  N   UNK N   1      27.142  16.227   2.947  0.00  0.00    -0.264 N 
HETATM    7  C   UNK N   1      26.723  17.290   3.749  0.00  0.00     0.333 A 
HETATM    8  O   UNK N   1      25.622  17.789   3.574  0.00  0.00    -0.246 OA
HETATM    9  N   UNK N   1      30.404  15.763   4.568  0.00  0.00    -0.338 N 
HETATM   10  C   UNK N   1      30.691  16.614   5.591  0.00  0.00     0.092 A 
HETATM   11  N   UNK N   1      29.698  17.509   5.825  0.00  0.00    -0.329 N 
ATOM     12  HN  UNK N   1      29.668  18.249   6.527  1.00  0.00     0.168 HD
HETATM   13  H   UNK N   1      30.958  15.033   4.211  0.00  0.00     0.167 HD
ENDROOT
BRANCH  10  14
HETATM   14  C   UNK N   1      31.941  16.536   6.414  0.00  0.00     0.023 C 
HETATM   15  C   UNK N   1      32.511  15.121   6.518  0.00  0.00     0.022 C 
HETATM   16  C   UNK N   1      33.365  15.220   7.765  0.00  0.00    -0.013 C 
HETATM   17  C   UNK N   1      34.517  16.239   7.503  0.00  0.00     0.009 C 
HETATM   18  C   UNK N   1      32.350  15.854   8.703  0.00  0.00     0.010 C 
HETATM   19  C   UNK N   1      33.952  17.612   7.018  0.00  0.00    -0.013 C 
HETATM   20  C   UNK N   1      33.059  17.383   5.818  0.00  0.00     0.022 C 
HETATM   21  C   UNK N   1      32.899  18.086   8.005  0.00  0.00     0.010 C 
HETATM   22  C   UNK N   1      31.806  17.022   7.880  0.00  0.00     0.002 C 
ENDBRANCH  10  14
BRANCH   1  23
HETATM   23  C   UNK N   1      27.130  18.880   5.615  0.00  0.00     0.135 C 
BRANCH  23  24
HETATM   24  C   UNK N   1      27.574  20.219   5.048  0.00  0.00     0.016 C 
HETATM   25  C   UNK N   1      27.482  21.277   6.128  0.00  0.00     0.006 C 
ENDBRANCH  23  24
ENDBRANCH   1  23
BRANCH   6  26
HETATM   26  C   UNK N   1      26.267  15.734   1.880  0.00  0.00     0.137 C 
BRANCH  26  27
HETATM   27  C   UNK N   1      25.377  14.607   2.375  0.00  0.00     0.016 C 
HETATM   28  C   UNK N   1      24.309  14.320   1.340  0.00  0.00     0.006 C 
ENDBRANCH  26  27
ENDBRANCH   6  26
TORSDOF 5
ENDMDL
MODEL 8
REMARK VINA RESULT:      -6.3     10.869     14.218
REMARK  5 active torsions:
REMARK  status: ('A' for Active; 'I' for Inactive)
REMARK    1  A    between atoms: C_2  and  C_3 
REMARK    2  A    between atoms: C_3  and  N_4 
REMARK    3  A    between atoms: N_9  and  C_12 
REMARK    4  A    between atoms: C_12  and  C_13 
REMARK    5  A    between atoms: C_16  and  C_19 
ROOT
HETATM    1  N   UNK N   1      27.437  16.325   4.358  0.00  0.00    -0.283 N 
HETATM    2  C   UNK N   1      28.453  16.735   5.157  0.00  0.00     0.145 A 
HETATM    3  C   UNK N   1      28.430  17.905   5.828  0.00  0.00     0.147 A 
HETATM    4  C   UNK N   1      27.336  18.748   5.738  0.00  0.00     0.282 A 
HETATM    5  O   UNK N   1      27.313  19.800   6.355  0.00  0.00    -0.265 OA
HETATM    6  N   UNK N   1      26.276  18.363   4.927  0.00  0.00    -0.264 N 
HETATM    7  C   UNK N   1      26.329  17.152   4.234  0.00  0.00     0.333 A 
HETATM    8  O   UNK N   1      25.399  16.820   3.516  0.00  0.00    -0.246 OA
HETATM    9  N   UNK N   1      29.574  18.060   6.514  0.00  0.00    -0.338 N 
HETATM   10  C   UNK N   1      30.274  16.929   6.229  0.00  0.00     0.092 A 
HETATM   11  N   UNK N   1      29.604  16.091   5.398  0.00  0.00    -0.329 N 
ATOM     12  HN  UNK N   1      29.905  15.185   5.039  1.00  0.00     0.168 HD
HETATM   13  H   UNK N   1      29.842  18.814   7.087  0.00  0.00     0.167 HD
ENDROOT
BRANCH  10  14
HETATM   14  C   UNK N   1      31.662  16.659   6.728  0.00  0.00     0.023 C 
HETATM   15  C   UNK N   1      32.034  15.177   6.714  0.00  0.00     0.022 C 
HETATM   16  C   UNK N   1      33.168  15.131   7.717  0.00  0.00    -0.013 C 
HETATM   17  C   UNK N   1      34.355  15.983   7.169  0.00  0.00     0.009 C 
HETATM   18  C   UNK N   1      32.509  15.883   8.861  0.00  0.00     0.010 C 
HETATM   19  C   UNK N   1      33.890  17.430   6.813  0.00  0.00    -0.013 C 
HETATM   20  C   UNK N   1      32.711  17.352   5.867  0.00  0.00     0.022 C 
HETATM   21  C   UNK N   1      33.183  18.029   8.017  0.00  0.00     0.010 C 
HETATM   22  C   UNK N   1      31.953  17.132   8.176  0.00  0.00     0.002 C 
ENDBRANCH  10  14
BRANCH   1  23
HETATM   23  C   UNK N   1      27.525  15.061   3.627  0.00  0.00     0.135 C 
BRANCH  23  24
HETATM   24  C   UNK N   1      28.213  15.259   2.285  0.00  0.00     0.016 C 
HETATM   25  C   UNK N   1      28.926  13.982   1.893  0.00  0.00     0.006 C 
ENDBRANCH  23  24
ENDBRANCH   1  23
BRANCH   6  26
HETATM   26  C   UNK N   1      25.090  19.216   4.809  0.00  0.00     0.137 C 
BRANCH  26  27
HETATM   27  C   UNK N   1      25.253  20.231   3.691  0.00  0.00     0.016 C 
HETATM   28  C   UNK N   1      23.918  20.443   3.008  0.00  0.00     0.006 C 
ENDBRANCH  26  27
ENDBRANCH   6  26
TORSDOF 5
ENDMDL
MODEL 9
REMARK VINA RESULT:      -6.2      2.314      6.937
REMARK  5 active torsions:
REMARK  status: ('A' for Active; 'I' for Inactive)
REMARK    1  A    between atoms: C_2  and  C_3 
REMARK    2  A    between atoms: C_3  and  N_4 
REMARK    3  A    between atoms: N_9  and  C_12 
REMARK    4  A    between atoms: C_12  and  C_13 
REMARK    5  A    between atoms: C_16  and  C_19 
ROOT
HETATM    1  N   UNK N   1      27.235  23.165  -7.184  0.00  0.00    -0.283 N 
HETATM    2  C   UNK N   1      28.245  23.000  -6.294  0.00  0.00     0.145 A 
HETATM    3  C   UNK N   1      28.304  23.666  -5.123  0.00  0.00     0.147 A 
HETATM    4  C   UNK N   1      27.305  24.555  -4.767  0.00  0.00     0.282 A 
HETATM    5  O   UNK N   1      27.355  25.148  -3.701  0.00  0.00    -0.265 OA
HETATM    6  N   UNK N   1      26.255  24.753  -5.654  0.00  0.00    -0.264 N 
HETATM    7  C   UNK N   1      26.222  24.060  -6.865  0.00  0.00     0.333 A 
HETATM    8  O   UNK N   1      25.302  24.240  -7.647  0.00  0.00    -0.246 OA
HETATM    9  N   UNK N   1      29.421  23.326  -4.460  0.00  0.00    -0.338 N 
HETATM   10  C   UNK N   1      30.019  22.422  -5.283  0.00  0.00     0.092 A 
HETATM   11  N   UNK N   1      29.312  22.199  -6.420  0.00  0.00    -0.329 N 
ATOM     12  HN  UNK N   1      29.540  21.570  -7.191  1.00  0.00     0.168 HD
HETATM   13  H   UNK N   1      29.733  23.652  -3.586  0.00  0.00     0.167 HD
ENDROOT
BRANCH  10  14
HETATM   14  C   UNK N   1      31.345  21.785  -4.998  0.00  0.00     0.023 C 
HETATM   15  C   UNK N   1      32.249  22.638  -4.109  0.00  0.00     0.022 C 
HETATM   16  C   UNK N   1      33.619  22.075  -4.425  0.00  0.00    -0.013 C 
HETATM   17  C   UNK N   1      33.667  20.586  -3.959  0.00  0.00     0.009 C 
HETATM   18  C   UNK N   1      33.552  22.113  -5.943  0.00  0.00     0.010 C 
HETATM   19  C   UNK N   1      32.492  19.766  -4.579  0.00  0.00    -0.013 C 
HETATM   20  C   UNK N   1      31.184  20.459  -4.263  0.00  0.00     0.022 C 
HETATM   21  C   UNK N   1      32.500  19.958  -6.086  0.00  0.00     0.010 C 
HETATM   22  C   UNK N   1      32.207  21.453  -6.244  0.00  0.00     0.002 C 
ENDBRANCH  10  14
BRANCH   1  23
HETATM   23  C   UNK N   1      27.234  22.442  -8.456  0.00  0.00     0.135 C 
BRANCH  23  24
HETATM   24  C   UNK N   1      26.953  20.963  -8.238  0.00  0.00     0.016 C 
HETATM   25  C   UNK N   1      25.456  20.735  -8.211  0.00  0.00     0.006 C 
ENDBRANCH  23  24
ENDBRANCH   1  23
BRANCH   6  26
HETATM   26  C   UNK N   1      25.167  25.675  -5.316  0.00  0.00     0.137 C 
BRANCH  26  27
HETATM   27  C   UNK N   1      25.478  27.086  -5.785  0.00  0.00     0.016 C 
HETATM   28  C   UNK N   1      25.507  28.017  -4.591  0.00  0.00     0.006 C 
ENDBRANCH  26  27
ENDBRANCH   6  26
TORSDOF 5
ENDMDL
