REMARK  7 active torsions:
REMARK  status: ('A' for Active; 'I' for Inactive)
REMARK    1  A    between atoms: C_2  and  S_4 
REMARK    2  A    between atoms: S_4  and  C_7 
REMARK    3  A    between atoms: C_12  and  N_13 
REMARK       I    between atoms: N_13  and  C_14 
REMARK       I    between atoms: C_20  and  N_23 
REMARK    4  A    between atoms: N_23  and  C_24 
REMARK    5  A    between atoms: C_27  and  N_32 
REMARK    6  A    between atoms: C_29  and  O_30 
REMARK    7  A    between atoms: C_35  and  N_38 
ROOT
HETATM    1  N   UNK N   1      -2.634  -7.745   0.213  0.00  0.00    -0.190 N 
HETATM    2  C   UNK N   1      -1.515  -8.617   0.188  0.00  0.00     0.698 A 
HETATM    3  N   UNK N   1      -1.545  -9.965   0.009  0.00  0.00    -0.187 N 
ATOM      4  HN  UNK N   1      -2.431 -10.461  -0.084  1.00  0.00     0.185 HD
HETATM    5  C   UNK N   1      -0.344 -10.646  -0.043  0.00  0.00     0.215 A 
HETATM    6  N   UNK N   1       0.857  -9.973   0.053  0.00  0.00    -0.187 N 
ATOM      7  HN  UNK N   1       1.743 -10.475  -0.006  1.00  0.00     0.185 HD
HETATM    8  C   UNK N   1       0.832  -8.625   0.228  0.00  0.00     0.698 A 
HETATM    9  N   UNK N   1      -0.351  -8.026   0.296  0.00  0.00    -0.022 N 
ATOM     10  HN  UNK N   1      -0.354  -7.017   0.445  1.00  0.00     0.203 HD
HETATM   11  N   UNK N   1       2.003  -7.787   0.224  0.00  0.00    -0.188 N 
HETATM   12  H   UNK N   1      -2.396  -6.793   0.291  0.00  0.00     0.184 HD
HETATM   13  H   UNK N   1       2.898  -8.189   0.306  0.00  0.00     0.184 HD
ENDROOT
BRANCH  11  14
HETATM   14  C   UNK N   1       1.859  -6.342   0.098  0.00  0.00     0.082 A 
HETATM   15  C   UNK N   1       0.575  -5.768   0.166  0.00  0.00     0.035 A 
HETATM   16  C   UNK N   1       0.292  -4.464  -0.101  0.00  0.00     0.032 A 
HETATM   17  C   UNK N   1       1.311  -3.623  -0.466  0.00  0.00     0.033 A 
HETATM   18  C   UNK N   1       2.640  -4.112  -0.476  0.00  0.00     0.068 A 
HETATM   19  C   UNK N   1       2.937  -5.463  -0.188  0.00  0.00     0.097 A 
BRANCH  17  20
HETATM   20  N   UNK N   1       1.008  -2.273  -0.792  0.00  0.00    -0.381 N 
HETATM   21  C   UNK N   1      -0.298  -1.715  -0.494  0.00  0.00     0.125 C 
HETATM   22  C   UNK N   1      -0.218  -0.967   0.846  0.00  0.00     0.055 C 
HETATM   23  C   UNK N   1       1.089  -0.141   0.979  0.00  0.00     0.226 C 
HETATM   24  C   UNK N   1       2.354  -0.846   0.455  0.00  0.00     0.055 C 
HETATM   25  C   UNK N   1       2.087  -1.349  -0.942  0.00  0.00     0.125 C 
BRANCH  23  26
HETATM   26  N   UNK N   1       0.998   1.299   0.662  0.00  0.00     0.096 N 
HETATM   27  C   UNK N   1      -0.129   1.712  -0.169  0.00  0.00     0.303 C 
HETATM   28  C   UNK N   1      -0.233   3.237  -0.073  0.00  0.00     0.302 C 
HETATM   29  N   UNK N   1       1.009   3.879  -0.526  0.00  0.00     0.087 N 
HETATM   30  C   UNK N   1       2.174   3.357   0.187  0.00  0.00     0.302 C 
HETATM   31  C   UNK N   1       0.919   5.277  -0.150  0.00  0.00     0.310 C 
HETATM   32  C   UNK N   1       2.226   1.847   0.084  0.00  0.00     0.303 C 
ENDBRANCH  23  26
ENDBRANCH  17  20
BRANCH  19  33
HETATM   33  O   UNK N   1       4.238  -5.846  -0.235  0.00  0.00    -0.354 OA
HETATM   34  C   UNK N   1       4.710  -7.088   0.114  0.00  0.00     0.210 C 
ENDBRANCH  19  33
ENDBRANCH  11  14
BRANCH   1  35
HETATM   35  C   UNK N   1      -4.013  -7.980   0.149  0.00  0.00     0.070 A 
HETATM   36  C   UNK N   1      -4.494  -9.288   0.077  0.00  0.00     0.031 A 
HETATM   37  C   UNK N   1      -5.863  -9.527   0.026  0.00  0.00     0.002 A 
HETATM   38  C   UNK N   1      -6.761  -8.462   0.070  0.00  0.00     0.002 A 
HETATM   39  C   UNK N   1      -6.293  -7.149   0.132  0.00  0.00     0.026 A 
HETATM   40  C   UNK N   1      -4.920  -6.874   0.157  0.00  0.00     0.086 A 
BRANCH  40  41
HETATM   41  S   UNK N   1      -4.396  -5.097   0.120  0.00  0.00     0.181 S 
HETATM   42  O   UNK N   1      -3.317  -5.394  -0.926  0.00  0.00    -0.222 OA
HETATM   43  O   UNK N   1      -5.438  -4.828  -0.979  0.00  0.00    -0.222 OA
BRANCH  41  44
HETATM   44  C   UNK N   1      -3.861  -3.316   0.066  0.00  0.00     0.105 C 
HETATM   45  C   UNK N   1      -4.917  -2.300  -0.362  0.00  0.00     0.026 C 
HETATM   46  C   UNK N   1      -3.159  -2.854   1.324  0.00  0.00     0.026 C 
ENDBRANCH  41  44
ENDBRANCH  40  41
ENDBRANCH   1  35
TORSDOF 7
