MODEL 1
REMARK VINA RESULT:      -5.3      0.000      0.000
REMARK  0 active torsions:
REMARK  status: ('A' for Active; 'I' for Inactive)
ROOT
HETATM    1  C   UNK N   1      27.410  20.132   4.102  0.00  0.00     0.001 A 
HETATM    2  C   UNK N   1      26.691  20.954   4.960  0.00  0.00     0.002 A 
HETATM    3  C   UNK N   1      26.695  20.697   6.328  0.00  0.00     0.032 A 
HETATM    4  C   UNK N   1      27.412  19.622   6.870  0.00  0.00     0.058 A 
HETATM    5  C   UNK N   1      28.145  18.785   5.990  0.00  0.00    -0.008 A 
HETATM    6  C   UNK N   1      28.130  19.058   4.616  0.00  0.00     0.014 A 
HETATM    7  C   UNK N   1      28.945  17.628   6.366  0.00  0.00     0.015 A 
HETATM    8  C   UNK N   1      29.158  17.117   7.565  0.00  0.00     0.019 A 
HETATM    9  C   UNK N   1      28.655  17.564   8.862  0.00  0.00     0.107 A 
HETATM   10  N   UNK N   1      27.886  18.559   9.139  0.00  0.00    -0.311 N 
ATOM     11  HN  UNK N   1      27.663  18.682  10.126  1.00  0.00     0.186 HD
HETATM   12  N   UNK N   1      27.325  19.480   8.282  0.00  0.00    -0.300 N 
HETATM   13  H   UNK N   1      26.767  20.159   8.724  0.00  0.00     0.187 HD
ENDROOT
TORSDOF 0
ENDMDL
MODEL 2
REMARK VINA RESULT:      -5.2     14.669     15.507
REMARK  0 active torsions:
REMARK  status: ('A' for Active; 'I' for Inactive)
ROOT
HETATM    1  C   UNK N   1      26.591  26.325  -7.454  0.00  0.00     0.001 A 
HETATM    2  C   UNK N   1      25.561  25.925  -6.612  0.00  0.00     0.002 A 
HETATM    3  C   UNK N   1      25.254  26.686  -5.487  0.00  0.00     0.032 A 
HETATM    4  C   UNK N   1      25.960  27.855  -5.177  0.00  0.00     0.058 A 
HETATM    5  C   UNK N   1      27.011  28.260  -6.041  0.00  0.00    -0.008 A 
HETATM    6  C   UNK N   1      27.307  27.483  -7.168  0.00  0.00     0.014 A 
HETATM    7  C   UNK N   1      27.851  29.439  -5.883  0.00  0.00     0.015 A 
HETATM    8  C   UNK N   1      27.825  30.360  -4.937  0.00  0.00     0.019 A 
HETATM    9  C   UNK N   1      26.945  30.465  -3.774  0.00  0.00     0.107 A 
HETATM   10  N   UNK N   1      25.992  29.685  -3.401  0.00  0.00    -0.311 N 
ATOM     11  HN  UNK N   1      25.508  29.958  -2.546  1.00  0.00     0.186 HD
HETATM   12  N   UNK N   1      25.538  28.530  -3.999  0.00  0.00    -0.300 N 
HETATM   13  H   UNK N   1      24.790  28.096  -3.529  0.00  0.00     0.187 HD
ENDROOT
TORSDOF 0
ENDMDL
MODEL 3
REMARK VINA RESULT:      -5.1     12.251     13.567
REMARK  0 active torsions:
REMARK  status: ('A' for Active; 'I' for Inactive)
ROOT
HETATM    1  C   UNK N   1      35.372  14.144  18.055  0.00  0.00     0.001 A 
HETATM    2  C   UNK N   1      36.387  15.042  17.748  0.00  0.00     0.002 A 
HETATM    3  C   UNK N   1      36.920  15.070  16.463  0.00  0.00     0.032 A 
HETATM    4  C   UNK N   1      36.457  14.210  15.458  0.00  0.00     0.058 A 
HETATM    5  C   UNK N   1      35.421  13.294  15.775  0.00  0.00    -0.008 A 
HETATM    6  C   UNK N   1      34.896  13.279  17.074  0.00  0.00     0.014 A 
HETATM    7  C   UNK N   1      34.815  12.329  14.869  0.00  0.00     0.015 A 
HETATM    8  C   UNK N   1      35.085  12.097  13.597  0.00  0.00     0.019 A 
HETATM    9  C   UNK N   1      36.068  12.743  12.729  0.00  0.00     0.107 A 
HETATM   10  N   UNK N   1      36.900  13.686  13.002  0.00  0.00    -0.311 N 
ATOM     11  HN  UNK N   1      37.499  13.983  12.231  1.00  0.00     0.186 HD
HETATM   12  N   UNK N   1      37.093  14.349  14.194  0.00  0.00    -0.300 N 
HETATM   13  H   UNK N   1      37.793  15.041  14.166  0.00  0.00     0.187 HD
ENDROOT
TORSDOF 0
ENDMDL
MODEL 4
REMARK VINA RESULT:      -5.0      0.974      3.448
REMARK  0 active torsions:
REMARK  status: ('A' for Active; 'I' for Inactive)
ROOT
HETATM    1  C   UNK N   1      29.803  17.036   5.525  0.00  0.00     0.001 A 
HETATM    2  C   UNK N   1      29.639  16.735   6.872  0.00  0.00     0.002 A 
HETATM    3  C   UNK N   1      28.824  17.538   7.665  0.00  0.00     0.032 A 
HETATM    4  C   UNK N   1      28.156  18.652   7.138  0.00  0.00     0.058 A 
HETATM    5  C   UNK N   1      28.326  18.955   5.762  0.00  0.00    -0.008 A 
HETATM    6  C   UNK N   1      29.150  18.136   4.979  0.00  0.00     0.014 A 
HETATM    7  C   UNK N   1      27.718  20.064   5.042  0.00  0.00     0.015 A 
HETATM    8  C   UNK N   1      26.902  21.001   5.490  0.00  0.00     0.019 A 
HETATM    9  C   UNK N   1      26.373  21.197   6.839  0.00  0.00     0.107 A 
HETATM   10  N   UNK N   1      26.579  20.504   7.903  0.00  0.00    -0.311 N 
ATOM     11  HN  UNK N   1      26.100  20.831   8.742  1.00  0.00     0.186 HD
HETATM   12  N   UNK N   1      27.359  19.379   8.063  0.00  0.00    -0.300 N 
HETATM   13  H   UNK N   1      27.365  19.016   8.978  0.00  0.00     0.187 HD
ENDROOT
TORSDOF 0
ENDMDL
MODEL 5
REMARK VINA RESULT:      -4.9      6.362      7.620
REMARK  0 active torsions:
REMARK  status: ('A' for Active; 'I' for Inactive)
ROOT
HETATM    1  C   UNK N   1      33.996  16.359   5.673  0.00  0.00     0.001 A 
HETATM    2  C   UNK N   1      33.540  17.577   6.161  0.00  0.00     0.002 A 
HETATM    3  C   UNK N   1      33.739  17.903   7.500  0.00  0.00     0.032 A 
HETATM    4  C   UNK N   1      34.393  17.029   8.378  0.00  0.00     0.058 A 
HETATM    5  C   UNK N   1      34.857  15.786   7.875  0.00  0.00    -0.008 A 
HETATM    6  C   UNK N   1      34.648  15.474   6.526  0.00  0.00     0.014 A 
HETATM    7  C   UNK N   1      35.553  14.755   8.631  0.00  0.00     0.015 A 
HETATM    8  C   UNK N   1      35.897  14.746   9.907  0.00  0.00     0.019 A 
HETATM    9  C   UNK N   1      35.677  15.768  10.929  0.00  0.00     0.107 A 
HETATM   10  N   UNK N   1      35.099  16.913  10.825  0.00  0.00    -0.311 N 
ATOM     11  HN  UNK N   1      35.061  17.467  11.681  1.00  0.00     0.186 HD
HETATM   12  N   UNK N   1      34.526  17.493   9.715  0.00  0.00    -0.300 N 
HETATM   13  H   UNK N   1      34.140  18.384   9.875  0.00  0.00     0.187 HD
ENDROOT
TORSDOF 0
ENDMDL
MODEL 6
REMARK VINA RESULT:      -4.9     10.813     13.190
REMARK  0 active torsions:
REMARK  status: ('A' for Active; 'I' for Inactive)
ROOT
HETATM    1  C   UNK N   1      35.265  11.073  16.814  0.00  0.00     0.001 A 
HETATM    2  C   UNK N   1      34.437  10.270  16.040  0.00  0.00     0.002 A 
HETATM    3  C   UNK N   1      34.164  10.627  14.722  0.00  0.00     0.032 A 
HETATM    4  C   UNK N   1      34.705  11.785  14.149  0.00  0.00     0.058 A 
HETATM    5  C   UNK N   1      35.550  12.602  14.943  0.00  0.00    -0.008 A 
HETATM    6  C   UNK N   1      35.815  12.228  16.267  0.00  0.00     0.014 A 
HETATM    7  C   UNK N   1      36.201  13.836  14.524  0.00  0.00     0.015 A 
HETATM    8  C   UNK N   1      36.152  14.447  13.354  0.00  0.00     0.019 A 
HETATM    9  C   UNK N   1      35.431  14.064  12.142  0.00  0.00     0.107 A 
HETATM   10  N   UNK N   1      34.676  13.043  11.931  0.00  0.00    -0.311 N 
ATOM     11  HN  UNK N   1      34.273  12.978  10.996  1.00  0.00     0.186 HD
HETATM   12  N   UNK N   1      34.340  12.025  12.796  0.00  0.00    -0.300 N 
HETATM   13  H   UNK N   1      33.743  11.344  12.411  0.00  0.00     0.187 HD
ENDROOT
TORSDOF 0
ENDMDL
MODEL 7
REMARK VINA RESULT:      -4.8     13.244     14.650
REMARK  0 active torsions:
REMARK  status: ('A' for Active; 'I' for Inactive)
ROOT
HETATM    1  C   UNK N   1      35.352  12.416  19.276  0.00  0.00     0.001 A 
HETATM    2  C   UNK N   1      35.210  13.648  18.651  0.00  0.00     0.002 A 
HETATM    3  C   UNK N   1      35.026  13.706  17.272  0.00  0.00     0.032 A 
HETATM    4  C   UNK N   1      34.979  12.546  16.489  0.00  0.00     0.058 A 
HETATM    5  C   UNK N   1      35.125  11.289  17.132  0.00  0.00    -0.008 A 
HETATM    6  C   UNK N   1      35.310  11.249  18.520  0.00  0.00     0.014 A 
HETATM    7  C   UNK N   1      35.104   9.983  16.489  0.00  0.00     0.015 A 
HETATM    8  C   UNK N   1      34.950   9.686  15.211  0.00  0.00     0.019 A 
HETATM    9  C   UNK N   1      34.757  10.582  14.072  0.00  0.00     0.107 A 
HETATM   10  N   UNK N   1      34.691  11.867  14.048  0.00  0.00    -0.311 N 
ATOM     11  HN  UNK N   1      34.549  12.285  13.128  1.00  0.00     0.186 HD
HETATM   12  N   UNK N   1      34.786  12.756  15.097  0.00  0.00    -0.300 N 
HETATM   13  H   UNK N   1      34.705  13.702  14.837  0.00  0.00     0.187 HD
ENDROOT
TORSDOF 0
ENDMDL
MODEL 8
REMARK VINA RESULT:      -4.8     14.654     15.130
REMARK  0 active torsions:
REMARK  status: ('A' for Active; 'I' for Inactive)
ROOT
HETATM    1  C   UNK N   1      39.976  21.492   0.253  0.00  0.00     0.001 A 
HETATM    2  C   UNK N   1      40.178  22.852   0.052  0.00  0.00     0.002 A 
HETATM    3  C   UNK N   1      41.074  23.544   0.862  0.00  0.00     0.032 A 
HETATM    4  C   UNK N   1      41.786  22.902   1.883  0.00  0.00     0.058 A 
HETATM    5  C   UNK N   1      41.577  21.513   2.085  0.00  0.00    -0.008 A 
HETATM    6  C   UNK N   1      40.671  20.832   1.261  0.00  0.00     0.014 A 
HETATM    7  C   UNK N   1      42.221  20.680   3.090  0.00  0.00     0.015 A 
HETATM    8  C   UNK N   1      43.111  21.018   4.005  0.00  0.00     0.019 A 
HETATM    9  C   UNK N   1      43.708  22.324   4.275  0.00  0.00     0.107 A 
HETATM   10  N   UNK N   1      43.506  23.450   3.685  0.00  0.00    -0.311 N 
ATOM     11  HN  UNK N   1      44.039  24.240   4.047  1.00  0.00     0.186 HD
HETATM   12  N   UNK N   1      42.666  23.732   2.630  0.00  0.00    -0.300 N 
HETATM   13  H   UNK N   1      42.676  24.674   2.343  0.00  0.00     0.187 HD
ENDROOT
TORSDOF 0
ENDMDL
MODEL 9
REMARK VINA RESULT:      -4.8     14.631     15.476
REMARK  0 active torsions:
REMARK  status: ('A' for Active; 'I' for Inactive)
ROOT
HETATM    1  C   UNK N   1      27.593  30.148  -4.820  0.00  0.00     0.001 A 
HETATM    2  C   UNK N   1      26.641  29.795  -3.872  0.00  0.00     0.002 A 
HETATM    3  C   UNK N   1      25.902  28.627  -4.037  0.00  0.00     0.032 A 
HETATM    4  C   UNK N   1      26.093  27.789  -5.144  0.00  0.00     0.058 A 
HETATM    5  C   UNK N   1      27.066  28.154  -6.109  0.00  0.00    -0.008 A 
HETATM    6  C   UNK N   1      27.801  29.332  -5.927  0.00  0.00     0.014 A 
HETATM    7  C   UNK N   1      27.403  27.413  -7.317  0.00  0.00     0.015 A 
HETATM    8  C   UNK N   1      26.898  26.279  -7.767  0.00  0.00     0.019 A 
HETATM    9  C   UNK N   1      25.853  25.438  -7.185  0.00  0.00     0.107 A 
HETATM   10  N   UNK N   1      25.183  25.606  -6.099  0.00  0.00    -0.311 N 
ATOM     11  HN  UNK N   1      24.497  24.882  -5.888  1.00  0.00     0.186 HD
HETATM   12  N   UNK N   1      25.268  26.631  -5.182  0.00  0.00    -0.300 N 
HETATM   13  H   UNK N   1      24.651  26.548  -4.420  0.00  0.00     0.187 HD
ENDROOT
TORSDOF 0
ENDMDL
