MODEL 1
REMARK VINA RESULT:      -7.2      0.000      0.000
REMARK  9 active torsions:
REMARK  status: ('A' for Active; 'I' for Inactive)
REMARK    1  A    between atoms: N_32  and  C_4 
REMARK    2  A    between atoms: C_14  and  C_7 
REMARK    3  A    between atoms: C_21  and  C_8 
REMARK    4  A    between atoms: C_13  and  C_12 
REMARK    5  A    between atoms: O_34  and  C_12 
REMARK    6  A    between atoms: O_34  and  C_15 
REMARK    7  A    between atoms: C_20  and  C_17 
REMARK    8  A    between atoms: N_22  and  C_19 
REMARK    9  A    between atoms: O_33  and  C_21 
ROOT
HETATM    1  C   UNK N   1      20.830  15.172   6.829  0.00  0.00     0.128 A 
HETATM    2  C   UNK N   1      21.598  17.015   5.522  0.00  0.00     0.116 A 
HETATM    3  C   UNK N   1      22.158  14.766   7.104  0.00  0.00     0.113 A 
HETATM    4  C   UNK N   1      22.895  16.594   5.732  0.00  0.00     0.100 A 
HETATM    5  C   UNK N   1      23.193  15.513   6.496  0.00  0.00     0.101 A 
HETATM    6  C   UNK N   1      25.016  16.390   5.741  0.00  0.00     0.141 A 
HETATM    7  N   UNK N   1      20.576  16.284   6.060  0.00  0.00    -0.354 N 
ATOM      8  HN  UNK N   1      19.612  16.569   5.889  1.00  0.00     0.166 HD
HETATM    9  N   UNK N   1      24.018  17.166   5.266  0.00  0.00    -0.336 N 
ATOM     10  HN  UNK N   1      24.097  17.999   4.683  1.00  0.00     0.168 HD
HETATM   11  N   UNK N   1      24.540  15.379   6.523  0.00  0.00    -0.327 N 
ENDROOT
BRANCH   6  12
HETATM   12  C   UNK N   1      26.426  16.674   5.379  0.00  0.00     0.146 A 
HETATM   13  C   UNK N   1      27.490  17.141   6.126  0.00  0.00     0.154 A 
HETATM   14  N   UNK N   1      28.569  17.174   5.332  0.00  0.00    -0.224 N 
HETATM   15  O   UNK N   1      28.172  16.750   4.167  0.00  0.00    -0.155 OA
ATOM     16  HN  UNK N   1      29.510  17.473   5.589  1.00  0.00     0.198 HD
HETATM   17  N   UNK N   1      26.906  16.428   4.147  0.00  0.00    -0.234 N 
ATOM     18  HN  UNK N   1      26.384  16.062   3.351  1.00  0.00     0.197 HD
BRANCH  13  19
HETATM   19  N   UNK N   1      27.530  17.452   7.498  0.00  0.00    -0.382 N 
HETATM   20  H   UNK N   1      28.341  17.741   7.975  0.00  0.00     0.157 HD
HETATM   21  H   UNK N   1      26.695  17.374   8.013  0.00  0.00     0.157 HD
ENDBRANCH  13  19
ENDBRANCH   6  12
BRANCH  11  22
HETATM   22  C   UNK N   1      25.312  14.392   7.249  0.00  0.00     0.126 C 
HETATM   23  C   UNK N   1      25.517  13.159   6.382  0.00  0.00     0.027 C 
ENDBRANCH  11  22
BRANCH   2  24
HETATM   24  C   UNK N   1      21.390  18.238   4.805  0.00  0.00    -0.043 C 
HETATM   25  C   UNK N   1      21.336  19.122   3.989  0.00  0.00    -0.062 C 
BRANCH  25  26
HETATM   26  C   UNK N   1      21.471  20.159   2.968  0.00  0.00     0.114 C 
HETATM   27  C   UNK N   1      22.919  20.548   2.766  0.00  0.00     0.060 C 
HETATM   28  C   UNK N   1      20.850  19.666   1.679  0.00  0.00     0.060 C 
BRANCH  26  29
HETATM   29  O   UNK N   1      20.742  21.274   3.386  0.00  0.00    -0.378 OA
HETATM   30  H   UNK N   1      21.180  22.033   3.803  0.00  0.00     0.211 HD
ENDBRANCH  26  29
ENDBRANCH  25  26
ENDBRANCH   2  24
BRANCH   3  31
HETATM   31  O   UNK N   1      22.376  13.717   7.934  0.00  0.00    -0.347 OA
BRANCH  31  32
HETATM   32  C   UNK N   1      21.547  13.497   9.014  0.00  0.00     0.182 C 
BRANCH  32  33
HETATM   33  C   UNK N   1      22.297  13.084  10.278  0.00  0.00     0.027 C 
HETATM   34  C   UNK N   1      23.563  12.293   9.962  0.00  0.00     0.010 C 
HETATM   35  C   UNK N   1      24.369  11.997  11.231  0.00  0.00     0.020 C 
HETATM   36  C   UNK N   1      23.513  12.117  12.497  0.00  0.00     0.113 C 
HETATM   37  N   UNK N   1      22.181  11.547  12.276  0.00  0.00    -0.421 N 
HETATM   38  C   UNK N   1      21.420  12.262  11.230  0.00  0.00     0.120 C 
HETATM   39  H   UNK N   1      21.819  10.745  12.790  0.00  0.00     0.153 HD
ENDBRANCH  32  33
ENDBRANCH  31  32
ENDBRANCH   3  31
TORSDOF 9
ENDMDL
MODEL 2
REMARK VINA RESULT:      -7.2      2.248      5.178
REMARK  9 active torsions:
REMARK  status: ('A' for Active; 'I' for Inactive)
REMARK    1  A    between atoms: N_32  and  C_4 
REMARK    2  A    between atoms: C_14  and  C_7 
REMARK    3  A    between atoms: C_21  and  C_8 
REMARK    4  A    between atoms: C_13  and  C_12 
REMARK    5  A    between atoms: O_34  and  C_12 
REMARK    6  A    between atoms: O_34  and  C_15 
REMARK    7  A    between atoms: C_20  and  C_17 
REMARK    8  A    between atoms: N_22  and  C_19 
REMARK    9  A    between atoms: O_33  and  C_21 
ROOT
HETATM    1  C   UNK N   1      24.521  14.775   6.825  0.00  0.00     0.128 A 
HETATM    2  C   UNK N   1      24.919  16.724   5.506  0.00  0.00     0.116 A 
HETATM    3  C   UNK N   1      23.184  14.693   6.366  0.00  0.00     0.113 A 
HETATM    4  C   UNK N   1      23.602  16.690   5.098  0.00  0.00     0.100 A 
HETATM    5  C   UNK N   1      22.744  15.717   5.496  0.00  0.00     0.101 A 
HETATM    6  C   UNK N   1      21.721  17.093   4.184  0.00  0.00     0.141 A 
HETATM    7  N   UNK N   1      25.359  15.772   6.383  0.00  0.00    -0.354 N 
ATOM      8  HN  UNK N   1      26.323  15.802   6.714  1.00  0.00     0.166 HD
HETATM    9  N   UNK N   1      22.989  17.548   4.266  0.00  0.00    -0.336 N 
ATOM     10  HN  UNK N   1      23.393  18.361   3.802  1.00  0.00     0.168 HD
HETATM   11  N   UNK N   1      21.546  15.952   4.910  0.00  0.00    -0.327 N 
ENDROOT
BRANCH   6  12
HETATM   12  C   UNK N   1      20.707  17.831   3.390  0.00  0.00     0.146 A 
HETATM   13  C   UNK N   1      19.882  17.432   2.357  0.00  0.00     0.154 A 
HETATM   14  N   UNK N   1      19.111  18.475   2.019  0.00  0.00    -0.224 N 
HETATM   15  O   UNK N   1      19.458  19.450   2.809  0.00  0.00    -0.155 OA
ATOM     16  HN  UNK N   1      18.397  18.499   1.290  1.00  0.00     0.198 HD
HETATM   17  N   UNK N   1      20.397  19.113   3.651  0.00  0.00    -0.234 N 
ATOM     18  HN  UNK N   1      20.813  19.708   4.367  1.00  0.00     0.197 HD
BRANCH  13  19
HETATM   19  N   UNK N   1      19.750  16.155   1.781  0.00  0.00    -0.382 N 
HETATM   20  H   UNK N   1      20.372  15.784   1.113  0.00  0.00     0.157 HD
HETATM   21  H   UNK N   1      18.990  15.597   2.063  0.00  0.00     0.157 HD
ENDBRANCH  13  19
ENDBRANCH   6  12
BRANCH  11  22
HETATM   22  C   UNK N   1      20.344  15.149   5.010  0.00  0.00     0.126 C 
HETATM   23  C   UNK N   1      19.456  15.688   6.122  0.00  0.00     0.027 C 
ENDBRANCH  11  22
BRANCH   2  24
HETATM   24  C   UNK N   1      25.780  17.717   4.936  0.00  0.00    -0.043 C 
HETATM   25  C   UNK N   1      26.329  18.732   4.590  0.00  0.00    -0.062 C 
BRANCH  25  26
HETATM   26  C   UNK N   1      26.809  20.026   4.110  0.00  0.00     0.114 C 
HETATM   27  C   UNK N   1      25.906  20.582   3.032  0.00  0.00     0.060 C 
HETATM   28  C   UNK N   1      26.915  20.978   5.282  0.00  0.00     0.060 C 
BRANCH  26  29
HETATM   29  O   UNK N   1      28.094  19.848   3.597  0.00  0.00    -0.378 OA
HETATM   30  H   UNK N   1      28.431  18.964   3.379  0.00  0.00     0.211 HD
ENDBRANCH  26  29
ENDBRANCH  25  26
ENDBRANCH   2  24
BRANCH   3  31
HETATM   31  O   UNK N   1      22.409  13.652   6.753  0.00  0.00    -0.347 OA
BRANCH  31  32
HETATM   32  C   UNK N   1      22.981  12.515   7.285  0.00  0.00     0.182 C 
BRANCH  32  33
HETATM   33  C   UNK N   1      22.603  12.272   8.743  0.00  0.00     0.027 C 
HETATM   34  C   UNK N   1      21.390  13.096   9.167  0.00  0.00     0.010 C 
HETATM   35  C   UNK N   1      20.946  12.747  10.592  0.00  0.00     0.020 C 
HETATM   36  C   UNK N   1      22.060  12.061  11.389  0.00  0.00     0.113 C 
HETATM   37  N   UNK N   1      23.355  12.690  11.115  0.00  0.00    -0.421 N 
HETATM   38  C   UNK N   1      23.764  12.565   9.701  0.00  0.00     0.120 C 
HETATM   39  H   UNK N   1      23.913  13.164  11.825  0.00  0.00     0.153 HD
ENDBRANCH  32  33
ENDBRANCH  31  32
ENDBRANCH   3  31
TORSDOF 9
ENDMDL
MODEL 3
REMARK VINA RESULT:      -7.1     10.703     13.428
REMARK  9 active torsions:
REMARK  status: ('A' for Active; 'I' for Inactive)
REMARK    1  A    between atoms: N_32  and  C_4 
REMARK    2  A    between atoms: C_14  and  C_7 
REMARK    3  A    between atoms: C_21  and  C_8 
REMARK    4  A    between atoms: C_13  and  C_12 
REMARK    5  A    between atoms: O_34  and  C_12 
REMARK    6  A    between atoms: O_34  and  C_15 
REMARK    7  A    between atoms: C_20  and  C_17 
REMARK    8  A    between atoms: N_22  and  C_19 
REMARK    9  A    between atoms: O_33  and  C_21 
ROOT
HETATM    1  C   UNK N   1      36.333  14.949  13.160  0.00  0.00     0.128 A 
HETATM    2  C   UNK N   1      35.362  15.229  10.998  0.00  0.00     0.116 A 
HETATM    3  C   UNK N   1      36.034  13.565  13.156  0.00  0.00     0.113 A 
HETATM    4  C   UNK N   1      35.011  13.895  11.008  0.00  0.00     0.100 A 
HETATM    5  C   UNK N   1      35.328  13.069  12.036  0.00  0.00     0.101 A 
HETATM    6  C   UNK N   1      34.257  11.963  10.521  0.00  0.00     0.141 A 
HETATM    7  N   UNK N   1      36.005  15.746  12.087  0.00  0.00    -0.354 N 
ATOM      8  HN  UNK N   1      36.246  16.737  12.105  1.00  0.00     0.166 HD
HETATM    9  N   UNK N   1      34.359  13.222  10.045  0.00  0.00    -0.336 N 
ATOM     10  HN  UNK N   1      34.017  13.583   9.155  1.00  0.00     0.168 HD
HETATM   11  N   UNK N   1      34.867  11.832  11.735  0.00  0.00    -0.327 N 
ENDROOT
BRANCH   6  12
HETATM   12  C   UNK N   1      33.530  10.925   9.752  0.00  0.00     0.146 A 
HETATM   13  C   UNK N   1      33.960   9.761   9.145  0.00  0.00     0.154 A 
HETATM   14  N   UNK N   1      32.889   9.148   8.621  0.00  0.00    -0.224 N 
HETATM   15  O   UNK N   1      31.869   9.907   8.899  0.00  0.00    -0.155 OA
ATOM     16  HN  UNK N   1      32.878   8.265   8.109  1.00  0.00     0.198 HD
HETATM   17  N   UNK N   1      32.196  10.971   9.580  0.00  0.00    -0.234 N 
ATOM     18  HN  UNK N   1      31.563  11.697   9.917  1.00  0.00     0.197 HD
BRANCH  13  19
HETATM   19  N   UNK N   1      35.253   9.207   9.126  0.00  0.00    -0.382 N 
HETATM   20  H   UNK N   1      35.488   8.366   8.669  0.00  0.00     0.157 HD
HETATM   21  H   UNK N   1      35.969   9.690   9.598  0.00  0.00     0.157 HD
ENDBRANCH  13  19
ENDBRANCH   6  12
BRANCH  11  22
HETATM   22  C   UNK N   1      35.014  10.622  12.518  0.00  0.00     0.126 C 
HETATM   23  C   UNK N   1      33.785  10.424  13.394  0.00  0.00     0.027 C 
ENDBRANCH  11  22
BRANCH   2  24
HETATM   24  C   UNK N   1      35.095  15.992   9.815  0.00  0.00    -0.043 C 
HETATM   25  C   UNK N   1      34.749  16.813   9.005  0.00  0.00    -0.062 C 
BRANCH  25  26
HETATM   26  C   UNK N   1      34.142  17.794   8.107  0.00  0.00     0.114 C 
HETATM   27  C   UNK N   1      34.195  17.331   6.668  0.00  0.00     0.060 C 
HETATM   28  C   UNK N   1      32.717  18.052   8.549  0.00  0.00     0.060 C 
BRANCH  26  29
HETATM   29  O   UNK N   1      34.845  18.993   8.238  0.00  0.00    -0.378 OA
HETATM   30  H   UNK N   1      34.414  19.795   8.572  0.00  0.00     0.211 HD
ENDBRANCH  26  29
ENDBRANCH  25  26
ENDBRANCH   2  24
BRANCH   3  31
HETATM   31  O   UNK N   1      36.445  12.791  14.189  0.00  0.00    -0.347 OA
BRANCH  31  32
HETATM   32  C   UNK N   1      35.930  12.985  15.453  0.00  0.00     0.182 C 
BRANCH  32  33
HETATM   33  C   UNK N   1      35.639  11.682  16.195  0.00  0.00     0.027 C 
HETATM   34  C   UNK N   1      35.478  11.900  17.697  0.00  0.00     0.010 C 
HETATM   35  C   UNK N   1      35.061  10.609  18.408  0.00  0.00     0.020 C 
HETATM   36  C   UNK N   1      35.376   9.364  17.572  0.00  0.00     0.113 C 
HETATM   37  N   UNK N   1      36.679   9.499  16.915  0.00  0.00    -0.421 N 
HETATM   38  C   UNK N   1      36.723  10.624  15.958  0.00  0.00     0.120 C 
HETATM   39  H   UNK N   1      37.470   8.882  17.098  0.00  0.00     0.153 HD
ENDBRANCH  32  33
ENDBRANCH  31  32
ENDBRANCH   3  31
TORSDOF 9
ENDMDL
MODEL 4
REMARK VINA RESULT:      -7.0      8.758     13.435
REMARK  9 active torsions:
REMARK  status: ('A' for Active; 'I' for Inactive)
REMARK    1  A    between atoms: N_32  and  C_4 
REMARK    2  A    between atoms: C_14  and  C_7 
REMARK    3  A    between atoms: C_21  and  C_8 
REMARK    4  A    between atoms: C_13  and  C_12 
REMARK    5  A    between atoms: O_34  and  C_12 
REMARK    6  A    between atoms: O_34  and  C_15 
REMARK    7  A    between atoms: C_20  and  C_17 
REMARK    8  A    between atoms: N_22  and  C_19 
REMARK    9  A    between atoms: O_33  and  C_21 
ROOT
HETATM    1  C   UNK N   1      35.348  16.796  10.241  0.00  0.00     0.128 A 
HETATM    2  C   UNK N   1      35.382  14.807  11.559  0.00  0.00     0.116 A 
HETATM    3  C   UNK N   1      34.591  16.157   9.230  0.00  0.00     0.113 A 
HETATM    4  C   UNK N   1      34.697  14.156  10.554  0.00  0.00     0.100 A 
HETATM    5  C   UNK N   1      34.300  14.786   9.420  0.00  0.00     0.101 A 
HETATM    6  C   UNK N   1      33.683  12.718   9.353  0.00  0.00     0.141 A 
HETATM    7  N   UNK N   1      35.716  16.120  11.381  0.00  0.00    -0.354 N 
ATOM      8  HN  UNK N   1      36.246  16.605  12.105  1.00  0.00     0.166 HD
HETATM    9  N   UNK N   1      34.308  12.870  10.540  0.00  0.00    -0.336 N 
ATOM     10  HN  UNK N   1      34.453  12.168  11.264  1.00  0.00     0.168 HD
HETATM   11  N   UNK N   1      33.640  13.888   8.652  0.00  0.00    -0.327 N 
ENDROOT
BRANCH   6  12
HETATM   12  C   UNK N   1      33.160  11.392   8.943  0.00  0.00     0.146 A 
HETATM   13  C   UNK N   1      33.604  10.480   8.005  0.00  0.00     0.154 A 
HETATM   14  N   UNK N   1      32.801   9.408   8.059  0.00  0.00    -0.224 N 
HETATM   15  O   UNK N   1      31.920   9.665   8.982  0.00  0.00    -0.155 OA
ATOM     16  HN  UNK N   1      32.868   8.563   7.491  1.00  0.00     0.198 HD
HETATM   17  N   UNK N   1      32.098  10.829   9.546  0.00  0.00    -0.234 N 
ATOM     18  HN  UNK N   1      31.539  11.233  10.297  1.00  0.00     0.197 HD
BRANCH  13  19
HETATM   19  N   UNK N   1      34.740  10.553   7.178  0.00  0.00    -0.382 N 
HETATM   20  H   UNK N   1      34.949  11.318   6.593  0.00  0.00     0.157 HD
HETATM   21  H   UNK N   1      35.365   9.793   7.184  0.00  0.00     0.157 HD
ENDBRANCH  13  19
ENDBRANCH   6  12
BRANCH  11  22
HETATM   22  C   UNK N   1      33.000  14.123   7.374  0.00  0.00     0.126 C 
HETATM   23  C   UNK N   1      34.020  13.976   6.253  0.00  0.00     0.027 C 
ENDBRANCH  11  22
BRANCH   2  24
HETATM   24  C   UNK N   1      35.650  14.091  12.771  0.00  0.00    -0.043 C 
HETATM   25  C   UNK N   1      35.984  13.738  13.873  0.00  0.00    -0.062 C 
BRANCH  25  26
HETATM   26  C   UNK N   1      36.573  13.389  15.164  0.00  0.00     0.114 C 
HETATM   27  C   UNK N   1      35.542  13.432  16.270  0.00  0.00     0.060 C 
HETATM   28  C   UNK N   1      37.210  12.019  15.061  0.00  0.00     0.060 C 
BRANCH  26  29
HETATM   29  O   UNK N   1      37.590  14.304  15.438  0.00  0.00    -0.378 OA
HETATM   30  H   UNK N   1      38.371  14.375  14.866  0.00  0.00     0.211 HD
ENDBRANCH  26  29
ENDBRANCH  25  26
ENDBRANCH   2  24
BRANCH   3  31
HETATM   31  O   UNK N   1      34.171  16.872   8.159  0.00  0.00    -0.347 OA
BRANCH  31  32
HETATM   32  C   UNK N   1      33.403  18.005   8.333  0.00  0.00     0.182 C 
BRANCH  32  33
HETATM   33  C   UNK N   1      32.023  17.906   7.689  0.00  0.00     0.027 C 
HETATM   34  C   UNK N   1      31.032  17.147   8.568  0.00  0.00     0.010 C 
HETATM   35  C   UNK N   1      29.622  17.167   7.968  0.00  0.00     0.020 C 
HETATM   36  C   UNK N   1      29.639  17.489   6.470  0.00  0.00     0.113 C 
HETATM   37  N   UNK N   1      30.753  16.805   5.807  0.00  0.00    -0.421 N 
HETATM   38  C   UNK N   1      32.072  17.242   6.307  0.00  0.00     0.120 C 
HETATM   39  H   UNK N   1      30.629  16.103   5.078  0.00  0.00     0.153 HD
ENDBRANCH  32  33
ENDBRANCH  31  32
ENDBRANCH   3  31
TORSDOF 9
ENDMDL
MODEL 5
REMARK VINA RESULT:      -7.0      6.670     11.040
REMARK  9 active torsions:
REMARK  status: ('A' for Active; 'I' for Inactive)
REMARK    1  A    between atoms: N_32  and  C_4 
REMARK    2  A    between atoms: C_14  and  C_7 
REMARK    3  A    between atoms: C_21  and  C_8 
REMARK    4  A    between atoms: C_13  and  C_12 
REMARK    5  A    between atoms: O_34  and  C_12 
REMARK    6  A    between atoms: O_34  and  C_15 
REMARK    7  A    between atoms: C_20  and  C_17 
REMARK    8  A    between atoms: N_22  and  C_19 
REMARK    9  A    between atoms: O_33  and  C_21 
ROOT
HETATM    1  C   UNK N   1      30.870  17.405   8.564  0.00  0.00     0.128 A 
HETATM    2  C   UNK N   1      33.049  16.474   8.278  0.00  0.00     0.116 A 
HETATM    3  C   UNK N   1      30.510  17.066   7.238  0.00  0.00     0.113 A 
HETATM    4  C   UNK N   1      32.732  16.193   6.965  0.00  0.00     0.100 A 
HETATM    5  C   UNK N   1      31.511  16.465   6.439  0.00  0.00     0.101 A 
HETATM    6  C   UNK N   1      32.764  15.559   4.932  0.00  0.00     0.141 A 
HETATM    7  N   UNK N   1      32.116  17.096   9.059  0.00  0.00    -0.354 N 
ATOM      8  HN  UNK N   1      32.347  17.334  10.024  1.00  0.00     0.166 HD
HETATM    9  N   UNK N   1      33.522  15.612   6.048  0.00  0.00    -0.336 N 
ATOM     10  HN  UNK N   1      34.481  15.286   6.168  1.00  0.00     0.168 HD
HETATM   11  N   UNK N   1      31.511  16.054   5.149  0.00  0.00    -0.327 N 
ENDROOT
BRANCH   6  12
HETATM   12  C   UNK N   1      33.326  15.029   3.666  0.00  0.00     0.146 A 
HETATM   13  C   UNK N   1      33.479  13.738   3.198  0.00  0.00     0.154 A 
HETATM   14  N   UNK N   1      33.997  13.805   1.964  0.00  0.00    -0.224 N 
HETATM   15  O   UNK N   1      34.148  15.072   1.705  0.00  0.00    -0.155 OA
ATOM     16  HN  UNK N   1      34.227  13.021   1.352  1.00  0.00     0.198 HD
HETATM   17  N   UNK N   1      33.752  15.842   2.682  0.00  0.00    -0.234 N 
ATOM     18  HN  UNK N   1      33.765  16.861   2.697  1.00  0.00     0.197 HD
BRANCH  13  19
HETATM   19  N   UNK N   1      33.093  12.531   3.810  0.00  0.00    -0.382 N 
HETATM   20  H   UNK N   1      33.524  11.662   3.637  0.00  0.00     0.157 HD
HETATM   21  H   UNK N   1      32.346  12.556   4.450  0.00  0.00     0.157 HD
ENDBRANCH  13  19
ENDBRANCH   6  12
BRANCH  11  22
HETATM   22  C   UNK N   1      30.411  16.102   4.210  0.00  0.00     0.126 C 
HETATM   23  C   UNK N   1      29.614  14.807   4.283  0.00  0.00     0.027 C 
ENDBRANCH  11  22
BRANCH   2  24
HETATM   24  C   UNK N   1      34.319  16.037   8.778  0.00  0.00    -0.043 C 
HETATM   25  C   UNK N   1      35.228  15.553   9.402  0.00  0.00    -0.062 C 
BRANCH  25  26
HETATM   26  C   UNK N   1      36.248  15.057  10.323  0.00  0.00     0.114 C 
HETATM   27  C   UNK N   1      35.625  14.319  11.488  0.00  0.00     0.060 C 
HETATM   28  C   UNK N   1      37.209  14.168   9.563  0.00  0.00     0.060 C 
BRANCH  26  29
HETATM   29  O   UNK N   1      36.973  16.151  10.797  0.00  0.00    -0.378 OA
HETATM   30  H   UNK N   1      37.892  16.055  11.092  0.00  0.00     0.211 HD
ENDBRANCH  26  29
ENDBRANCH  25  26
ENDBRANCH   2  24
BRANCH   3  31
HETATM   31  O   UNK N   1      29.249  17.306   6.806  0.00  0.00    -0.347 OA
BRANCH  31  32
HETATM   32  C   UNK N   1      28.506  18.329   7.358  0.00  0.00     0.182 C 
BRANCH  32  33
HETATM   33  C   UNK N   1      27.613  19.042   6.346  0.00  0.00     0.027 C 
HETATM   34  C   UNK N   1      28.241  19.084   4.955  0.00  0.00     0.010 C 
HETATM   35  C   UNK N   1      27.280  19.688   3.925  0.00  0.00     0.020 C 
HETATM   36  C   UNK N   1      26.178  20.521   4.587  0.00  0.00     0.113 C 
HETATM   37  N   UNK N   1      26.721  21.311   5.695  0.00  0.00    -0.421 N 
HETATM   38  C   UNK N   1      27.270  20.473   6.781  0.00  0.00     0.120 C 
HETATM   39  H   UNK N   1      26.719  22.331   5.715  0.00  0.00     0.153 HD
ENDBRANCH  32  33
ENDBRANCH  31  32
ENDBRANCH   3  31
TORSDOF 9
ENDMDL
MODEL 6
REMARK VINA RESULT:      -6.9      6.153     10.197
REMARK  9 active torsions:
REMARK  status: ('A' for Active; 'I' for Inactive)
REMARK    1  A    between atoms: N_32  and  C_4 
REMARK    2  A    between atoms: C_14  and  C_7 
REMARK    3  A    between atoms: C_21  and  C_8 
REMARK    4  A    between atoms: C_13  and  C_12 
REMARK    5  A    between atoms: O_34  and  C_12 
REMARK    6  A    between atoms: O_34  and  C_15 
REMARK    7  A    between atoms: C_20  and  C_17 
REMARK    8  A    between atoms: N_22  and  C_19 
REMARK    9  A    between atoms: O_33  and  C_21 
ROOT
HETATM    1  C   UNK N   1      29.473  15.478   4.834  0.00  0.00     0.128 A 
HETATM    2  C   UNK N   1      31.838  15.195   4.678  0.00  0.00     0.116 A 
HETATM    3  C   UNK N   1      29.593  16.092   6.104  0.00  0.00     0.113 A 
HETATM    4  C   UNK N   1      31.963  15.736   5.940  0.00  0.00     0.100 A 
HETATM    5  C   UNK N   1      30.895  16.181   6.649  0.00  0.00     0.101 A 
HETATM    6  C   UNK N   1      32.701  16.477   7.796  0.00  0.00     0.141 A 
HETATM    7  N   UNK N   1      30.587  15.055   4.146  0.00  0.00    -0.354 N 
ATOM      8  HN  UNK N   1      30.478  14.631   3.224  1.00  0.00     0.166 HD
HETATM    9  N   UNK N   1      33.100  15.927   6.630  0.00  0.00    -0.336 N 
ATOM     10  HN  UNK N   1      34.051  15.706   6.337  1.00  0.00     0.168 HD
HETATM   11  N   UNK N   1      31.350  16.669   7.827  0.00  0.00    -0.327 N 
ENDROOT
BRANCH   6  12
HETATM   12  C   UNK N   1      33.687  16.779   8.862  0.00  0.00     0.146 A 
HETATM   13  C   UNK N   1      33.963  16.153  10.062  0.00  0.00     0.154 A 
HETATM   14  N   UNK N   1      34.988  16.797  10.637  0.00  0.00    -0.224 N 
HETATM   15  O   UNK N   1      35.310  17.761   9.824  0.00  0.00    -0.155 OA
ATOM     16  HN  UNK N   1      35.427  16.575  11.532  1.00  0.00     0.198 HD
HETATM   17  N   UNK N   1      34.572  17.786   8.747  0.00  0.00    -0.234 N 
ATOM     18  HN  UNK N   1      34.651  18.442   7.970  1.00  0.00     0.197 HD
BRANCH  13  19
HETATM   19  N   UNK N   1      33.382  14.990  10.599  0.00  0.00    -0.382 N 
HETATM   20  H   UNK N   1      33.193  14.859  11.557  0.00  0.00     0.157 HD
HETATM   21  H   UNK N   1      33.150  14.261   9.980  0.00  0.00     0.157 HD
ENDBRANCH  13  19
ENDBRANCH   6  12
BRANCH  11  22
HETATM   22  C   UNK N   1      30.575  17.288   8.882  0.00  0.00     0.126 C 
HETATM   23  C   UNK N   1      30.708  18.802   8.798  0.00  0.00     0.027 C 
ENDBRANCH  11  22
BRANCH   2  24
HETATM   24  C   UNK N   1      33.033  14.868   3.957  0.00  0.00    -0.043 C 
HETATM   25  C   UNK N   1      33.853  14.522   3.147  0.00  0.00    -0.062 C 
BRANCH  25  26
HETATM   26  C   UNK N   1      34.740  13.929   2.148  0.00  0.00     0.114 C 
HETATM   27  C   UNK N   1      36.050  13.490   2.765  0.00  0.00     0.060 C 
HETATM   28  C   UNK N   1      34.030  12.767   1.486  0.00  0.00     0.060 C 
BRANCH  26  29
HETATM   29  O   UNK N   1      34.985  14.887   1.163  0.00  0.00    -0.378 OA
HETATM   30  H   UNK N   1      34.264  15.256   0.630  0.00  0.00     0.211 HD
ENDBRANCH  26  29
ENDBRANCH  25  26
ENDBRANCH   2  24
BRANCH   3  31
HETATM   31  O   UNK N   1      28.488  16.574   6.719  0.00  0.00    -0.347 OA
BRANCH  31  32
HETATM   32  C   UNK N   1      27.322  16.768   6.009  0.00  0.00     0.182 C 
BRANCH  32  33
HETATM   33  C   UNK N   1      27.054  18.233   5.673  0.00  0.00     0.027 C 
HETATM   34  C   UNK N   1      27.514  18.592   4.262  0.00  0.00     0.010 C 
HETATM   35  C   UNK N   1      27.123  20.027   3.894  0.00  0.00     0.020 C 
HETATM   36  C   UNK N   1      26.830  20.878   5.134  0.00  0.00     0.113 C 
HETATM   37  N   UNK N   1      27.791  20.587   6.201  0.00  0.00    -0.421 N 
HETATM   38  C   UNK N   1      27.718  19.189   6.671  0.00  0.00     0.120 C 
HETATM   39  H   UNK N   1      28.441  21.277   6.578  0.00  0.00     0.153 HD
ENDBRANCH  32  33
ENDBRANCH  31  32
ENDBRANCH   3  31
TORSDOF 9
ENDMDL
MODEL 7
REMARK VINA RESULT:      -6.8     14.047     16.562
REMARK  9 active torsions:
REMARK  status: ('A' for Active; 'I' for Inactive)
REMARK    1  A    between atoms: N_32  and  C_4 
REMARK    2  A    between atoms: C_14  and  C_7 
REMARK    3  A    between atoms: C_21  and  C_8 
REMARK    4  A    between atoms: C_13  and  C_12 
REMARK    5  A    between atoms: O_34  and  C_12 
REMARK    6  A    between atoms: O_34  and  C_15 
REMARK    7  A    between atoms: C_20  and  C_17 
REMARK    8  A    between atoms: N_22  and  C_19 
REMARK    9  A    between atoms: O_33  and  C_21 
ROOT
HETATM    1  C   UNK N   1      27.367  22.087  -7.548  0.00  0.00     0.128 A 
HETATM    2  C   UNK N   1      29.008  20.358  -7.651  0.00  0.00     0.116 A 
HETATM    3  C   UNK N   1      28.046  22.719  -6.478  0.00  0.00     0.113 A 
HETATM    4  C   UNK N   1      29.646  20.929  -6.570  0.00  0.00     0.100 A 
HETATM    5  C   UNK N   1      29.204  22.072  -5.988  0.00  0.00     0.101 A 
HETATM    6  C   UNK N   1      30.981  21.382  -4.973  0.00  0.00     0.141 A 
HETATM    7  N   UNK N   1      27.860  20.936  -8.117  0.00  0.00    -0.354 N 
ATOM      8  HN  UNK N   1      27.364  20.508  -8.898  1.00  0.00     0.166 HD
HETATM    9  N   UNK N   1      30.762  20.492  -5.965  0.00  0.00    -0.336 N 
ATOM     10  HN  UNK N   1      31.318  19.671  -6.201  1.00  0.00     0.168 HD
HETATM   11  N   UNK N   1      30.052  22.381  -4.978  0.00  0.00    -0.327 N 
ENDROOT
BRANCH   6  12
HETATM   12  C   UNK N   1      32.110  21.195  -4.030  0.00  0.00     0.146 A 
HETATM   13  C   UNK N   1      33.464  21.019  -4.241  0.00  0.00     0.154 A 
HETATM   14  N   UNK N   1      34.063  20.947  -3.044  0.00  0.00    -0.224 N 
HETATM   15  O   UNK N   1      33.115  21.072  -2.160  0.00  0.00    -0.155 OA
ATOM     16  HN  UNK N   1      35.059  20.820  -2.864  1.00  0.00     0.198 HD
HETATM   17  N   UNK N   1      31.936  21.233  -2.697  0.00  0.00    -0.234 N 
ATOM     18  HN  UNK N   1      31.055  21.363  -2.201  1.00  0.00     0.197 HD
BRANCH  13  19
HETATM   19  N   UNK N   1      34.168  21.007  -5.459  0.00  0.00    -0.382 N 
HETATM   20  H   UNK N   1      33.750  20.850  -6.337  0.00  0.00     0.157 HD
HETATM   21  H   UNK N   1      35.139  21.164  -5.433  0.00  0.00     0.157 HD
ENDBRANCH  13  19
ENDBRANCH   6  12
BRANCH  11  22
HETATM   22  C   UNK N   1      30.002  23.538  -4.109  0.00  0.00     0.126 C 
HETATM   23  C   UNK N   1      29.124  23.238  -2.902  0.00  0.00     0.027 C 
ENDBRANCH  11  22
BRANCH   2  24
HETATM   24  C   UNK N   1      29.618  19.222  -8.277  0.00  0.00    -0.043 C 
HETATM   25  C   UNK N   1      30.286  18.466  -8.934  0.00  0.00    -0.062 C 
BRANCH  25  26
HETATM   26  C   UNK N   1      31.042  17.664  -9.894  0.00  0.00     0.114 C 
HETATM   27  C   UNK N   1      30.273  17.477 -11.183  0.00  0.00     0.060 C 
HETATM   28  C   UNK N   1      32.380  18.327 -10.144  0.00  0.00     0.060 C 
BRANCH  26  29
HETATM   29  O   UNK N   1      31.293  16.419  -9.315  0.00  0.00    -0.378 OA
HETATM   30  H   UNK N   1      31.089  16.248  -8.382  0.00  0.00     0.211 HD
ENDBRANCH  26  29
ENDBRANCH  25  26
ENDBRANCH   2  24
BRANCH   3  31
HETATM   31  O   UNK N   1      27.582  23.895  -5.995  0.00  0.00    -0.347 OA
BRANCH  31  32
HETATM   32  C   UNK N   1      26.284  24.000  -5.540  0.00  0.00     0.182 C 
BRANCH  32  33
HETATM   33  C   UNK N   1      25.972  25.352  -4.904  0.00  0.00     0.027 C 
HETATM   34  C   UNK N   1      25.310  26.312  -5.890  0.00  0.00     0.010 C 
HETATM   35  C   UNK N   1      24.888  27.615  -5.204  0.00  0.00     0.020 C 
HETATM   36  C   UNK N   1      25.637  27.840  -3.886  0.00  0.00     0.113 C 
HETATM   37  N   UNK N   1      27.045  27.457  -4.019  0.00  0.00    -0.421 N 
HETATM   38  C   UNK N   1      27.222  26.021  -4.319  0.00  0.00     0.120 C 
HETATM   39  H   UNK N   1      27.820  28.111  -3.916  0.00  0.00     0.153 HD
ENDBRANCH  32  33
ENDBRANCH  31  32
ENDBRANCH   3  31
TORSDOF 9
ENDMDL
MODEL 8
REMARK VINA RESULT:      -6.8      3.121      6.077
REMARK  9 active torsions:
REMARK  status: ('A' for Active; 'I' for Inactive)
REMARK    1  A    between atoms: N_32  and  C_4 
REMARK    2  A    between atoms: C_14  and  C_7 
REMARK    3  A    between atoms: C_21  and  C_8 
REMARK    4  A    between atoms: C_13  and  C_12 
REMARK    5  A    between atoms: O_34  and  C_12 
REMARK    6  A    between atoms: O_34  and  C_15 
REMARK    7  A    between atoms: C_20  and  C_17 
REMARK    8  A    between atoms: N_22  and  C_19 
REMARK    9  A    between atoms: O_33  and  C_21 
ROOT
HETATM    1  C   UNK N   1      27.165  19.238   3.884  0.00  0.00     0.128 A 
HETATM    2  C   UNK N   1      24.793  19.371   3.658  0.00  0.00     0.116 A 
HETATM    3  C   UNK N   1      27.073  17.961   4.489  0.00  0.00     0.113 A 
HETATM    4  C   UNK N   1      24.686  18.155   4.302  0.00  0.00     0.100 A 
HETATM    5  C   UNK N   1      25.772  17.452   4.710  0.00  0.00     0.101 A 
HETATM    6  C   UNK N   1      23.975  16.367   5.217  0.00  0.00     0.141 A 
HETATM    7  N   UNK N   1      26.036  19.908   3.473  0.00  0.00    -0.354 N 
ATOM      8  HN  UNK N   1      26.127  20.818   3.023  1.00  0.00     0.166 HD
HETATM    9  N   UNK N   1      23.556  17.489   4.592  0.00  0.00    -0.336 N 
ATOM     10  HN  UNK N   1      22.597  17.769   4.387  1.00  0.00     0.168 HD
HETATM   11  N   UNK N   1      25.336  16.304   5.281  0.00  0.00    -0.327 N 
ENDROOT
BRANCH   6  12
HETATM   12  C   UNK N   1      22.993  15.394   5.752  0.00  0.00     0.146 A 
HETATM   13  C   UNK N   1      22.416  14.269   5.194  0.00  0.00     0.154 A 
HETATM   14  N   UNK N   1      21.627  13.707   6.120  0.00  0.00    -0.224 N 
HETATM   15  O   UNK N   1      21.724  14.458   7.179  0.00  0.00    -0.155 OA
ATOM     16  HN  UNK N   1      21.064  12.862   6.015  1.00  0.00     0.198 HD
HETATM   17  N   UNK N   1      22.534  15.468   7.014  0.00  0.00    -0.234 N 
ATOM     18  HN  UNK N   1      22.772  16.177   7.709  1.00  0.00     0.197 HD
BRANCH  13  19
HETATM   19  N   UNK N   1      22.645  13.703   3.927  0.00  0.00    -0.382 N 
HETATM   20  H   UNK N   1      23.416  13.131   3.709  0.00  0.00     0.157 HD
HETATM   21  H   UNK N   1      21.994  13.890   3.213  0.00  0.00     0.157 HD
ENDBRANCH  13  19
ENDBRANCH   6  12
BRANCH  11  22
HETATM   22  C   UNK N   1      26.141  15.228   5.820  0.00  0.00     0.126 C 
HETATM   23  C   UNK N   1      26.251  15.373   7.331  0.00  0.00     0.027 C 
ENDBRANCH  11  22
BRANCH   2  24
HETATM   24  C   UNK N   1      23.597  19.979   3.154  0.00  0.00    -0.043 C 
HETATM   25  C   UNK N   1      22.465  20.275   2.867  0.00  0.00    -0.062 C 
BRANCH  25  26
HETATM   26  C   UNK N   1      21.072  20.439   2.457  0.00  0.00     0.114 C 
HETATM   27  C   UNK N   1      20.966  20.735   0.978  0.00  0.00     0.060 C 
HETATM   28  C   UNK N   1      20.299  19.191   2.824  0.00  0.00     0.060 C 
BRANCH  26  29
HETATM   29  O   UNK N   1      20.529  21.499   3.185  0.00  0.00    -0.378 OA
HETATM   30  H   UNK N   1      19.700  21.923   2.913  0.00  0.00     0.211 HD
ENDBRANCH  26  29
ENDBRANCH  25  26
ENDBRANCH   2  24
BRANCH   3  31
HETATM   31  O   UNK N   1      28.206  17.290   4.806  0.00  0.00    -0.347 OA
BRANCH  31  32
HETATM   32  C   UNK N   1      29.215  17.916   5.507  0.00  0.00     0.182 C 
BRANCH  32  33
HETATM   33  C   UNK N   1      29.209  17.589   6.999  0.00  0.00     0.027 C 
HETATM   34  C   UNK N   1      28.510  18.670   7.820  0.00  0.00     0.010 C 
HETATM   35  C   UNK N   1      28.399  18.268   9.295  0.00  0.00     0.020 C 
HETATM   36  C   UNK N   1      29.402  17.171   9.668  0.00  0.00     0.113 C 
HETATM   37  N   UNK N   1      30.698  17.415   9.028  0.00  0.00    -0.421 N 
HETATM   38  C   UNK N   1      30.623  17.378   7.553  0.00  0.00     0.120 C 
HETATM   39  H   UNK N   1      31.558  17.591   9.546  0.00  0.00     0.153 HD
ENDBRANCH  32  33
ENDBRANCH  31  32
ENDBRANCH   3  31
TORSDOF 9
ENDMDL
MODEL 9
REMARK VINA RESULT:      -6.5     10.046     14.593
REMARK  9 active torsions:
REMARK  status: ('A' for Active; 'I' for Inactive)
REMARK    1  A    between atoms: N_32  and  C_4 
REMARK    2  A    between atoms: C_14  and  C_7 
REMARK    3  A    between atoms: C_21  and  C_8 
REMARK    4  A    between atoms: C_13  and  C_12 
REMARK    5  A    between atoms: O_34  and  C_12 
REMARK    6  A    between atoms: O_34  and  C_15 
REMARK    7  A    between atoms: C_20  and  C_17 
REMARK    8  A    between atoms: N_22  and  C_19 
REMARK    9  A    between atoms: O_33  and  C_21 
ROOT
HETATM    1  C   UNK N   1      34.089  16.414   9.405  0.00  0.00     0.128 A 
HETATM    2  C   UNK N   1      35.536  15.406  11.013  0.00  0.00     0.116 A 
HETATM    3  C   UNK N   1      34.729  15.728   8.345  0.00  0.00     0.113 A 
HETATM    4  C   UNK N   1      36.206  14.779   9.984  0.00  0.00     0.100 A 
HETATM    5  C   UNK N   1      35.834  14.914   8.686  0.00  0.00     0.101 A 
HETATM    6  C   UNK N   1      37.549  13.608   8.816  0.00  0.00     0.141 A 
HETATM    7  N   UNK N   1      34.493  16.234  10.708  0.00  0.00    -0.354 N 
ATOM      8  HN  UNK N   1      34.006  16.726  11.457  1.00  0.00     0.166 HD
HETATM    9  N   UNK N   1      37.262  13.955  10.088  0.00  0.00    -0.336 N 
ATOM     10  HN  UNK N   1      37.740  13.659  10.939  1.00  0.00     0.168 HD
HETATM   11  N   UNK N   1      36.670  14.163   7.931  0.00  0.00    -0.327 N 
ENDROOT
BRANCH   6  12
HETATM   12  C   UNK N   1      38.714  12.740   8.517  0.00  0.00     0.146 A 
HETATM   13  C   UNK N   1      39.836  12.944   7.738  0.00  0.00     0.154 A 
HETATM   14  N   UNK N   1      40.615  11.859   7.842  0.00  0.00    -0.224 N 
HETATM   15  O   UNK N   1      39.991  11.044   8.643  0.00  0.00    -0.155 OA
ATOM     16  HN  UNK N   1      41.515  11.704   7.386  1.00  0.00     0.198 HD
HETATM   17  N   UNK N   1      38.859  11.527   9.080  0.00  0.00    -0.234 N 
ATOM     18  HN  UNK N   1      38.212  11.072   9.724  1.00  0.00     0.197 HD
BRANCH  13  19
HETATM   19  N   UNK N   1      40.206  14.095   7.018  0.00  0.00    -0.382 N 
HETATM   20  H   UNK N   1      41.135  14.324   6.782  0.00  0.00     0.157 HD
HETATM   21  H   UNK N   1      39.493  14.710   6.731  0.00  0.00     0.157 HD
ENDBRANCH  13  19
ENDBRANCH   6  12
BRANCH  11  22
HETATM   22  C   UNK N   1      36.625  13.967   6.497  0.00  0.00     0.126 C 
HETATM   23  C   UNK N   1      35.736  12.777   6.168  0.00  0.00     0.027 C 
ENDBRANCH  11  22
BRANCH   2  24
HETATM   24  C   UNK N   1      35.924  15.104  12.359  0.00  0.00    -0.043 C 
HETATM   25  C   UNK N   1      36.273  14.586  13.389  0.00  0.00    -0.062 C 
BRANCH  25  26
HETATM   26  C   UNK N   1      36.546  13.822  14.604  0.00  0.00     0.114 C 
HETATM   27  C   UNK N   1      37.107  14.706  15.696  0.00  0.00     0.060 C 
HETATM   28  C   UNK N   1      35.272  13.137  15.052  0.00  0.00     0.060 C 
BRANCH  26  29
HETATM   29  O   UNK N   1      37.470  12.824  14.290  0.00  0.00    -0.378 OA
HETATM   30  H   UNK N   1      37.821  12.231  14.973  0.00  0.00     0.211 HD
ENDBRANCH  26  29
ENDBRANCH  25  26
ENDBRANCH   2  24
BRANCH   3  31
HETATM   31  O   UNK N   1      34.255  15.860   7.083  0.00  0.00    -0.347 OA
BRANCH  31  32
HETATM   32  C   UNK N   1      32.975  15.451   6.771  0.00  0.00     0.182 C 
BRANCH  32  33
HETATM   33  C   UNK N   1      32.531  15.865   5.371  0.00  0.00     0.027 C 
HETATM   34  C   UNK N   1      33.683  15.831   4.369  0.00  0.00     0.010 C 
HETATM   35  C   UNK N   1      33.197  16.125   2.946  0.00  0.00     0.020 C 
HETATM   36  C   UNK N   1      31.840  16.838   2.938  0.00  0.00     0.113 C 
HETATM   37  N   UNK N   1      31.779  17.846   4.000  0.00  0.00    -0.421 N 
HETATM   38  C   UNK N   1      31.895  17.261   5.352  0.00  0.00     0.120 C 
HETATM   39  H   UNK N   1      31.667  18.844   3.824  0.00  0.00     0.153 HD
ENDBRANCH  32  33
ENDBRANCH  31  32
ENDBRANCH   3  31
TORSDOF 9
ENDMDL
