MODEL 1
REMARK VINA RESULT:      -7.1      0.000      0.000
REMARK  4 active torsions:
REMARK  status: ('A' for Active; 'I' for Inactive)
REMARK    1  A    between atoms: C_2  and  C_5 
REMARK    2  A    between atoms: C_5  and  C_6 
REMARK    3  A    between atoms: C_6  and  C_7 
REMARK    4  A    between atoms: C_7  and  C_8 
ROOT
HETATM    1  C   UNK N   1      33.249  16.695   7.864  0.00  0.00    -0.032 A 
HETATM    2  C   UNK N   1      33.880  17.927   7.688  0.00  0.00     0.091 A 
HETATM    3  C   UNK N   1      34.828  18.354   8.617  0.00  0.00     0.289 A 
HETATM    4  O   UNK N   1      35.375  19.431   8.468  0.00  0.00    -0.260 OA
HETATM    5  O   UNK N   1      35.146  17.590   9.656  0.00  0.00    -0.257 OA
HETATM    6  C   UNK N   1      34.584  16.404   9.870  0.00  0.00     0.172 A 
HETATM    7  C   UNK N   1      33.601  15.901   8.984  0.00  0.00     0.090 A 
HETATM    8  C   UNK N   1      33.046  14.630   9.264  0.00  0.00     0.264 A 
HETATM    9  O   UNK N   1      32.188  14.143   8.549  0.00  0.00    -0.267 OA
HETATM   10  N   UNK N   1      33.476  13.929  10.358  0.00  0.00    -0.275 N 
HETATM   11  C   UNK N   1      34.436  14.436  11.189  0.00  0.00     0.329 A 
HETATM   12  O   UNK N   1      34.811  13.789  12.150  0.00  0.00    -0.247 OA
HETATM   13  N   UNK N   1      34.977  15.667  10.941  0.00  0.00    -0.288 N 
HETATM   14  H   UNK N   1      33.087  13.045  10.550  0.00  0.00     0.173 HD
HETATM   15  H   UNK N   1      35.662  16.026  11.550  0.00  0.00     0.172 HD
ENDROOT
BRANCH   1  16
HETATM   16  C   UNK N   1      32.283  16.225   6.815  0.00  0.00     0.040 C 
BRANCH  16  17
HETATM   17  C   UNK N   1      31.147  17.197   6.551  0.00  0.00     0.005 C 
BRANCH  17  18
HETATM   18  C   UNK N   1      29.987  16.762   7.432  0.00  0.00     0.009 C 
BRANCH  18  19
HETATM   19  C   UNK N   1      29.375  17.917   8.201  0.00  0.00    -0.044 A 
HETATM   20  C   UNK N   1      28.394  18.855   7.527  0.00  0.00     0.015 C 
HETATM   21  C   UNK N   1      29.343  17.845   9.712  0.00  0.00     0.010 A 
HETATM   22  C   UNK N   1      30.414  18.661   9.008  0.00  0.00     0.010 A 
ENDBRANCH  18  19
ENDBRANCH  17  18
ENDBRANCH  16  17
ENDBRANCH   1  16
TORSDOF 4
ENDMDL
MODEL 2
REMARK VINA RESULT:      -6.7      2.840      4.247
REMARK  4 active torsions:
REMARK  status: ('A' for Active; 'I' for Inactive)
REMARK    1  A    between atoms: C_2  and  C_5 
REMARK    2  A    between atoms: C_5  and  C_6 
REMARK    3  A    between atoms: C_6  and  C_7 
REMARK    4  A    between atoms: C_7  and  C_8 
ROOT
HETATM    1  C   UNK N   1      30.671  17.084   6.120  0.00  0.00    -0.032 A 
HETATM    2  C   UNK N   1      30.875  17.130   4.740  0.00  0.00     0.091 A 
HETATM    3  C   UNK N   1      32.151  17.382   4.240  0.00  0.00     0.289 A 
HETATM    4  O   UNK N   1      32.330  17.429   3.037  0.00  0.00    -0.260 OA
HETATM    5  O   UNK N   1      33.176  17.561   5.066  0.00  0.00    -0.257 OA
HETATM    6  C   UNK N   1      33.044  17.519   6.389  0.00  0.00     0.172 A 
HETATM    7  C   UNK N   1      31.780  17.284   6.980  0.00  0.00     0.090 A 
HETATM    8  C   UNK N   1      31.707  17.246   8.393  0.00  0.00     0.264 A 
HETATM    9  O   UNK N   1      30.648  17.058   8.967  0.00  0.00    -0.267 OA
HETATM   10  N   UNK N   1      32.843  17.422   9.135  0.00  0.00    -0.275 N 
HETATM   11  C   UNK N   1      34.052  17.636   8.535  0.00  0.00     0.329 A 
HETATM   12  O   UNK N   1      35.052  17.778   9.216  0.00  0.00    -0.247 OA
HETATM   13  N   UNK N   1      34.142  17.687   7.171  0.00  0.00    -0.288 N 
HETATM   14  H   UNK N   1      32.788  17.395  10.118  0.00  0.00     0.173 HD
HETATM   15  H   UNK N   1      35.016  17.848   6.750  0.00  0.00     0.172 HD
ENDROOT
BRANCH   1  16
HETATM   16  C   UNK N   1      29.303  16.743   6.634  0.00  0.00     0.040 C 
BRANCH  16  17
HETATM   17  C   UNK N   1      28.189  17.549   5.990  0.00  0.00     0.005 C 
BRANCH  17  18
HETATM   18  C   UNK N   1      28.161  18.895   6.697  0.00  0.00     0.009 C 
BRANCH  18  19
HETATM   19  C   UNK N   1      27.631  20.006   5.811  0.00  0.00    -0.044 A 
HETATM   20  C   UNK N   1      27.432  21.403   6.364  0.00  0.00     0.015 C 
HETATM   21  C   UNK N   1      27.774  19.866   4.311  0.00  0.00     0.010 A 
HETATM   22  C   UNK N   1      26.450  19.545   4.986  0.00  0.00     0.010 A 
ENDBRANCH  18  19
ENDBRANCH  17  18
ENDBRANCH  16  17
ENDBRANCH   1  16
TORSDOF 4
ENDMDL
MODEL 3
REMARK VINA RESULT:      -6.6      3.207      4.426
REMARK  4 active torsions:
REMARK  status: ('A' for Active; 'I' for Inactive)
REMARK    1  A    between atoms: C_2  and  C_5 
REMARK    2  A    between atoms: C_5  and  C_6 
REMARK    3  A    between atoms: C_6  and  C_7 
REMARK    4  A    between atoms: C_7  and  C_8 
ROOT
HETATM    1  C   UNK N   1      31.870  17.297   7.638  0.00  0.00    -0.032 A 
HETATM    2  C   UNK N   1      32.821  18.058   8.320  0.00  0.00     0.091 A 
HETATM    3  C   UNK N   1      34.045  18.335   7.714  0.00  0.00     0.289 A 
HETATM    4  O   UNK N   1      34.878  18.993   8.309  0.00  0.00    -0.260 OA
HETATM    5  O   UNK N   1      34.305  17.896   6.487  0.00  0.00    -0.257 OA
HETATM    6  C   UNK N   1      33.435  17.175   5.786  0.00  0.00     0.172 A 
HETATM    7  C   UNK N   1      32.174  16.835   6.333  0.00  0.00     0.090 A 
HETATM    8  C   UNK N   1      31.291  16.071   5.535  0.00  0.00     0.264 A 
HETATM    9  O   UNK N   1      30.195  15.735   5.947  0.00  0.00    -0.267 OA
HETATM   10  N   UNK N   1      31.669  15.698   4.273  0.00  0.00    -0.275 N 
HETATM   11  C   UNK N   1      32.889  16.051   3.768  0.00  0.00     0.329 A 
HETATM   12  O   UNK N   1      33.199  15.718   2.639  0.00  0.00    -0.247 OA
HETATM   13  N   UNK N   1      33.761  16.781   4.528  0.00  0.00    -0.288 N 
HETATM   14  H   UNK N   1      31.052  15.165   3.721  0.00  0.00     0.173 HD
HETATM   15  H   UNK N   1      34.639  17.024   4.157  0.00  0.00     0.172 HD
ENDROOT
BRANCH   1  16
HETATM   16  C   UNK N   1      30.534  17.069   8.283  0.00  0.00     0.040 C 
BRANCH  16  17
HETATM   17  C   UNK N   1      29.673  18.317   8.363  0.00  0.00     0.005 C 
BRANCH  17  18
HETATM   18  C   UNK N   1      28.339  17.968   7.722  0.00  0.00     0.009 C 
BRANCH  18  19
HETATM   19  C   UNK N   1      27.986  18.893   6.573  0.00  0.00    -0.044 A 
HETATM   20  C   UNK N   1      27.498  20.302   6.843  0.00  0.00     0.015 C 
HETATM   21  C   UNK N   1      28.575  18.609   5.209  0.00  0.00     0.010 A 
HETATM   22  C   UNK N   1      27.150  18.188   5.529  0.00  0.00     0.010 A 
ENDBRANCH  18  19
ENDBRANCH  17  18
ENDBRANCH  16  17
ENDBRANCH   1  16
TORSDOF 4
ENDMDL
MODEL 4
REMARK VINA RESULT:      -6.6     14.904     16.864
REMARK  4 active torsions:
REMARK  status: ('A' for Active; 'I' for Inactive)
REMARK    1  A    between atoms: C_2  and  C_5 
REMARK    2  A    between atoms: C_5  and  C_6 
REMARK    3  A    between atoms: C_6  and  C_7 
REMARK    4  A    between atoms: C_7  and  C_8 
ROOT
HETATM    1  C   UNK N   1      27.367  24.270  -5.644  0.00  0.00    -0.032 A 
HETATM    2  C   UNK N   1      28.008  24.296  -6.884  0.00  0.00     0.091 A 
HETATM    3  C   UNK N   1      29.371  24.014  -6.961  0.00  0.00     0.289 A 
HETATM    4  O   UNK N   1      29.933  24.041  -8.040  0.00  0.00    -0.260 OA
HETATM    5  O   UNK N   1      30.059  23.706  -5.866  0.00  0.00    -0.257 OA
HETATM    6  C   UNK N   1      29.501  23.658  -4.660  0.00  0.00     0.172 A 
HETATM    7  C   UNK N   1      28.125  23.946  -4.491  0.00  0.00     0.090 A 
HETATM    8  C   UNK N   1      27.590  23.872  -3.183  0.00  0.00     0.264 A 
HETATM    9  O   UNK N   1      26.416  24.116  -2.965  0.00  0.00    -0.267 OA
HETATM   10  N   UNK N   1      28.401  23.519  -2.138  0.00  0.00    -0.275 N 
HETATM   11  C   UNK N   1      29.723  23.236  -2.335  0.00  0.00     0.329 A 
HETATM   12  O   UNK N   1      30.422  22.913  -1.392  0.00  0.00    -0.247 OA
HETATM   13  N   UNK N   1      30.261  23.312  -3.590  0.00  0.00    -0.288 N 
HETATM   14  H   UNK N   1      28.024  23.469  -1.229  0.00  0.00     0.173 HD
HETATM   15  H   UNK N   1      31.216  23.113  -3.719  0.00  0.00     0.172 HD
ENDROOT
BRANCH   1  16
HETATM   16  C   UNK N   1      25.886  24.510  -5.595  0.00  0.00     0.040 C 
BRANCH  16  17
HETATM   17  C   UNK N   1      25.439  25.735  -6.371  0.00  0.00     0.005 C 
BRANCH  17  18
HETATM   18  C   UNK N   1      25.052  26.785  -5.342  0.00  0.00     0.009 C 
BRANCH  18  19
HETATM   19  C   UNK N   1      26.157  27.795  -5.098  0.00  0.00    -0.044 A 
HETATM   20  C   UNK N   1      27.136  28.145  -6.200  0.00  0.00     0.015 C 
HETATM   21  C   UNK N   1      25.990  28.793  -3.973  0.00  0.00     0.010 A 
HETATM   22  C   UNK N   1      26.848  27.554  -3.775  0.00  0.00     0.010 A 
ENDBRANCH  18  19
ENDBRANCH  17  18
ENDBRANCH  16  17
ENDBRANCH   1  16
TORSDOF 4
ENDMDL
MODEL 5
REMARK VINA RESULT:      -6.5     13.180     14.824
REMARK  4 active torsions:
REMARK  status: ('A' for Active; 'I' for Inactive)
REMARK    1  A    between atoms: C_2  and  C_5 
REMARK    2  A    between atoms: C_5  and  C_6 
REMARK    3  A    between atoms: C_6  and  C_7 
REMARK    4  A    between atoms: C_7  and  C_8 
ROOT
HETATM    1  C   UNK N   1      30.310  21.758  -4.617  0.00  0.00    -0.032 A 
HETATM    2  C   UNK N   1      29.910  22.527  -3.524  0.00  0.00     0.091 A 
HETATM    3  C   UNK N   1      30.700  22.556  -2.375  0.00  0.00     0.289 A 
HETATM    4  O   UNK N   1      30.350  23.221  -1.419  0.00  0.00    -0.260 OA
HETATM    5  O   UNK N   1      31.837  21.870  -2.322  0.00  0.00    -0.257 OA
HETATM    6  C   UNK N   1      32.273  21.128  -3.335  0.00  0.00     0.172 A 
HETATM    7  C   UNK N   1      31.524  21.030  -4.532  0.00  0.00     0.090 A 
HETATM    8  C   UNK N   1      32.045  20.229  -5.575  0.00  0.00     0.264 A 
HETATM    9  O   UNK N   1      31.447  20.093  -6.628  0.00  0.00    -0.267 OA
HETATM   10  N   UNK N   1      33.243  19.589  -5.404  0.00  0.00    -0.275 N 
HETATM   11  C   UNK N   1      33.949  19.711  -4.240  0.00  0.00     0.329 A 
HETATM   12  O   UNK N   1      35.018  19.142  -4.116  0.00  0.00    -0.247 OA
HETATM   13  N   UNK N   1      33.457  20.473  -3.217  0.00  0.00    -0.288 N 
HETATM   14  H   UNK N   1      33.602  19.031  -6.133  0.00  0.00     0.173 HD
HETATM   15  H   UNK N   1      33.970  20.549  -2.380  0.00  0.00     0.172 HD
ENDROOT
BRANCH   1  16
HETATM   16  C   UNK N   1      29.480  21.797  -5.867  0.00  0.00     0.040 C 
BRANCH  16  17
HETATM   17  C   UNK N   1      29.077  23.198  -6.290  0.00  0.00     0.005 C 
BRANCH  17  18
HETATM   18  C   UNK N   1      27.571  23.292  -6.110  0.00  0.00     0.009 C 
BRANCH  18  19
HETATM   19  C   UNK N   1      27.153  24.528  -5.335  0.00  0.00    -0.044 A 
HETATM   20  C   UNK N   1      28.117  25.682  -5.152  0.00  0.00     0.015 C 
HETATM   21  C   UNK N   1      25.677  24.823  -5.185  0.00  0.00     0.010 A 
HETATM   22  C   UNK N   1      26.445  24.165  -4.050  0.00  0.00     0.010 A 
ENDBRANCH  18  19
ENDBRANCH  17  18
ENDBRANCH  16  17
ENDBRANCH   1  16
TORSDOF 4
ENDMDL
MODEL 6
REMARK VINA RESULT:      -6.4      3.180      5.049
REMARK  4 active torsions:
REMARK  status: ('A' for Active; 'I' for Inactive)
REMARK    1  A    between atoms: C_2  and  C_5 
REMARK    2  A    between atoms: C_5  and  C_6 
REMARK    3  A    between atoms: C_6  and  C_7 
REMARK    4  A    between atoms: C_7  and  C_8 
ROOT
HETATM    1  C   UNK N   1      29.439  17.054   6.556  0.00  0.00    -0.032 A 
HETATM    2  C   UNK N   1      28.362  17.101   7.442  0.00  0.00     0.091 A 
HETATM    3  C   UNK N   1      28.589  17.381   8.789  0.00  0.00     0.289 A 
HETATM    4  O   UNK N   1      27.651  17.416   9.564  0.00  0.00    -0.260 OA
HETATM    5  O   UNK N   1      29.819  17.619   9.230  0.00  0.00    -0.257 OA
HETATM    6  C   UNK N   1      30.882  17.598   8.431  0.00  0.00     0.172 A 
HETATM    7  C   UNK N   1      30.742  17.306   7.053  0.00  0.00     0.090 A 
HETATM    8  C   UNK N   1      31.911  17.304   6.256  0.00  0.00     0.264 A 
HETATM    9  O   UNK N   1      31.864  17.051   5.065  0.00  0.00    -0.267 OA
HETATM   10  N   UNK N   1      33.122  17.589   6.827  0.00  0.00    -0.275 N 
HETATM   11  C   UNK N   1      33.224  17.878   8.159  0.00  0.00     0.329 A 
HETATM   12  O   UNK N   1      34.309  18.141   8.643  0.00  0.00    -0.247 OA
HETATM   13  N   UNK N   1      32.106  17.875   8.949  0.00  0.00    -0.288 N 
HETATM   14  H   UNK N   1      33.933  17.586   6.269  0.00  0.00     0.173 HD
HETATM   15  H   UNK N   1      32.192  18.078   9.908  0.00  0.00     0.172 HD
ENDROOT
BRANCH   1  16
HETATM   16  C   UNK N   1      29.163  16.819   5.100  0.00  0.00     0.040 C 
BRANCH  16  17
HETATM   17  C   UNK N   1      28.009  17.641   4.556  0.00  0.00     0.005 C 
BRANCH  17  18
HETATM   18  C   UNK N   1      28.489  19.082   4.497  0.00  0.00     0.009 C 
BRANCH  18  19
HETATM   19  C   UNK N   1      27.377  20.078   4.766  0.00  0.00    -0.044 A 
HETATM   20  C   UNK N   1      27.480  21.052   5.921  0.00  0.00     0.015 C 
HETATM   21  C   UNK N   1      26.438  20.436   3.635  0.00  0.00     0.010 A 
HETATM   22  C   UNK N   1      26.016  19.425   4.688  0.00  0.00     0.010 A 
ENDBRANCH  18  19
ENDBRANCH  17  18
ENDBRANCH  16  17
ENDBRANCH   1  16
TORSDOF 4
ENDMDL
MODEL 7
REMARK VINA RESULT:      -6.4      9.169     11.359
REMARK  4 active torsions:
REMARK  status: ('A' for Active; 'I' for Inactive)
REMARK    1  A    between atoms: C_2  and  C_5 
REMARK    2  A    between atoms: C_5  and  C_6 
REMARK    3  A    between atoms: C_6  and  C_7 
REMARK    4  A    between atoms: C_7  and  C_8 
ROOT
HETATM    1  C   UNK N   1      22.181  13.618   8.429  0.00  0.00    -0.032 A 
HETATM    2  C   UNK N   1      23.316  13.878   7.660  0.00  0.00     0.091 A 
HETATM    3  C   UNK N   1      24.580  13.607   8.184  0.00  0.00     0.289 A 
HETATM    4  O   UNK N   1      25.571  13.838   7.517  0.00  0.00    -0.260 OA
HETATM    5  O   UNK N   1      24.708  13.088   9.400  0.00  0.00    -0.257 OA
HETATM    6  C   UNK N   1      23.663  12.811  10.174  0.00  0.00     0.172 A 
HETATM    7  C   UNK N   1      22.345  13.071   9.726  0.00  0.00     0.090 A 
HETATM    8  C   UNK N   1      21.276  12.749  10.594  0.00  0.00     0.264 A 
HETATM    9  O   UNK N   1      20.118  12.956  10.276  0.00  0.00    -0.267 OA
HETATM   10  N   UNK N   1      21.540  12.195  11.818  0.00  0.00    -0.275 N 
HETATM   11  C   UNK N   1      22.823  11.946  12.219  0.00  0.00     0.329 A 
HETATM   12  O   UNK N   1      23.032  11.441  13.306  0.00  0.00    -0.247 OA
HETATM   13  N   UNK N   1      23.870  12.259  11.397  0.00  0.00    -0.288 N 
HETATM   14  H   UNK N   1      20.792  11.973  12.420  0.00  0.00     0.173 HD
HETATM   15  H   UNK N   1      24.790  12.082  11.698  0.00  0.00     0.172 HD
ENDROOT
BRANCH   1  16
HETATM   16  C   UNK N   1      20.830  13.854   7.819  0.00  0.00     0.040 C 
BRANCH  16  17
HETATM   17  C   UNK N   1      20.588  15.295   7.405  0.00  0.00     0.005 C 
BRANCH  17  18
HETATM   18  C   UNK N   1      20.624  16.126   8.677  0.00  0.00     0.009 C 
BRANCH  18  19
HETATM   19  C   UNK N   1      19.456  17.088   8.776  0.00  0.00    -0.044 A 
HETATM   20  C   UNK N   1      19.663  18.499   9.288  0.00  0.00     0.015 C 
HETATM   21  C   UNK N   1      18.230  16.828   7.927  0.00  0.00     0.010 A 
HETATM   22  C   UNK N   1      18.243  16.429   9.394  0.00  0.00     0.010 A 
ENDBRANCH  18  19
ENDBRANCH  17  18
ENDBRANCH  16  17
ENDBRANCH   1  16
TORSDOF 4
ENDMDL
MODEL 8
REMARK VINA RESULT:      -6.2     14.475     16.366
REMARK  4 active torsions:
REMARK  status: ('A' for Active; 'I' for Inactive)
REMARK    1  A    between atoms: C_2  and  C_5 
REMARK    2  A    between atoms: C_5  and  C_6 
REMARK    3  A    between atoms: C_6  and  C_7 
REMARK    4  A    between atoms: C_7  and  C_8 
ROOT
HETATM    1  C   UNK N   1      28.789  23.680  -4.424  0.00  0.00    -0.032 A 
HETATM    2  C   UNK N   1      29.241  23.812  -3.109  0.00  0.00     0.091 A 
HETATM    3  C   UNK N   1      30.127  22.870  -2.588  0.00  0.00     0.289 A 
HETATM    4  O   UNK N   1      30.517  22.980  -1.440  0.00  0.00    -0.260 OA
HETATM    5  O   UNK N   1      30.557  21.861  -3.337  0.00  0.00    -0.257 OA
HETATM    6  C   UNK N   1      30.168  21.689  -4.597  0.00  0.00     0.172 A 
HETATM    7  C   UNK N   1      29.258  22.590  -5.200  0.00  0.00     0.090 A 
HETATM    8  C   UNK N   1      28.888  22.356  -6.545  0.00  0.00     0.264 A 
HETATM    9  O   UNK N   1      28.101  23.087  -7.122  0.00  0.00    -0.267 OA
HETATM   10  N   UNK N   1      29.420  21.290  -7.219  0.00  0.00    -0.275 N 
HETATM   11  C   UNK N   1      30.306  20.443  -6.613  0.00  0.00     0.329 A 
HETATM   12  O   UNK N   1      30.776  19.509  -7.236  0.00  0.00    -0.247 OA
HETATM   13  N   UNK N   1      30.668  20.647  -5.310  0.00  0.00    -0.288 N 
HETATM   14  H   UNK N   1      29.160  21.130  -8.155  0.00  0.00     0.173 HD
HETATM   15  H   UNK N   1      31.301  20.028  -4.881  0.00  0.00     0.172 HD
ENDROOT
BRANCH   1  16
HETATM   16  C   UNK N   1      27.890  24.743  -4.985  0.00  0.00     0.040 C 
BRANCH  16  17
HETATM   17  C   UNK N   1      26.536  24.821  -4.304  0.00  0.00     0.005 C 
BRANCH  17  18
HETATM   18  C   UNK N   1      26.465  26.181  -3.629  0.00  0.00     0.009 C 
BRANCH  18  19
HETATM   19  C   UNK N   1      25.841  27.240  -4.519  0.00  0.00    -0.044 A 
HETATM   20  C   UNK N   1      24.837  26.853  -5.585  0.00  0.00     0.015 C 
HETATM   21  C   UNK N   1      25.827  28.674  -4.036  0.00  0.00     0.010 A 
HETATM   22  C   UNK N   1      26.877  28.213  -5.035  0.00  0.00     0.010 A 
ENDBRANCH  18  19
ENDBRANCH  17  18
ENDBRANCH  16  17
ENDBRANCH   1  16
TORSDOF 4
ENDMDL
MODEL 9
REMARK VINA RESULT:      -6.1     11.501     13.769
REMARK  4 active torsions:
REMARK  status: ('A' for Active; 'I' for Inactive)
REMARK    1  A    between atoms: C_2  and  C_5 
REMARK    2  A    between atoms: C_5  and  C_6 
REMARK    3  A    between atoms: C_6  and  C_7 
REMARK    4  A    between atoms: C_7  and  C_8 
ROOT
HETATM    1  C   UNK N   1      20.575  17.095   3.829  0.00  0.00    -0.032 A 
HETATM    2  C   UNK N   1      20.823  17.201   5.199  0.00  0.00     0.091 A 
HETATM    3  C   UNK N   1      21.116  18.447   5.752  0.00  0.00     0.289 A 
HETATM    4  O   UNK N   1      21.338  18.541   6.944  0.00  0.00    -0.260 OA
HETATM    5  O   UNK N   1      21.144  19.534   4.988  0.00  0.00    -0.257 OA
HETATM    6  C   UNK N   1      20.907  19.496   3.680  0.00  0.00     0.172 A 
HETATM    7  C   UNK N   1      20.617  18.269   3.036  0.00  0.00     0.090 A 
HETATM    8  C   UNK N   1      20.369  18.295   1.643  0.00  0.00     0.264 A 
HETATM    9  O   UNK N   1      20.123  17.275   1.024  0.00  0.00    -0.267 OA
HETATM   10  N   UNK N   1      20.405  19.487   0.971  0.00  0.00    -0.275 N 
HETATM   11  C   UNK N   1      20.677  20.658   1.623  0.00  0.00     0.329 A 
HETATM   12  O   UNK N   1      20.691  21.707   1.006  0.00  0.00    -0.247 OA
HETATM   13  N   UNK N   1      20.929  20.651   2.967  0.00  0.00    -0.288 N 
HETATM   14  H   UNK N   1      20.232  19.502   0.001  0.00  0.00     0.173 HD
HETATM   15  H   UNK N   1      21.131  21.498   3.425  0.00  0.00     0.172 HD
ENDROOT
BRANCH   1  16
HETATM   16  C   UNK N   1      20.194  15.756   3.269  0.00  0.00     0.040 C 
BRANCH  16  17
HETATM   17  C   UNK N   1      21.289  14.711   3.386  0.00  0.00     0.005 C 
BRANCH  17  18
HETATM   18  C   UNK N   1      22.235  14.938   2.218  0.00  0.00     0.009 C 
BRANCH  18  19
HETATM   19  C   UNK N   1      23.683  15.052   2.656  0.00  0.00    -0.044 A 
HETATM   20  C   UNK N   1      24.789  14.433   1.825  0.00  0.00     0.015 C 
HETATM   21  C   UNK N   1      24.066  16.166   3.605  0.00  0.00     0.010 A 
HETATM   22  C   UNK N   1      23.843  14.757   4.130  0.00  0.00     0.010 A 
ENDBRANCH  18  19
ENDBRANCH  17  18
ENDBRANCH  16  17
ENDBRANCH   1  16
TORSDOF 4
ENDMDL
