MODEL 1
REMARK VINA RESULT:      -6.7      0.000      0.000
REMARK  11 active torsions:
REMARK  status: ('A' for Active; 'I' for Inactive)
REMARK    1  A    between atoms: C_3  and  C_4 
REMARK    2  A    between atoms: C_4  and  C_5 
REMARK    3  A    between atoms: C_5  and  C_6 
REMARK    4  A    between atoms: C_7  and  C_8 
REMARK    5  A    between atoms: C_8  and  C_9 
REMARK    6  A    between atoms: C_9  and  C_10 
REMARK    7  A    between atoms: C_11  and  C_12 
REMARK    8  A    between atoms: C_12  and  S_13 
REMARK    9  A    between atoms: S_13  and  C_14 
REMARK   10  A    between atoms: C_19  and  C_20 
REMARK   11  A    between atoms: C_20  and  O_22 
ROOT
HETATM    1  C   UNK N   1      25.588  20.043   4.317  0.00  0.00    -0.086 C 
HETATM    2  C   UNK N   1      24.885  19.039   4.860  0.00  0.00    -0.014 C 
HETATM    3  C   UNK N   1      25.541  20.320   2.839  0.00  0.00     0.043 C 
ENDROOT
BRANCH   1   4
HETATM    4  C   UNK N   1      26.392  20.926   5.218  0.00  0.00     0.037 C 
BRANCH   4   5
HETATM    5  C   UNK N   1      27.753  20.327   5.536  0.00  0.00     0.031 C 
BRANCH   5   6
HETATM    6  C   UNK N   1      27.917  19.947   6.977  0.00  0.00    -0.024 C 
HETATM    7  C   UNK N   1      28.011  18.686   7.432  0.00  0.00    -0.087 C 
HETATM    8  C   UNK N   1      27.951  17.503   6.523  0.00  0.00     0.043 C 
BRANCH   7   9
HETATM    9  C   UNK N   1      28.339  18.450   8.876  0.00  0.00     0.037 C 
BRANCH   9  10
HETATM   10  C   UNK N   1      29.474  17.429   9.033  0.00  0.00     0.031 C 
BRANCH  10  11
HETATM   11  C   UNK N   1      30.822  18.068   8.828  0.00  0.00    -0.024 C 
HETATM   12  C   UNK N   1      31.826  17.499   8.159  0.00  0.00    -0.091 C 
HETATM   13  C   UNK N   1      31.700  16.135   7.567  0.00  0.00     0.042 C 
HETATM   14  C   UNK N   1      33.110  18.241   8.023  0.00  0.00     0.042 C 
ENDBRANCH  10  11
ENDBRANCH   9  10
ENDBRANCH   7   9
ENDBRANCH   5   6
ENDBRANCH   4   5
ENDBRANCH   1   4
BRANCH   2  15
HETATM   15  C   UNK N   1      24.014  18.127   4.051  0.00  0.00     0.106 C 
BRANCH  15  16
HETATM   16  S   UNK N   1      22.440  17.848   4.924  0.00  0.00    -0.125 SA
BRANCH  16  17
HETATM   17  C   UNK N   1      21.494  17.671   3.413  0.00  0.00     0.017 A 
HETATM   18  C   UNK N   1      21.328  16.376   2.909  0.00  0.00     0.019 A 
HETATM   19  C   UNK N   1      20.633  16.160   1.721  0.00  0.00     0.001 A 
HETATM   20  C   UNK N   1      20.102  17.240   1.020  0.00  0.00     0.001 A 
HETATM   21  C   UNK N   1      20.261  18.537   1.509  0.00  0.00     0.020 A 
HETATM   22  C   UNK N   1      20.953  18.779   2.708  0.00  0.00     0.054 A 
BRANCH  22  23
HETATM   23  C   UNK N   1      21.079  20.192   3.161  0.00  0.00     0.177 C 
HETATM   24  O   UNK N   1      20.251  20.697   3.905  0.00  0.00    -0.646 OA
BRANCH  23  25
HETATM   25  O   UNK N   1      22.119  20.937   2.744  0.00  0.00    -0.773 OA
HETATM   26  H   UNK N   1      22.721  20.692   2.069  0.00  0.00     0.167 HD
ENDBRANCH  23  25
ENDBRANCH  22  23
ENDBRANCH  16  17
ENDBRANCH  15  16
ENDBRANCH   2  15
TORSDOF 11
ENDMDL
MODEL 2
REMARK VINA RESULT:      -6.7      4.647      6.563
REMARK  11 active torsions:
REMARK  status: ('A' for Active; 'I' for Inactive)
REMARK    1  A    between atoms: C_3  and  C_4 
REMARK    2  A    between atoms: C_4  and  C_5 
REMARK    3  A    between atoms: C_5  and  C_6 
REMARK    4  A    between atoms: C_7  and  C_8 
REMARK    5  A    between atoms: C_8  and  C_9 
REMARK    6  A    between atoms: C_9  and  C_10 
REMARK    7  A    between atoms: C_11  and  C_12 
REMARK    8  A    between atoms: C_12  and  S_13 
REMARK    9  A    between atoms: S_13  and  C_14 
REMARK   10  A    between atoms: C_19  and  C_20 
REMARK   11  A    between atoms: C_20  and  O_22 
ROOT
HETATM    1  C   UNK N   1      20.574  16.282   7.606  0.00  0.00    -0.086 C 
HETATM    2  C   UNK N   1      21.404  16.554   6.589  0.00  0.00    -0.014 C 
HETATM    3  C   UNK N   1      19.933  17.382   8.407  0.00  0.00     0.043 C 
ENDROOT
BRANCH   1   4
HETATM    4  C   UNK N   1      20.250  14.852   7.905  0.00  0.00     0.037 C 
BRANCH   4   5
HETATM    5  C   UNK N   1      20.544  14.494   9.353  0.00  0.00     0.031 C 
BRANCH   5   6
HETATM    6  C   UNK N   1      21.977  14.128   9.600  0.00  0.00    -0.024 C 
HETATM    7  C   UNK N   1      22.385  13.057  10.300  0.00  0.00    -0.087 C 
HETATM    8  C   UNK N   1      21.425  12.100  10.927  0.00  0.00     0.043 C 
BRANCH   7   9
HETATM    9  C   UNK N   1      23.844  12.713  10.332  0.00  0.00     0.037 C 
BRANCH   9  10
HETATM   10  C   UNK N   1      24.371  12.376   8.931  0.00  0.00     0.031 C 
BRANCH  10  11
HETATM   11  C   UNK N   1      25.069  13.555   8.306  0.00  0.00    -0.024 C 
HETATM   12  C   UNK N   1      24.711  14.106   7.145  0.00  0.00    -0.091 C 
HETATM   13  C   UNK N   1      23.578  13.569   6.337  0.00  0.00     0.042 C 
HETATM   14  C   UNK N   1      25.482  15.276   6.639  0.00  0.00     0.042 C 
ENDBRANCH  10  11
ENDBRANCH   9  10
ENDBRANCH   7   9
ENDBRANCH   5   6
ENDBRANCH   4   5
ENDBRANCH   1   4
BRANCH   2  15
HETATM   15  C   UNK N   1      21.757  17.953   6.179  0.00  0.00     0.106 C 
BRANCH  15  16
HETATM   16  S   UNK N   1      21.267  18.225   4.446  0.00  0.00    -0.125 SA
BRANCH  16  17
HETATM   17  C   UNK N   1      22.840  18.951   3.991  0.00  0.00     0.017 A 
HETATM   18  C   UNK N   1      23.986  18.440   4.612  0.00  0.00     0.019 A 
HETATM   19  C   UNK N   1      25.242  18.975   4.335  0.00  0.00     0.001 A 
HETATM   20  C   UNK N   1      25.365  20.033   3.437  0.00  0.00     0.001 A 
HETATM   21  C   UNK N   1      24.232  20.553   2.811  0.00  0.00     0.020 A 
HETATM   22  C   UNK N   1      22.956  20.027   3.070  0.00  0.00     0.054 A 
BRANCH  22  23
HETATM   23  C   UNK N   1      21.797  20.639   2.362  0.00  0.00     0.177 C 
HETATM   24  O   UNK N   1      21.606  20.445   1.171  0.00  0.00    -0.646 OA
BRANCH  23  25
HETATM   25  O   UNK N   1      20.942  21.429   3.038  0.00  0.00    -0.773 OA
HETATM   26  H   UNK N   1      20.147  21.782   2.691  0.00  0.00     0.167 HD
ENDBRANCH  23  25
ENDBRANCH  22  23
ENDBRANCH  16  17
ENDBRANCH  15  16
ENDBRANCH   2  15
TORSDOF 11
ENDMDL
MODEL 3
REMARK VINA RESULT:      -6.6     11.214     14.226
REMARK  11 active torsions:
REMARK  status: ('A' for Active; 'I' for Inactive)
REMARK    1  A    between atoms: C_3  and  C_4 
REMARK    2  A    between atoms: C_4  and  C_5 
REMARK    3  A    between atoms: C_5  and  C_6 
REMARK    4  A    between atoms: C_7  and  C_8 
REMARK    5  A    between atoms: C_8  and  C_9 
REMARK    6  A    between atoms: C_9  and  C_10 
REMARK    7  A    between atoms: C_11  and  C_12 
REMARK    8  A    between atoms: C_12  and  S_13 
REMARK    9  A    between atoms: S_13  and  C_14 
REMARK   10  A    between atoms: C_19  and  C_20 
REMARK   11  A    between atoms: C_20  and  O_22 
ROOT
HETATM    1  C   UNK N   1      30.280  27.543  -4.580  0.00  0.00    -0.086 C 
HETATM    2  C   UNK N   1      30.758  26.295  -4.473  0.00  0.00    -0.014 C 
HETATM    3  C   UNK N   1      30.609  28.406  -5.767  0.00  0.00     0.043 C 
ENDROOT
BRANCH   1   4
HETATM    4  C   UNK N   1      29.361  28.054  -3.516  0.00  0.00     0.037 C 
BRANCH   4   5
HETATM    5  C   UNK N   1      28.346  29.042  -4.068  0.00  0.00     0.031 C 
BRANCH   5   6
HETATM    6  C   UNK N   1      26.973  28.462  -4.230  0.00  0.00    -0.024 C 
HETATM    7  C   UNK N   1      26.457  28.024  -5.390  0.00  0.00    -0.087 C 
HETATM    8  C   UNK N   1      27.218  28.081  -6.674  0.00  0.00     0.043 C 
BRANCH   7   9
HETATM    9  C   UNK N   1      25.136  27.315  -5.385  0.00  0.00     0.037 C 
BRANCH   9  10
HETATM   10  C   UNK N   1      25.309  25.807  -5.613  0.00  0.00     0.031 C 
BRANCH  10  11
HETATM   11  C   UNK N   1      26.086  25.166  -4.494  0.00  0.00    -0.024 C 
HETATM   12  C   UNK N   1      27.276  24.584  -4.647  0.00  0.00    -0.091 C 
HETATM   13  C   UNK N   1      27.940  24.494  -5.981  0.00  0.00     0.042 C 
HETATM   14  C   UNK N   1      27.944  23.991  -3.455  0.00  0.00     0.042 C 
ENDBRANCH  10  11
ENDBRANCH   9  10
ENDBRANCH   7   9
ENDBRANCH   5   6
ENDBRANCH   4   5
ENDBRANCH   1   4
BRANCH   2  15
HETATM   15  C   UNK N   1      31.647  25.673  -5.507  0.00  0.00     0.106 C 
BRANCH  15  16
HETATM   16  S   UNK N   1      32.719  24.426  -4.723  0.00  0.00    -0.125 SA
BRANCH  16  17
HETATM   17  C   UNK N   1      31.633  23.061  -5.134  0.00  0.00     0.017 A 
HETATM   18  C   UNK N   1      31.250  22.928  -6.473  0.00  0.00     0.019 A 
HETATM   19  C   UNK N   1      30.382  21.911  -6.866  0.00  0.00     0.001 A 
HETATM   20  C   UNK N   1      29.882  21.020  -5.920  0.00  0.00     0.001 A 
HETATM   21  C   UNK N   1      30.254  21.141  -4.580  0.00  0.00     0.020 A 
HETATM   22  C   UNK N   1      31.132  22.154  -4.162  0.00  0.00     0.054 A 
BRANCH  22  23
HETATM   23  C   UNK N   1      31.480  22.216  -2.715  0.00  0.00     0.177 C 
HETATM   24  O   UNK N   1      30.911  22.989  -1.957  0.00  0.00    -0.646 OA
BRANCH  23  25
HETATM   25  O   UNK N   1      32.443  21.414  -2.223  0.00  0.00    -0.773 OA
HETATM   26  H   UNK N   1      33.237  21.192  -2.668  0.00  0.00     0.167 HD
ENDBRANCH  23  25
ENDBRANCH  22  23
ENDBRANCH  16  17
ENDBRANCH  15  16
ENDBRANCH   2  15
TORSDOF 11
ENDMDL
MODEL 4
REMARK VINA RESULT:      -6.6     10.884     14.245
REMARK  11 active torsions:
REMARK  status: ('A' for Active; 'I' for Inactive)
REMARK    1  A    between atoms: C_3  and  C_4 
REMARK    2  A    between atoms: C_4  and  C_5 
REMARK    3  A    between atoms: C_5  and  C_6 
REMARK    4  A    between atoms: C_7  and  C_8 
REMARK    5  A    between atoms: C_8  and  C_9 
REMARK    6  A    between atoms: C_9  and  C_10 
REMARK    7  A    between atoms: C_11  and  C_12 
REMARK    8  A    between atoms: C_12  and  S_13 
REMARK    9  A    between atoms: S_13  and  C_14 
REMARK   10  A    between atoms: C_19  and  C_20 
REMARK   11  A    between atoms: C_20  and  O_22 
ROOT
HETATM    1  C   UNK N   1      27.771  27.548  -5.825  0.00  0.00    -0.086 C 
HETATM    2  C   UNK N   1      28.596  27.156  -4.843  0.00  0.00    -0.014 C 
HETATM    3  C   UNK N   1      28.182  27.470  -7.269  0.00  0.00     0.043 C 
ENDROOT
BRANCH   1   4
HETATM    4  C   UNK N   1      26.399  28.023  -5.462  0.00  0.00     0.037 C 
BRANCH   4   5
HETATM    5  C   UNK N   1      25.563  26.918  -4.836  0.00  0.00     0.031 C 
BRANCH   5   6
HETATM    6  C   UNK N   1      25.576  25.641  -5.619  0.00  0.00    -0.024 C 
HETATM    7  C   UNK N   1      26.024  24.462  -5.157  0.00  0.00    -0.087 C 
HETATM    8  C   UNK N   1      26.576  24.303  -3.779  0.00  0.00     0.043 C 
BRANCH   7   9
HETATM    9  C   UNK N   1      25.828  23.227  -5.985  0.00  0.00     0.037 C 
BRANCH   9  10
HETATM   10  C   UNK N   1      25.635  23.571  -7.468  0.00  0.00     0.031 C 
BRANCH  10  11
HETATM   11  C   UNK N   1      26.682  22.913  -8.327  0.00  0.00    -0.024 C 
HETATM   12  C   UNK N   1      26.644  21.635  -8.706  0.00  0.00    -0.091 C 
HETATM   13  C   UNK N   1      25.544  20.721  -8.277  0.00  0.00     0.042 C 
HETATM   14  C   UNK N   1      27.742  21.107  -9.562  0.00  0.00     0.042 C 
ENDBRANCH  10  11
ENDBRANCH   9  10
ENDBRANCH   7   9
ENDBRANCH   5   6
ENDBRANCH   4   5
ENDBRANCH   1   4
BRANCH   2  15
HETATM   15  C   UNK N   1      29.972  26.622  -5.103  0.00  0.00     0.106 C 
BRANCH  15  16
HETATM   16  S   UNK N   1      30.518  25.619  -3.684  0.00  0.00    -0.125 SA
BRANCH  16  17
HETATM   17  C   UNK N   1      30.217  24.062  -4.516  0.00  0.00     0.017 A 
HETATM   18  C   UNK N   1      29.767  24.119  -5.841  0.00  0.00     0.019 A 
HETATM   19  C   UNK N   1      29.480  22.951  -6.545  0.00  0.00     0.001 A 
HETATM   20  C   UNK N   1      29.633  21.712  -5.927  0.00  0.00     0.001 A 
HETATM   21  C   UNK N   1      30.079  21.639  -4.607  0.00  0.00     0.020 A 
HETATM   22  C   UNK N   1      30.380  22.802  -3.880  0.00  0.00     0.054 A 
BRANCH  22  23
HETATM   23  C   UNK N   1      30.850  22.639  -2.476  0.00  0.00     0.177 C 
HETATM   24  O   UNK N   1      30.202  23.072  -1.534  0.00  0.00    -0.646 OA
BRANCH  23  25
HETATM   25  O   UNK N   1      32.014  22.010  -2.229  0.00  0.00    -0.773 OA
HETATM   26  H   UNK N   1      32.569  22.174  -1.492  0.00  0.00     0.167 HD
ENDBRANCH  23  25
ENDBRANCH  22  23
ENDBRANCH  16  17
ENDBRANCH  15  16
ENDBRANCH   2  15
TORSDOF 11
ENDMDL
MODEL 5
REMARK VINA RESULT:      -6.5      5.085      7.784
REMARK  11 active torsions:
REMARK  status: ('A' for Active; 'I' for Inactive)
REMARK    1  A    between atoms: C_3  and  C_4 
REMARK    2  A    between atoms: C_4  and  C_5 
REMARK    3  A    between atoms: C_5  and  C_6 
REMARK    4  A    between atoms: C_7  and  C_8 
REMARK    5  A    between atoms: C_8  and  C_9 
REMARK    6  A    between atoms: C_9  and  C_10 
REMARK    7  A    between atoms: C_11  and  C_12 
REMARK    8  A    between atoms: C_12  and  S_13 
REMARK    9  A    between atoms: S_13  and  C_14 
REMARK   10  A    between atoms: C_19  and  C_20 
REMARK   11  A    between atoms: C_20  and  O_22 
ROOT
HETATM    1  C   UNK N   1      32.605  17.212   5.246  0.00  0.00    -0.086 C 
HETATM    2  C   UNK N   1      31.447  16.805   5.785  0.00  0.00    -0.014 C 
HETATM    3  C   UNK N   1      32.705  17.567   3.788  0.00  0.00     0.043 C 
ENDROOT
BRANCH   1   4
HETATM    4  C   UNK N   1      33.799  17.358   6.135  0.00  0.00     0.037 C 
BRANCH   4   5
HETATM    5  C   UNK N   1      33.455  18.068   7.435  0.00  0.00     0.031 C 
BRANCH   5   6
HETATM    6  C   UNK N   1      34.394  17.747   8.559  0.00  0.00    -0.024 C 
HETATM    7  C   UNK N   1      34.294  16.673   9.358  0.00  0.00    -0.087 C 
HETATM    8  C   UNK N   1      33.202  15.665   9.210  0.00  0.00     0.043 C 
BRANCH   7   9
HETATM    9  C   UNK N   1      35.393  16.381  10.337  0.00  0.00     0.037 C 
BRANCH   9  10
HETATM   10  C   UNK N   1      34.978  15.295  11.338  0.00  0.00     0.031 C 
BRANCH  10  11
HETATM   11  C   UNK N   1      35.910  14.113  11.286  0.00  0.00    -0.024 C 
HETATM   12  C   UNK N   1      36.515  13.590  12.353  0.00  0.00    -0.091 C 
HETATM   13  C   UNK N   1      36.333  14.164  13.719  0.00  0.00     0.042 C 
HETATM   14  C   UNK N   1      37.410  12.415  12.166  0.00  0.00     0.042 C 
ENDBRANCH  10  11
ENDBRANCH   9  10
ENDBRANCH   7   9
ENDBRANCH   5   6
ENDBRANCH   4   5
ENDBRANCH   1   4
BRANCH   2  15
HETATM   15  C   UNK N   1      30.183  16.670   4.991  0.00  0.00     0.106 C 
BRANCH  15  16
HETATM   16  S   UNK N   1      28.770  16.454   6.120  0.00  0.00    -0.125 SA
BRANCH  16  17
HETATM   17  C   UNK N   1      28.208  18.144   5.933  0.00  0.00     0.017 A 
HETATM   18  C   UNK N   1      27.914  18.582   4.636  0.00  0.00     0.019 A 
HETATM   19  C   UNK N   1      27.502  19.894   4.406  0.00  0.00     0.001 A 
HETATM   20  C   UNK N   1      27.388  20.784   5.471  0.00  0.00     0.001 A 
HETATM   21  C   UNK N   1      27.680  20.362   6.769  0.00  0.00     0.020 A 
HETATM   22  C   UNK N   1      28.090  19.044   7.026  0.00  0.00     0.054 A 
BRANCH  22  23
HETATM   23  C   UNK N   1      28.383  18.673   8.439  0.00  0.00     0.177 C 
HETATM   24  O   UNK N   1      29.513  18.761   8.898  0.00  0.00    -0.646 OA
BRANCH  23  25
HETATM   25  O   UNK N   1      27.392  18.224   9.231  0.00  0.00    -0.773 OA
HETATM   26  H   UNK N   1      27.112  17.332   9.290  0.00  0.00     0.167 HD
ENDBRANCH  23  25
ENDBRANCH  22  23
ENDBRANCH  16  17
ENDBRANCH  15  16
ENDBRANCH   2  15
TORSDOF 11
ENDMDL
MODEL 6
REMARK VINA RESULT:      -6.5     11.099     14.985
REMARK  11 active torsions:
REMARK  status: ('A' for Active; 'I' for Inactive)
REMARK    1  A    between atoms: C_3  and  C_4 
REMARK    2  A    between atoms: C_4  and  C_5 
REMARK    3  A    between atoms: C_5  and  C_6 
REMARK    4  A    between atoms: C_7  and  C_8 
REMARK    5  A    between atoms: C_8  and  C_9 
REMARK    6  A    between atoms: C_9  and  C_10 
REMARK    7  A    between atoms: C_11  and  C_12 
REMARK    8  A    between atoms: C_12  and  S_13 
REMARK    9  A    between atoms: S_13  and  C_14 
REMARK   10  A    between atoms: C_19  and  C_20 
REMARK   11  A    between atoms: C_20  and  O_22 
ROOT
HETATM    1  C   UNK N   1      27.773  27.784  -5.592  0.00  0.00    -0.086 C 
HETATM    2  C   UNK N   1      28.558  27.180  -4.688  0.00  0.00    -0.014 C 
HETATM    3  C   UNK N   1      28.225  27.978  -7.013  0.00  0.00     0.043 C 
ENDROOT
BRANCH   1   4
HETATM    4  C   UNK N   1      26.405  28.223  -5.176  0.00  0.00     0.037 C 
BRANCH   4   5
HETATM    5  C   UNK N   1      25.498  27.041  -4.869  0.00  0.00     0.031 C 
BRANCH   5   6
HETATM    6  C   UNK N   1      25.531  25.974  -5.920  0.00  0.00    -0.024 C 
HETATM    7  C   UNK N   1      25.896  24.699  -5.708  0.00  0.00    -0.087 C 
HETATM    8  C   UNK N   1      26.327  24.205  -4.366  0.00  0.00     0.043 C 
BRANCH   7   9
HETATM    9  C   UNK N   1      25.726  23.693  -6.808  0.00  0.00     0.037 C 
BRANCH   9  10
HETATM   10  C   UNK N   1      26.396  24.164  -8.106  0.00  0.00     0.031 C 
BRANCH  10  11
HETATM   11  C   UNK N   1      25.377  24.608  -9.122  0.00  0.00    -0.024 C 
HETATM   12  C   UNK N   1      25.581  25.582 -10.010  0.00  0.00    -0.091 C 
HETATM   13  C   UNK N   1      26.861  26.349 -10.053  0.00  0.00     0.042 C 
HETATM   14  C   UNK N   1      24.491  25.921 -10.966  0.00  0.00     0.042 C 
ENDBRANCH  10  11
ENDBRANCH   9  10
ENDBRANCH   7   9
ENDBRANCH   5   6
ENDBRANCH   4   5
ENDBRANCH   1   4
BRANCH   2  15
HETATM   15  C   UNK N   1      29.926  26.663  -5.015  0.00  0.00     0.106 C 
BRANCH  15  16
HETATM   16  S   UNK N   1      30.534  25.628  -3.645  0.00  0.00    -0.125 SA
BRANCH  16  17
HETATM   17  C   UNK N   1      30.207  24.091  -4.504  0.00  0.00     0.017 A 
HETATM   18  C   UNK N   1      29.723  24.178  -5.814  0.00  0.00     0.019 A 
HETATM   19  C   UNK N   1      29.415  23.027  -6.536  0.00  0.00     0.001 A 
HETATM   20  C   UNK N   1      29.580  21.774  -5.951  0.00  0.00     0.001 A 
HETATM   21  C   UNK N   1      30.060  21.671  -4.644  0.00  0.00     0.020 A 
HETATM   22  C   UNK N   1      30.383  22.817  -3.899  0.00  0.00     0.054 A 
BRANCH  22  23
HETATM   23  C   UNK N   1      30.889  22.622  -2.512  0.00  0.00     0.177 C 
HETATM   24  O   UNK N   1      31.957  22.068  -2.297  0.00  0.00    -0.646 OA
BRANCH  23  25
HETATM   25  O   UNK N   1      30.158  23.054  -1.467  0.00  0.00    -0.773 OA
HETATM   26  H   UNK N   1      29.738  22.500  -0.839  0.00  0.00     0.167 HD
ENDBRANCH  23  25
ENDBRANCH  22  23
ENDBRANCH  16  17
ENDBRANCH  15  16
ENDBRANCH   2  15
TORSDOF 11
ENDMDL
MODEL 7
REMARK VINA RESULT:      -6.4     10.935     14.370
REMARK  11 active torsions:
REMARK  status: ('A' for Active; 'I' for Inactive)
REMARK    1  A    between atoms: C_3  and  C_4 
REMARK    2  A    between atoms: C_4  and  C_5 
REMARK    3  A    between atoms: C_5  and  C_6 
REMARK    4  A    between atoms: C_7  and  C_8 
REMARK    5  A    between atoms: C_8  and  C_9 
REMARK    6  A    between atoms: C_9  and  C_10 
REMARK    7  A    between atoms: C_11  and  C_12 
REMARK    8  A    between atoms: C_12  and  S_13 
REMARK    9  A    between atoms: S_13  and  C_14 
REMARK   10  A    between atoms: C_19  and  C_20 
REMARK   11  A    between atoms: C_20  and  O_22 
ROOT
HETATM    1  C   UNK N   1      27.694  24.939  -7.192  0.00  0.00    -0.086 C 
HETATM    2  C   UNK N   1      28.833  25.608  -6.962  0.00  0.00    -0.014 C 
HETATM    3  C   UNK N   1      27.646  23.437  -7.139  0.00  0.00     0.043 C 
ENDROOT
BRANCH   1   4
HETATM    4  C   UNK N   1      26.444  25.718  -7.454  0.00  0.00     0.037 C 
BRANCH   4   5
HETATM    5  C   UNK N   1      25.421  25.542  -6.343  0.00  0.00     0.031 C 
BRANCH   5   6
HETATM    6  C   UNK N   1      25.222  26.773  -5.512  0.00  0.00    -0.024 C 
HETATM    7  C   UNK N   1      25.850  27.026  -4.352  0.00  0.00    -0.087 C 
HETATM    8  C   UNK N   1      26.832  26.075  -3.752  0.00  0.00     0.043 C 
BRANCH   7   9
HETATM    9  C   UNK N   1      25.684  28.369  -3.705  0.00  0.00     0.037 C 
BRANCH   9  10
HETATM   10  C   UNK N   1      26.937  29.237  -3.886  0.00  0.00     0.031 C 
BRANCH  10  11
HETATM   11  C   UNK N   1      27.297  29.386  -5.341  0.00  0.00    -0.024 C 
HETATM   12  C   UNK N   1      28.494  29.088  -5.848  0.00  0.00    -0.091 C 
HETATM   13  C   UNK N   1      29.611  28.594  -4.990  0.00  0.00     0.042 C 
HETATM   14  C   UNK N   1      28.721  29.275  -7.309  0.00  0.00     0.042 C 
ENDBRANCH  10  11
ENDBRANCH   9  10
ENDBRANCH   7   9
ENDBRANCH   5   6
ENDBRANCH   4   5
ENDBRANCH   1   4
BRANCH   2  15
HETATM   15  C   UNK N   1      30.128  24.924  -6.645  0.00  0.00     0.106 C 
BRANCH  15  16
HETATM   16  S   UNK N   1      30.383  24.899  -4.841  0.00  0.00    -0.125 SA
BRANCH  16  17
HETATM   17  C   UNK N   1      30.682  23.134  -4.787  0.00  0.00     0.017 A 
HETATM   18  C   UNK N   1      31.202  22.536  -5.941  0.00  0.00     0.019 A 
HETATM   19  C   UNK N   1      31.432  21.162  -5.987  0.00  0.00     0.001 A 
HETATM   20  C   UNK N   1      31.135  20.370  -4.880  0.00  0.00     0.001 A 
HETATM   21  C   UNK N   1      30.614  20.952  -3.724  0.00  0.00     0.020 A 
HETATM   22  C   UNK N   1      30.380  22.335  -3.652  0.00  0.00     0.054 A 
BRANCH  22  23
HETATM   23  C   UNK N   1      29.821  22.878  -2.382  0.00  0.00     0.177 C 
HETATM   24  O   UNK N   1      30.524  23.035  -1.395  0.00  0.00    -0.646 OA
BRANCH  23  25
HETATM   25  O   UNK N   1      28.516  23.198  -2.309  0.00  0.00    -0.773 OA
HETATM   26  H   UNK N   1      28.030  23.295  -1.514  0.00  0.00     0.167 HD
ENDBRANCH  23  25
ENDBRANCH  22  23
ENDBRANCH  16  17
ENDBRANCH  15  16
ENDBRANCH   2  15
TORSDOF 11
ENDMDL
MODEL 8
REMARK VINA RESULT:      -6.4      4.781      6.239
REMARK  11 active torsions:
REMARK  status: ('A' for Active; 'I' for Inactive)
REMARK    1  A    between atoms: C_3  and  C_4 
REMARK    2  A    between atoms: C_4  and  C_5 
REMARK    3  A    between atoms: C_5  and  C_6 
REMARK    4  A    between atoms: C_7  and  C_8 
REMARK    5  A    between atoms: C_8  and  C_9 
REMARK    6  A    between atoms: C_9  and  C_10 
REMARK    7  A    between atoms: C_11  and  C_12 
REMARK    8  A    between atoms: C_12  and  S_13 
REMARK    9  A    between atoms: S_13  and  C_14 
REMARK   10  A    between atoms: C_19  and  C_20 
REMARK   11  A    between atoms: C_20  and  O_22 
ROOT
HETATM    1  C   UNK N   1      21.042  15.187   7.487  0.00  0.00    -0.086 C 
HETATM    2  C   UNK N   1      21.866  16.139   7.024  0.00  0.00    -0.014 C 
HETATM    3  C   UNK N   1      20.684  13.989   6.651  0.00  0.00     0.043 C 
ENDROOT
BRANCH   1   4
HETATM    4  C   UNK N   1      20.518  15.309   8.883  0.00  0.00     0.037 C 
BRANCH   4   5
HETATM    5  C   UNK N   1      20.735  14.035   9.684  0.00  0.00     0.031 C 
BRANCH   5   6
HETATM    6  C   UNK N   1      22.177  13.643   9.805  0.00  0.00    -0.024 C 
HETATM    7  C   UNK N   1      22.649  12.702  10.638  0.00  0.00    -0.087 C 
HETATM    8  C   UNK N   1      21.760  11.934  11.560  0.00  0.00     0.043 C 
BRANCH   7   9
HETATM    9  C   UNK N   1      24.088  12.290  10.542  0.00  0.00     0.037 C 
BRANCH   9  10
HETATM   10  C   UNK N   1      24.862  13.186   9.565  0.00  0.00     0.031 C 
BRANCH  10  11
HETATM   11  C   UNK N   1      24.622  12.779   8.135  0.00  0.00    -0.024 C 
HETATM   12  C   UNK N   1      24.954  13.523   7.080  0.00  0.00    -0.091 C 
HETATM   13  C   UNK N   1      25.585  14.867   7.234  0.00  0.00     0.042 C 
HETATM   14  C   UNK N   1      24.666  13.001   5.715  0.00  0.00     0.042 C 
ENDBRANCH  10  11
ENDBRANCH   9  10
ENDBRANCH   7   9
ENDBRANCH   5   6
ENDBRANCH   4   5
ENDBRANCH   1   4
BRANCH   2  15
HETATM   15  C   UNK N   1      22.480  16.087   5.658  0.00  0.00     0.106 C 
BRANCH  15  16
HETATM   16  S   UNK N   1      22.725  17.780   5.031  0.00  0.00    -0.125 SA
BRANCH  16  17
HETATM   17  C   UNK N   1      21.687  17.526   3.594  0.00  0.00     0.017 A 
HETATM   18  C   UNK N   1      21.524  16.210   3.145  0.00  0.00     0.019 A 
HETATM   19  C   UNK N   1      20.758  15.935   2.014  0.00  0.00     0.001 A 
HETATM   20  C   UNK N   1      20.151  16.976   1.315  0.00  0.00     0.001 A 
HETATM   21  C   UNK N   1      20.306  18.293   1.749  0.00  0.00     0.020 A 
HETATM   22  C   UNK N   1      21.069  18.594   2.890  0.00  0.00     0.054 A 
BRANCH  22  23
HETATM   23  C   UNK N   1      21.185  20.025   3.287  0.00  0.00     0.177 C 
HETATM   24  O   UNK N   1      20.277  20.598   3.871  0.00  0.00    -0.646 OA
BRANCH  23  25
HETATM   25  O   UNK N   1      22.306  20.710   2.996  0.00  0.00    -0.773 OA
HETATM   26  H   UNK N   1      22.912  20.487   2.318  0.00  0.00     0.167 HD
ENDBRANCH  23  25
ENDBRANCH  22  23
ENDBRANCH  16  17
ENDBRANCH  15  16
ENDBRANCH   2  15
TORSDOF 11
ENDMDL
MODEL 9
REMARK VINA RESULT:      -6.3     10.909     14.445
REMARK  11 active torsions:
REMARK  status: ('A' for Active; 'I' for Inactive)
REMARK    1  A    between atoms: C_3  and  C_4 
REMARK    2  A    between atoms: C_4  and  C_5 
REMARK    3  A    between atoms: C_5  and  C_6 
REMARK    4  A    between atoms: C_7  and  C_8 
REMARK    5  A    between atoms: C_8  and  C_9 
REMARK    6  A    between atoms: C_9  and  C_10 
REMARK    7  A    between atoms: C_11  and  C_12 
REMARK    8  A    between atoms: C_12  and  S_13 
REMARK    9  A    between atoms: S_13  and  C_14 
REMARK   10  A    between atoms: C_19  and  C_20 
REMARK   11  A    between atoms: C_20  and  O_22 
ROOT
HETATM    1  C   UNK N   1      29.260  27.172  -7.520  0.00  0.00    -0.086 C 
HETATM    2  C   UNK N   1      28.598  26.168  -6.929  0.00  0.00    -0.014 C 
HETATM    3  C   UNK N   1      30.718  27.048  -7.868  0.00  0.00     0.043 C 
ENDROOT
BRANCH   1   4
HETATM    4  C   UNK N   1      28.509  28.415  -7.879  0.00  0.00     0.037 C 
BRANCH   4   5
HETATM    5  C   UNK N   1      28.721  29.522  -6.858  0.00  0.00     0.031 C 
BRANCH   5   6
HETATM    6  C   UNK N   1      27.786  29.446  -5.690  0.00  0.00    -0.024 C 
HETATM    7  C   UNK N   1      28.138  29.072  -4.449  0.00  0.00    -0.087 C 
HETATM    8  C   UNK N   1      29.535  28.675  -4.100  0.00  0.00     0.043 C 
BRANCH   7   9
HETATM    9  C   UNK N   1      27.143  29.198  -3.334  0.00  0.00     0.037 C 
BRANCH   9  10
HETATM   10  C   UNK N   1      25.830  28.477  -3.670  0.00  0.00     0.031 C 
BRANCH  10  11
HETATM   11  C   UNK N   1      26.021  26.984  -3.729  0.00  0.00    -0.024 C 
HETATM   12  C   UNK N   1      25.692  26.229  -4.778  0.00  0.00    -0.091 C 
HETATM   13  C   UNK N   1      25.067  26.814  -6.001  0.00  0.00     0.042 C 
HETATM   14  C   UNK N   1      25.938  24.762  -4.711  0.00  0.00     0.042 C 
ENDBRANCH  10  11
ENDBRANCH   9  10
ENDBRANCH   7   9
ENDBRANCH   5   6
ENDBRANCH   4   5
ENDBRANCH   1   4
BRANCH   2  15
HETATM   15  C   UNK N   1      29.247  24.865  -6.570  0.00  0.00     0.106 C 
BRANCH  15  16
HETATM   16  S   UNK N   1      29.759  24.897  -4.822  0.00  0.00    -0.125 SA
BRANCH  16  17
HETATM   17  C   UNK N   1      30.225  23.168  -4.803  0.00  0.00     0.017 A 
HETATM   18  C   UNK N   1      30.679  22.613  -6.006  0.00  0.00     0.019 A 
HETATM   19  C   UNK N   1      31.030  21.266  -6.079  0.00  0.00     0.001 A 
HETATM   20  C   UNK N   1      30.924  20.457  -4.950  0.00  0.00     0.001 A 
HETATM   21  C   UNK N   1      30.471  20.996  -3.745  0.00  0.00     0.020 A 
HETATM   22  C   UNK N   1      30.117  22.352  -3.645  0.00  0.00     0.054 A 
BRANCH  22  23
HETATM   23  C   UNK N   1      29.643  22.849  -2.323  0.00  0.00     0.177 C 
HETATM   24  O   UNK N   1      28.452  22.994  -2.089  0.00  0.00    -0.646 OA
BRANCH  23  25
HETATM   25  O   UNK N   1      30.537  23.153  -1.364  0.00  0.00    -0.773 OA
HETATM   26  H   UNK N   1      30.516  23.925  -0.835  0.00  0.00     0.167 HD
ENDBRANCH  23  25
ENDBRANCH  22  23
ENDBRANCH  16  17
ENDBRANCH  15  16
ENDBRANCH   2  15
TORSDOF 11
ENDMDL
