MODEL 1
REMARK VINA RESULT:      -8.1      0.000      0.000
REMARK  7 active torsions:
REMARK  status: ('A' for Active; 'I' for Inactive)
REMARK    1  A    between atoms: N_34  and  C_3 
REMARK    2  A    between atoms: C_21  and  C_18 
REMARK    3  A    between atoms: N_35  and  C_18 
REMARK    4  A    between atoms: C_22  and  C_20 
REMARK    5  A    between atoms: N_31  and  C_20 
REMARK    6  A    between atoms: C_25  and  C_23 
REMARK    7  A    between atoms: N_31  and  C_26 
ROOT
HETATM    1  C   UNK N   1      29.342  16.554   6.366  0.00  0.00     0.049 A 
HETATM    2  C   UNK N   1      29.517  18.606   9.842  0.00  0.00     0.183 A 
HETATM    3  C   UNK N   1      29.607  17.210   7.519  0.00  0.00     0.054 A 
HETATM    4  C   UNK N   1      28.011  16.767   6.098  0.00  0.00     0.045 A 
HETATM    5  C   UNK N   1      30.796  17.369   8.243  0.00  0.00     0.116 A 
HETATM    6  C   UNK N   1      28.444  17.773   7.935  0.00  0.00     0.120 A 
HETATM    7  N   UNK N   1      30.709  18.062   9.418  0.00  0.00    -0.338 N 
ATOM      8  HN  UNK N   1      31.544  18.179   9.992  1.00  0.00     0.168 HD
HETATM    9  N   UNK N   1      28.376  18.479   9.089  0.00  0.00    -0.338 N 
HETATM   10  N   UNK N   1      27.437  17.540   7.059  0.00  0.00    -0.341 N 
HETATM   11  H   UNK N   1      27.530  18.889   9.382  0.00  0.00     0.168 HD
HETATM   12  H   UNK N   1      26.506  17.855   7.108  0.00  0.00     0.167 HD
ENDROOT
BRANCH   4  13
HETATM   13  C   UNK N   1      27.427  16.228   4.860  0.00  0.00    -0.009 A 
HETATM   14  C   UNK N   1      27.451  14.872   4.500  0.00  0.00     0.014 A 
HETATM   15  C   UNK N   1      26.710  14.444   3.376  0.00  0.00     0.010 A 
HETATM   16  C   UNK N   1      25.975  15.376   2.616  0.00  0.00    -0.030 A 
HETATM   17  C   UNK N   1      26.031  16.722   2.944  0.00  0.00     0.010 A 
HETATM   18  C   UNK N   1      26.721  17.135   4.062  0.00  0.00     0.014 A 
BRANCH  16  19
HETATM   19  C   UNK N   1      25.131  14.959   1.442  0.00  0.00     0.311 C 
BRANCH  19  20
HETATM   20  N   UNK N   1      24.024  14.016   1.737  0.00  0.00     0.096 N 
HETATM   21  C   UNK N   1      23.475  13.542   0.457  0.00  0.00     0.303 C 
HETATM   22  C   UNK N   1      21.970  13.264   0.530  0.00  0.00     0.302 C 
HETATM   23  N   UNK N   1      21.247  14.495   0.859  0.00  0.00     0.091 N 
HETATM   24  C   UNK N   1      21.826  15.207   2.012  0.00  0.00     0.302 C 
HETATM   25  C   UNK N   1      22.988  14.459   2.696  0.00  0.00     0.303 C 
BRANCH  23  26
HETATM   26  C   UNK N   1      19.878  14.128   1.188  0.00  0.00     0.268 C 
HETATM   27  C   UNK N   1      19.492  12.834   0.488  0.00  0.00     0.037 C 
ENDBRANCH  23  26
ENDBRANCH  19  20
ENDBRANCH  16  19
ENDBRANCH   4  13
BRANCH   5  28
HETATM   28  N   UNK N   1      31.952  16.918   7.831  0.00  0.00    -0.367 N 
ATOM     29  HN  UNK N   1      32.248  16.000   8.163  1.00  0.00     0.161 HD
BRANCH  28  30
HETATM   30  C   UNK N   1      32.854  17.639   6.925  0.00  0.00     0.112 C 
HETATM   31  C   UNK N   1      34.249  17.706   7.553  0.00  0.00     0.037 C 
BRANCH  30  32
HETATM   32  C   UNK N   1      33.009  17.024   5.564  0.00  0.00    -0.036 A 
HETATM   33  C   UNK N   1      32.338  17.623   4.482  0.00  0.00     0.009 A 
HETATM   34  C   UNK N   1      32.440  17.092   3.198  0.00  0.00     0.001 A 
HETATM   35  C   UNK N   1      33.213  15.950   2.981  0.00  0.00     0.000 A 
HETATM   36  C   UNK N   1      33.881  15.343   4.051  0.00  0.00     0.001 A 
HETATM   37  C   UNK N   1      33.780  15.875   5.342  0.00  0.00     0.009 A 
ENDBRANCH  30  32
ENDBRANCH  28  30
ENDBRANCH   5  28
TORSDOF 7
ENDMDL
MODEL 2
REMARK VINA RESULT:      -7.7      7.037     10.467
REMARK  7 active torsions:
REMARK  status: ('A' for Active; 'I' for Inactive)
REMARK    1  A    between atoms: N_34  and  C_3 
REMARK    2  A    between atoms: C_21  and  C_18 
REMARK    3  A    between atoms: N_35  and  C_18 
REMARK    4  A    between atoms: C_22  and  C_20 
REMARK    5  A    between atoms: N_31  and  C_20 
REMARK    6  A    between atoms: C_25  and  C_23 
REMARK    7  A    between atoms: N_31  and  C_26 
ROOT
HETATM    1  C   UNK N   1      35.173  14.514  12.024  0.00  0.00     0.049 A 
HETATM    2  C   UNK N   1      37.916  11.590  12.522  0.00  0.00     0.183 A 
HETATM    3  C   UNK N   1      36.048  13.552  12.395  0.00  0.00     0.054 A 
HETATM    4  C   UNK N   1      35.127  14.486  10.650  0.00  0.00     0.045 A 
HETATM    5  C   UNK N   1      36.460  13.111  13.659  0.00  0.00     0.116 A 
HETATM    6  C   UNK N   1      36.530  12.990  11.257  0.00  0.00     0.120 A 
HETATM    7  N   UNK N   1      37.416  12.134  13.684  0.00  0.00    -0.338 N 
ATOM      8  HN  UNK N   1      37.766  11.801  14.583  1.00  0.00     0.168 HD
HETATM    9  N   UNK N   1      37.459  12.005  11.295  0.00  0.00    -0.338 N 
HETATM   10  N   UNK N   1      35.957  13.529  10.154  0.00  0.00    -0.341 N 
HETATM   11  H   UNK N   1      37.799  11.598  10.466  0.00  0.00     0.168 HD
HETATM   12  H   UNK N   1      36.107  13.286   9.211  0.00  0.00     0.167 HD
ENDROOT
BRANCH   4  13
HETATM   13  C   UNK N   1      34.204  15.384   9.939  0.00  0.00    -0.009 A 
HETATM   14  C   UNK N   1      34.542  16.671   9.490  0.00  0.00     0.014 A 
HETATM   15  C   UNK N   1      33.634  17.374   8.669  0.00  0.00     0.010 A 
HETATM   16  C   UNK N   1      32.395  16.795   8.326  0.00  0.00    -0.030 A 
HETATM   17  C   UNK N   1      32.051  15.558   8.846  0.00  0.00     0.010 A 
HETATM   18  C   UNK N   1      32.951  14.854   9.615  0.00  0.00     0.014 A 
BRANCH  16  19
HETATM   19  C   UNK N   1      31.418  17.486   7.413  0.00  0.00     0.311 C 
BRANCH  19  20
HETATM   20  N   UNK N   1      30.081  16.856   7.291  0.00  0.00     0.096 N 
HETATM   21  C   UNK N   1      29.904  16.423   5.896  0.00  0.00     0.303 C 
HETATM   22  C   UNK N   1      28.447  16.514   5.432  0.00  0.00     0.302 C 
HETATM   23  N   UNK N   1      27.985  17.902   5.494  0.00  0.00     0.091 N 
HETATM   24  C   UNK N   1      28.290  18.548   6.784  0.00  0.00     0.302 C 
HETATM   25  C   UNK N   1      28.922  17.605   7.827  0.00  0.00     0.303 C 
BRANCH  23  26
HETATM   26  C   UNK N   1      26.540  17.894   5.317  0.00  0.00     0.268 C 
HETATM   27  C   UNK N   1      26.008  16.469   5.350  0.00  0.00     0.037 C 
ENDBRANCH  23  26
ENDBRANCH  19  20
ENDBRANCH  16  19
ENDBRANCH   4  13
BRANCH   5  28
HETATM   28  N   UNK N   1      35.956  13.564  14.776  0.00  0.00    -0.367 N 
ATOM     29  HN  UNK N   1      36.400  14.380  15.199  1.00  0.00     0.161 HD
BRANCH  28  30
HETATM   30  C   UNK N   1      34.797  12.985  15.465  0.00  0.00     0.112 C 
HETATM   31  C   UNK N   1      34.328  11.742  14.703  0.00  0.00     0.037 C 
BRANCH  30  32
HETATM   32  C   UNK N   1      35.048  12.567  16.885  0.00  0.00    -0.036 A 
HETATM   33  C   UNK N   1      35.282  11.204  17.146  0.00  0.00     0.009 A 
HETATM   34  C   UNK N   1      35.513  10.757  18.446  0.00  0.00     0.001 A 
HETATM   35  C   UNK N   1      35.510  11.669  19.502  0.00  0.00     0.000 A 
HETATM   36  C   UNK N   1      35.273  13.027  19.254  0.00  0.00     0.001 A 
HETATM   37  C   UNK N   1      35.041  13.478  17.949  0.00  0.00     0.009 A 
ENDBRANCH  30  32
ENDBRANCH  28  30
ENDBRANCH   5  28
TORSDOF 7
ENDMDL
MODEL 3
REMARK VINA RESULT:      -7.7      4.333     10.752
REMARK  7 active torsions:
REMARK  status: ('A' for Active; 'I' for Inactive)
REMARK    1  A    between atoms: N_34  and  C_3 
REMARK    2  A    between atoms: C_21  and  C_18 
REMARK    3  A    between atoms: N_35  and  C_18 
REMARK    4  A    between atoms: C_22  and  C_20 
REMARK    5  A    between atoms: N_31  and  C_20 
REMARK    6  A    between atoms: C_25  and  C_23 
REMARK    7  A    between atoms: N_31  and  C_26 
ROOT
HETATM    1  C   UNK N   1      25.848  15.371   6.472  0.00  0.00     0.049 A 
HETATM    2  C   UNK N   1      22.289  16.678   5.075  0.00  0.00     0.183 A 
HETATM    3  C   UNK N   1      24.575  15.648   6.111  0.00  0.00     0.054 A 
HETATM    4  C   UNK N   1      26.613  16.423   6.028  0.00  0.00     0.045 A 
HETATM    5  C   UNK N   1      23.377  14.954   6.328  0.00  0.00     0.116 A 
HETATM    6  C   UNK N   1      24.597  16.828   5.440  0.00  0.00     0.120 A 
HETATM    7  N   UNK N   1      22.249  15.492   5.775  0.00  0.00    -0.338 N 
ATOM      8  HN  UNK N   1      21.358  15.007   5.885  1.00  0.00     0.168 HD
HETATM    9  N   UNK N   1      23.468  17.365   4.918  0.00  0.00    -0.338 N 
HETATM   10  N   UNK N   1      25.846  17.351   5.395  0.00  0.00    -0.341 N 
HETATM   11  H   UNK N   1      23.491  18.224   4.439  0.00  0.00     0.168 HD
HETATM   12  H   UNK N   1      26.133  18.204   4.995  0.00  0.00     0.167 HD
ENDROOT
BRANCH   4  13
HETATM   13  C   UNK N   1      28.053  16.447   6.328  0.00  0.00    -0.009 A 
HETATM   14  C   UNK N   1      29.013  15.671   5.659  0.00  0.00     0.014 A 
HETATM   15  C   UNK N   1      30.384  15.903   5.911  0.00  0.00     0.010 A 
HETATM   16  C   UNK N   1      30.776  16.887   6.841  0.00  0.00    -0.030 A 
HETATM   17  C   UNK N   1      29.808  17.585   7.547  0.00  0.00     0.010 A 
HETATM   18  C   UNK N   1      28.473  17.388   7.275  0.00  0.00     0.014 A 
BRANCH  16  19
HETATM   19  C   UNK N   1      32.223  17.203   7.104  0.00  0.00     0.311 C 
BRANCH  19  20
HETATM   20  N   UNK N   1      32.694  16.996   8.495  0.00  0.00     0.096 N 
HETATM   21  C   UNK N   1      33.995  17.667   8.643  0.00  0.00     0.303 C 
HETATM   22  C   UNK N   1      34.924  16.940   9.621  0.00  0.00     0.302 C 
HETATM   23  N   UNK N   1      35.210  15.589   9.133  0.00  0.00     0.091 N 
HETATM   24  C   UNK N   1      33.994  14.856   8.737  0.00  0.00     0.302 C 
HETATM   25  C   UNK N   1      32.681  15.613   9.022  0.00  0.00     0.303 C 
BRANCH  23  26
HETATM   26  C   UNK N   1      35.854  14.857  10.214  0.00  0.00     0.268 C 
HETATM   27  C   UNK N   1      35.673  15.591  11.534  0.00  0.00     0.037 C 
ENDBRANCH  23  26
ENDBRANCH  19  20
ENDBRANCH  16  19
ENDBRANCH   4  13
BRANCH   5  28
HETATM   28  N   UNK N   1      23.301  13.862   7.042  0.00  0.00    -0.367 N 
ATOM     29  HN  UNK N   1      23.998  13.136   6.874  1.00  0.00     0.161 HD
BRANCH  28  30
HETATM   30  C   UNK N   1      22.284  13.606   8.069  0.00  0.00     0.112 C 
HETATM   31  C   UNK N   1      21.252  12.617   7.520  0.00  0.00     0.037 C 
BRANCH  30  32
HETATM   32  C   UNK N   1      22.811  13.031   9.353  0.00  0.00    -0.036 A 
HETATM   33  C   UNK N   1      24.202  12.873   9.490  0.00  0.00     0.009 A 
HETATM   34  C   UNK N   1      24.747  12.338  10.656  0.00  0.00     0.001 A 
HETATM   35  C   UNK N   1      23.904  11.950  11.698  0.00  0.00     0.000 A 
HETATM   36  C   UNK N   1      22.518  12.098  11.570  0.00  0.00     0.001 A 
HETATM   37  C   UNK N   1      21.969  12.636  10.400  0.00  0.00     0.009 A 
ENDBRANCH  30  32
ENDBRANCH  28  30
ENDBRANCH   5  28
TORSDOF 7
ENDMDL
MODEL 4
REMARK VINA RESULT:      -7.6      3.733     10.784
REMARK  7 active torsions:
REMARK  status: ('A' for Active; 'I' for Inactive)
REMARK    1  A    between atoms: N_34  and  C_3 
REMARK    2  A    between atoms: C_21  and  C_18 
REMARK    3  A    between atoms: N_35  and  C_18 
REMARK    4  A    between atoms: C_22  and  C_20 
REMARK    5  A    between atoms: N_31  and  C_20 
REMARK    6  A    between atoms: C_25  and  C_23 
REMARK    7  A    between atoms: N_31  and  C_26 
ROOT
HETATM    1  C   UNK N   1      26.709  18.222   5.383  0.00  0.00     0.049 A 
HETATM    2  C   UNK N   1      24.609  20.459   2.754  0.00  0.00     0.183 A 
HETATM    3  C   UNK N   1      25.838  18.911   4.611  0.00  0.00     0.054 A 
HETATM    4  C   UNK N   1      27.967  18.597   4.973  0.00  0.00     0.045 A 
HETATM    5  C   UNK N   1      24.438  18.954   4.606  0.00  0.00     0.116 A 
HETATM    6  C   UNK N   1      26.572  19.655   3.744  0.00  0.00     0.120 A 
HETATM    7  N   UNK N   1      23.853  19.730   3.644  0.00  0.00    -0.338 N 
ATOM      8  HN  UNK N   1      22.835  19.770   3.585  1.00  0.00     0.168 HD
HETATM    9  N   UNK N   1      25.981  20.439   2.812  0.00  0.00    -0.338 N 
HETATM   10  N   UNK N   1      27.901  19.504   3.961  0.00  0.00    -0.341 N 
HETATM   11  H   UNK N   1      26.520  20.980   2.191  0.00  0.00     0.168 HD
HETATM   12  H   UNK N   1      28.646  19.946   3.494  0.00  0.00     0.167 HD
ENDROOT
BRANCH   4  13
HETATM   13  C   UNK N   1      29.145  18.061   5.673  0.00  0.00    -0.009 A 
HETATM   14  C   UNK N   1      29.222  17.874   7.062  0.00  0.00     0.014 A 
HETATM   15  C   UNK N   1      30.334  17.193   7.605  0.00  0.00     0.010 A 
HETATM   16  C   UNK N   1      31.361  16.727   6.759  0.00  0.00    -0.030 A 
HETATM   17  C   UNK N   1      31.300  16.993   5.400  0.00  0.00     0.010 A 
HETATM   18  C   UNK N   1      30.199  17.623   4.864  0.00  0.00     0.014 A 
BRANCH  16  19
HETATM   19  C   UNK N   1      32.537  15.952   7.287  0.00  0.00     0.311 C 
BRANCH  19  20
HETATM   20  N   UNK N   1      32.888  16.185   8.709  0.00  0.00     0.096 N 
HETATM   21  C   UNK N   1      34.048  17.088   8.753  0.00  0.00     0.303 C 
HETATM   22  C   UNK N   1      34.971  16.803   9.942  0.00  0.00     0.302 C 
HETATM   23  N   UNK N   1      35.509  15.444   9.847  0.00  0.00     0.091 N 
HETATM   24  C   UNK N   1      34.467  14.435   9.586  0.00  0.00     0.302 C 
HETATM   25  C   UNK N   1      33.032  14.998   9.581  0.00  0.00     0.303 C 
BRANCH  23  26
HETATM   26  C   UNK N   1      36.141  15.131  11.120  0.00  0.00     0.268 C 
HETATM   27  C   UNK N   1      35.482  13.917  11.756  0.00  0.00     0.037 C 
ENDBRANCH  23  26
ENDBRANCH  19  20
ENDBRANCH  16  19
ENDBRANCH   4  13
BRANCH   5  28
HETATM   28  N   UNK N   1      23.698  18.323   5.479  0.00  0.00    -0.367 N 
ATOM     29  HN  UNK N   1      23.806  18.576   6.462  1.00  0.00     0.161 HD
BRANCH  28  30
HETATM   30  C   UNK N   1      22.723  17.278   5.148  0.00  0.00     0.112 C 
HETATM   31  C   UNK N   1      23.448  16.109   4.474  0.00  0.00     0.037 C 
BRANCH  30  32
HETATM   32  C   UNK N   1      21.971  16.717   6.321  0.00  0.00    -0.036 A 
HETATM   33  C   UNK N   1      22.336  15.444   6.798  0.00  0.00     0.009 A 
HETATM   34  C   UNK N   1      21.668  14.871   7.879  0.00  0.00     0.001 A 
HETATM   35  C   UNK N   1      20.625  15.563   8.493  0.00  0.00     0.000 A 
HETATM   36  C   UNK N   1      20.250  16.828   8.024  0.00  0.00     0.001 A 
HETATM   37  C   UNK N   1      20.920  17.406   6.938  0.00  0.00     0.009 A 
ENDBRANCH  30  32
ENDBRANCH  28  30
ENDBRANCH   5  28
TORSDOF 7
ENDMDL
MODEL 5
REMARK VINA RESULT:      -7.6      3.058     10.665
REMARK  7 active torsions:
REMARK  status: ('A' for Active; 'I' for Inactive)
REMARK    1  A    between atoms: N_34  and  C_3 
REMARK    2  A    between atoms: C_21  and  C_18 
REMARK    3  A    between atoms: N_35  and  C_18 
REMARK    4  A    between atoms: C_22  and  C_20 
REMARK    5  A    between atoms: N_31  and  C_20 
REMARK    6  A    between atoms: C_25  and  C_23 
REMARK    7  A    between atoms: N_31  and  C_26 
ROOT
HETATM    1  C   UNK N   1      26.670  18.141   5.196  0.00  0.00     0.049 A 
HETATM    2  C   UNK N   1      24.527  20.565   2.776  0.00  0.00     0.183 A 
HETATM    3  C   UNK N   1      25.785  18.879   4.488  0.00  0.00     0.054 A 
HETATM    4  C   UNK N   1      27.920  18.576   4.825  0.00  0.00     0.045 A 
HETATM    5  C   UNK N   1      24.385  18.895   4.484  0.00  0.00     0.116 A 
HETATM    6  C   UNK N   1      26.505  19.713   3.694  0.00  0.00     0.120 A 
HETATM    7  N   UNK N   1      23.785  19.743   3.595  0.00  0.00    -0.338 N 
ATOM      8  HN  UNK N   1      22.766  19.768   3.538  1.00  0.00     0.168 HD
HETATM    9  N   UNK N   1      25.899  20.567   2.835  0.00  0.00    -0.338 N 
HETATM   10  N   UNK N   1      27.837  19.569   3.899  0.00  0.00    -0.341 N 
HETATM   11  H   UNK N   1      26.427  21.173   2.267  0.00  0.00     0.168 HD
HETATM   12  H   UNK N   1      28.573  20.067   3.476  0.00  0.00     0.167 HD
ENDROOT
BRANCH   4  13
HETATM   13  C   UNK N   1      29.108  18.002   5.476  0.00  0.00    -0.009 A 
HETATM   14  C   UNK N   1      29.188  17.689   6.842  0.00  0.00     0.014 A 
HETATM   15  C   UNK N   1      30.313  16.984   7.323  0.00  0.00     0.010 A 
HETATM   16  C   UNK N   1      31.350  16.620   6.440  0.00  0.00    -0.030 A 
HETATM   17  C   UNK N   1      31.286  17.009   5.112  0.00  0.00     0.010 A 
HETATM   18  C   UNK N   1      30.173  17.663   4.633  0.00  0.00     0.014 A 
BRANCH  16  19
HETATM   19  C   UNK N   1      32.543  15.824   6.898  0.00  0.00     0.311 C 
BRANCH  19  20
HETATM   20  N   UNK N   1      32.881  15.925   8.338  0.00  0.00     0.096 N 
HETATM   21  C   UNK N   1      33.914  16.960   8.495  0.00  0.00     0.303 C 
HETATM   22  C   UNK N   1      34.884  16.655   9.641  0.00  0.00     0.302 C 
HETATM   23  N   UNK N   1      35.593  15.401   9.379  0.00  0.00     0.091 N 
HETATM   24  C   UNK N   1      34.689  14.303   8.993  0.00  0.00     0.302 C 
HETATM   25  C   UNK N   1      33.192  14.668   9.056  0.00  0.00     0.303 C 
BRANCH  23  26
HETATM   26  C   UNK N   1      36.280  15.019  10.604  0.00  0.00     0.268 C 
HETATM   27  C   UNK N   1      35.637  15.692  11.806  0.00  0.00     0.037 C 
ENDBRANCH  23  26
ENDBRANCH  19  20
ENDBRANCH  16  19
ENDBRANCH   4  13
BRANCH   5  28
HETATM   28  N   UNK N   1      23.657  18.173   5.294  0.00  0.00    -0.367 N 
ATOM     29  HN  UNK N   1      23.381  18.592   6.183  1.00  0.00     0.161 HD
BRANCH  28  30
HETATM   30  C   UNK N   1      23.209  16.803   5.018  0.00  0.00     0.112 C 
HETATM   31  C   UNK N   1      22.648  16.188   6.304  0.00  0.00     0.037 C 
BRANCH  30  32
HETATM   32  C   UNK N   1      22.143  16.683   3.967  0.00  0.00    -0.036 A 
HETATM   33  C   UNK N   1      22.313  15.722   2.954  0.00  0.00     0.009 A 
HETATM   34  C   UNK N   1      21.359  15.572   1.948  0.00  0.00     0.001 A 
HETATM   35  C   UNK N   1      20.226  16.385   1.943  0.00  0.00     0.000 A 
HETATM   36  C   UNK N   1      20.049  17.348   2.944  0.00  0.00     0.001 A 
HETATM   37  C   UNK N   1      21.006  17.500   3.955  0.00  0.00     0.009 A 
ENDBRANCH  30  32
ENDBRANCH  28  30
ENDBRANCH   5  28
TORSDOF 7
ENDMDL
MODEL 6
REMARK VINA RESULT:      -7.5      5.247     11.976
REMARK  7 active torsions:
REMARK  status: ('A' for Active; 'I' for Inactive)
REMARK    1  A    between atoms: N_34  and  C_3 
REMARK    2  A    between atoms: C_21  and  C_18 
REMARK    3  A    between atoms: N_35  and  C_18 
REMARK    4  A    between atoms: C_22  and  C_20 
REMARK    5  A    between atoms: N_31  and  C_20 
REMARK    6  A    between atoms: C_25  and  C_23 
REMARK    7  A    between atoms: N_31  and  C_26 
ROOT
HETATM    1  C   UNK N   1      32.665  16.400   6.992  0.00  0.00     0.049 A 
HETATM    2  C   UNK N   1      32.032  17.082   3.060  0.00  0.00     0.183 A 
HETATM    3  C   UNK N   1      32.267  16.704   5.735  0.00  0.00     0.054 A 
HETATM    4  C   UNK N   1      33.987  16.034   6.900  0.00  0.00     0.045 A 
HETATM    5  C   UNK N   1      31.042  17.166   5.237  0.00  0.00     0.116 A 
HETATM    6  C   UNK N   1      33.329  16.489   4.917  0.00  0.00     0.120 A 
HETATM    7  N   UNK N   1      30.954  17.327   3.883  0.00  0.00    -0.338 N 
ATOM      8  HN  UNK N   1      30.073  17.637   3.472  1.00  0.00     0.168 HD
HETATM    9  N   UNK N   1      33.237  16.677   3.578  0.00  0.00    -0.338 N 
HETATM   10  N   UNK N   1      34.423  16.099   5.613  0.00  0.00    -0.341 N 
HETATM   11  H   UNK N   1      34.013  16.526   2.992  0.00  0.00     0.168 HD
HETATM   12  H   UNK N   1      35.325  15.906   5.268  0.00  0.00     0.167 HD
ENDROOT
BRANCH   4  13
HETATM   13  C   UNK N   1      34.732  15.704   8.125  0.00  0.00    -0.009 A 
HETATM   14  C   UNK N   1      34.587  16.381   9.346  0.00  0.00     0.014 A 
HETATM   15  C   UNK N   1      35.224  15.869  10.498  0.00  0.00     0.010 A 
HETATM   16  C   UNK N   1      36.012  14.703  10.412  0.00  0.00    -0.030 A 
HETATM   17  C   UNK N   1      36.205  14.097   9.180  0.00  0.00     0.010 A 
HETATM   18  C   UNK N   1      35.554  14.572   8.063  0.00  0.00     0.014 A 
BRANCH  16  19
HETATM   19  C   UNK N   1      36.667  14.093  11.621  0.00  0.00     0.311 C 
BRANCH  19  20
HETATM   20  N   UNK N   1      35.783  13.847  12.787  0.00  0.00     0.096 N 
HETATM   21  C   UNK N   1      36.432  14.413  13.981  0.00  0.00     0.303 C 
HETATM   22  C   UNK N   1      36.126  13.613  15.251  0.00  0.00     0.302 C 
HETATM   23  N   UNK N   1      36.629  12.244  15.118  0.00  0.00     0.091 N 
HETATM   24  C   UNK N   1      36.230  11.610  13.848  0.00  0.00     0.302 C 
HETATM   25  C   UNK N   1      35.282  12.469  12.986  0.00  0.00     0.303 C 
BRANCH  23  26
HETATM   26  C   UNK N   1      36.075  11.462  16.213  0.00  0.00     0.268 C 
HETATM   27  C   UNK N   1      36.570  10.026  16.145  0.00  0.00     0.037 C 
ENDBRANCH  23  26
ENDBRANCH  19  20
ENDBRANCH  16  19
ENDBRANCH   4  13
BRANCH   5  28
HETATM   28  N   UNK N   1      30.026  17.468   6.001  0.00  0.00    -0.367 N 
ATOM     29  HN  UNK N   1      30.222  17.737   6.966  1.00  0.00     0.161 HD
BRANCH  28  30
HETATM   30  C   UNK N   1      28.623  17.448   5.570  0.00  0.00     0.112 C 
HETATM   31  C   UNK N   1      27.831  16.504   6.480  0.00  0.00     0.037 C 
BRANCH  30  32
HETATM   32  C   UNK N   1      27.930  18.780   5.603  0.00  0.00    -0.036 A 
HETATM   33  C   UNK N   1      27.432  19.301   4.395  0.00  0.00     0.009 A 
HETATM   34  C   UNK N   1      26.787  20.536   4.364  0.00  0.00     0.001 A 
HETATM   35  C   UNK N   1      26.636  21.267   5.543  0.00  0.00     0.000 A 
HETATM   36  C   UNK N   1      27.133  20.761   6.750  0.00  0.00     0.001 A 
HETATM   37  C   UNK N   1      27.781  19.520   6.783  0.00  0.00     0.009 A 
ENDBRANCH  30  32
ENDBRANCH  28  30
ENDBRANCH   5  28
TORSDOF 7
ENDMDL
MODEL 7
REMARK VINA RESULT:      -7.5      3.776     10.786
REMARK  7 active torsions:
REMARK  status: ('A' for Active; 'I' for Inactive)
REMARK    1  A    between atoms: N_34  and  C_3 
REMARK    2  A    between atoms: C_21  and  C_18 
REMARK    3  A    between atoms: N_35  and  C_18 
REMARK    4  A    between atoms: C_22  and  C_20 
REMARK    5  A    between atoms: N_31  and  C_20 
REMARK    6  A    between atoms: C_25  and  C_23 
REMARK    7  A    between atoms: N_31  and  C_26 
ROOT
HETATM    1  C   UNK N   1      22.818  17.773   3.829  0.00  0.00     0.049 A 
HETATM    2  C   UNK N   1      19.162  19.040   2.667  0.00  0.00     0.183 A 
HETATM    3  C   UNK N   1      21.525  18.014   3.515  0.00  0.00     0.054 A 
HETATM    4  C   UNK N   1      23.498  18.943   3.589  0.00  0.00     0.045 A 
HETATM    5  C   UNK N   1      20.385  17.204   3.593  0.00  0.00     0.116 A 
HETATM    6  C   UNK N   1      21.454  19.295   3.070  0.00  0.00     0.120 A 
HETATM    7  N   UNK N   1      19.215  17.748   3.140  0.00  0.00    -0.338 N 
ATOM      8  HN  UNK N   1      18.364  17.185   3.153  1.00  0.00     0.168 HD
HETATM    9  N   UNK N   1      20.284  19.831   2.646  0.00  0.00    -0.338 N 
HETATM   10  N   UNK N   1      22.660  19.910   3.129  0.00  0.00    -0.341 N 
HETATM   11  H   UNK N   1      20.239  20.762   2.331  0.00  0.00     0.168 HD
HETATM   12  H   UNK N   1      22.878  20.841   2.894  0.00  0.00     0.167 HD
ENDROOT
BRANCH   4  13
HETATM   13  C   UNK N   1      24.935  19.020   3.898  0.00  0.00    -0.009 A 
HETATM   14  C   UNK N   1      25.535  20.070   4.610  0.00  0.00     0.014 A 
HETATM   15  C   UNK N   1      26.888  19.955   4.998  0.00  0.00     0.010 A 
HETATM   16  C   UNK N   1      27.628  18.805   4.653  0.00  0.00    -0.030 A 
HETATM   17  C   UNK N   1      27.036  17.817   3.882  0.00  0.00     0.010 A 
HETATM   18  C   UNK N   1      25.707  17.910   3.536  0.00  0.00     0.014 A 
BRANCH  16  19
HETATM   19  C   UNK N   1      29.056  18.617   5.089  0.00  0.00     0.311 C 
BRANCH  19  20
HETATM   20  N   UNK N   1      29.310  17.492   6.022  0.00  0.00     0.096 N 
HETATM   21  C   UNK N   1      29.325  18.028   7.392  0.00  0.00     0.303 C 
HETATM   22  C   UNK N   1      30.295  17.274   8.308  0.00  0.00     0.302 C 
HETATM   23  N   UNK N   1      31.664  17.399   7.801  0.00  0.00     0.091 N 
HETATM   24  C   UNK N   1      31.771  17.095   6.363  0.00  0.00     0.302 C 
HETATM   25  C   UNK N   1      30.456  16.604   5.723  0.00  0.00     0.303 C 
BRANCH  23  26
HETATM   26  C   UNK N   1      32.492  16.451   8.532  0.00  0.00     0.268 C 
HETATM   27  C   UNK N   1      33.805  17.100   8.944  0.00  0.00     0.037 C 
ENDBRANCH  23  26
ENDBRANCH  19  20
ENDBRANCH  16  19
ENDBRANCH   4  13
BRANCH   5  28
HETATM   28  N   UNK N   1      20.395  15.998   4.097  0.00  0.00    -0.367 N 
ATOM     29  HN  UNK N   1      21.139  15.366   3.798  1.00  0.00     0.161 HD
BRANCH  28  30
HETATM   30  C   UNK N   1      19.415  15.488   5.063  0.00  0.00     0.112 C 
HETATM   31  C   UNK N   1      18.876  14.143   4.568  0.00  0.00     0.037 C 
BRANCH  30  32
HETATM   32  C   UNK N   1      19.946  15.270   6.450  0.00  0.00    -0.036 A 
HETATM   33  C   UNK N   1      19.789  16.303   7.393  0.00  0.00     0.009 A 
HETATM   34  C   UNK N   1      20.269  16.160   8.694  0.00  0.00     0.001 A 
HETATM   35  C   UNK N   1      20.915  14.981   9.066  0.00  0.00     0.000 A 
HETATM   36  C   UNK N   1      21.081  13.948   8.135  0.00  0.00     0.001 A 
HETATM   37  C   UNK N   1      20.599  14.090   6.828  0.00  0.00     0.009 A 
ENDBRANCH  30  32
ENDBRANCH  28  30
ENDBRANCH   5  28
TORSDOF 7
ENDMDL
MODEL 8
REMARK VINA RESULT:      -7.4      9.855     14.883
REMARK  7 active torsions:
REMARK  status: ('A' for Active; 'I' for Inactive)
REMARK    1  A    between atoms: N_34  and  C_3 
REMARK    2  A    between atoms: C_21  and  C_18 
REMARK    3  A    between atoms: N_35  and  C_18 
REMARK    4  A    between atoms: C_22  and  C_20 
REMARK    5  A    between atoms: N_31  and  C_20 
REMARK    6  A    between atoms: C_25  and  C_23 
REMARK    7  A    between atoms: N_31  and  C_26 
ROOT
HETATM    1  C   UNK N   1      35.641  12.819  12.893  0.00  0.00     0.049 A 
HETATM    2  C   UNK N   1      38.078  13.633   9.775  0.00  0.00     0.183 A 
HETATM    3  C   UNK N   1      36.291  13.188  11.766  0.00  0.00     0.054 A 
HETATM    4  C   UNK N   1      36.594  12.298  13.735  0.00  0.00     0.045 A 
HETATM    5  C   UNK N   1      35.835  13.802  10.592  0.00  0.00     0.116 A 
HETATM    6  C   UNK N   1      37.598  12.860  11.932  0.00  0.00     0.120 A 
HETATM    7  N   UNK N   1      36.760  13.994   9.603  0.00  0.00    -0.338 N 
ATOM      8  HN  UNK N   1      36.468  14.413   8.720  1.00  0.00     0.168 HD
HETATM    9  N   UNK N   1      38.510  13.077  10.954  0.00  0.00    -0.338 N 
HETATM   10  N   UNK N   1      37.826  12.330  13.158  0.00  0.00    -0.341 N 
HETATM   11  H   UNK N   1      39.457  12.843  11.085  0.00  0.00     0.168 HD
HETATM   12  H   UNK N   1      38.683  12.035  13.541  0.00  0.00     0.167 HD
ENDROOT
BRANCH   4  13
HETATM   13  C   UNK N   1      36.206  11.861  15.085  0.00  0.00    -0.009 A 
HETATM   14  C   UNK N   1      36.670  10.689  15.702  0.00  0.00     0.014 A 
HETATM   15  C   UNK N   1      36.367  10.460  17.062  0.00  0.00     0.010 A 
HETATM   16  C   UNK N   1      35.588  11.390  17.781  0.00  0.00    -0.030 A 
HETATM   17  C   UNK N   1      35.075  12.500  17.129  0.00  0.00     0.010 A 
HETATM   18  C   UNK N   1      35.401  12.746  15.814  0.00  0.00     0.014 A 
BRANCH  16  19
HETATM   19  C   UNK N   1      35.284  11.212  19.244  0.00  0.00     0.311 C 
BRANCH  19  20
HETATM   20  N   UNK N   1      34.986   9.828  19.685  0.00  0.00     0.096 N 
HETATM   21  C   UNK N   1      33.940   9.282  18.807  0.00  0.00     0.303 C 
HETATM   22  C   UNK N   1      33.010   8.307  19.535  0.00  0.00     0.302 C 
HETATM   23  N   UNK N   1      32.316   8.995  20.627  0.00  0.00     0.091 N 
HETATM   24  C   UNK N   1      33.228   9.774  21.483  0.00  0.00     0.302 C 
HETATM   25  C   UNK N   1      34.719   9.613  21.125  0.00  0.00     0.303 C 
BRANCH  23  26
HETATM   26  C   UNK N   1      31.672   7.980  21.448  0.00  0.00     0.268 C 
HETATM   27  C   UNK N   1      30.841   7.045  20.583  0.00  0.00     0.037 C 
ENDBRANCH  23  26
ENDBRANCH  19  20
ENDBRANCH  16  19
ENDBRANCH   4  13
BRANCH   5  28
HETATM   28  N   UNK N   1      34.606  14.212  10.428  0.00  0.00    -0.367 N 
ATOM     29  HN  UNK N   1      33.898  13.511  10.204  1.00  0.00     0.161 HD
BRANCH  28  30
HETATM   30  C   UNK N   1      34.168  15.608  10.543  0.00  0.00     0.112 C 
HETATM   31  C   UNK N   1      35.291  16.437  11.174  0.00  0.00     0.037 C 
BRANCH  30  32
HETATM   32  C   UNK N   1      33.807  16.268   9.243  0.00  0.00    -0.036 A 
HETATM   33  C   UNK N   1      32.706  15.766   8.525  0.00  0.00     0.009 A 
HETATM   34  C   UNK N   1      32.329  16.334   7.310  0.00  0.00     0.001 A 
HETATM   35  C   UNK N   1      33.052  17.411   6.796  0.00  0.00     0.000 A 
HETATM   36  C   UNK N   1      34.153  17.916   7.500  0.00  0.00     0.001 A 
HETATM   37  C   UNK N   1      34.532  17.346   8.721  0.00  0.00     0.009 A 
ENDBRANCH  30  32
ENDBRANCH  28  30
ENDBRANCH   5  28
TORSDOF 7
ENDMDL
MODEL 9
REMARK VINA RESULT:      -7.3     10.606     14.763
REMARK  7 active torsions:
REMARK  status: ('A' for Active; 'I' for Inactive)
REMARK    1  A    between atoms: N_34  and  C_3 
REMARK    2  A    between atoms: C_21  and  C_18 
REMARK    3  A    between atoms: N_35  and  C_18 
REMARK    4  A    between atoms: C_22  and  C_20 
REMARK    5  A    between atoms: N_31  and  C_20 
REMARK    6  A    between atoms: C_25  and  C_23 
REMARK    7  A    between atoms: N_31  and  C_26 
ROOT
HETATM    1  C   UNK N   1      35.352  11.547  16.539  0.00  0.00     0.049 A 
HETATM    2  C   UNK N   1      34.963  12.969  20.302  0.00  0.00     0.183 A 
HETATM    3  C   UNK N   1      35.252  11.825  17.859  0.00  0.00     0.054 A 
HETATM    4  C   UNK N   1      35.361  12.758  15.890  0.00  0.00     0.045 A 
HETATM    5  C   UNK N   1      35.233  10.989  18.984  0.00  0.00     0.116 A 
HETATM    6  C   UNK N   1      35.174  13.175  17.979  0.00  0.00     0.120 A 
HETATM    7  N   UNK N   1      35.067  11.599  20.196  0.00  0.00    -0.338 N 
ATOM      8  HN  UNK N   1      35.020  11.028  21.040  1.00  0.00     0.168 HD
HETATM    9  N   UNK N   1      35.035  13.769  19.188  0.00  0.00    -0.338 N 
HETATM   10  N   UNK N   1      35.267  13.787  16.774  0.00  0.00    -0.341 N 
HETATM   11  H   UNK N   1      34.986  14.749  19.267  0.00  0.00     0.168 HD
HETATM   12  H   UNK N   1      35.266  14.753  16.582  0.00  0.00     0.167 HD
ENDROOT
BRANCH   4  13
HETATM   13  C   UNK N   1      35.526  12.793  14.428  0.00  0.00    -0.009 A 
HETATM   14  C   UNK N   1      34.889  11.913  13.539  0.00  0.00     0.014 A 
HETATM   15  C   UNK N   1      34.984  12.149  12.150  0.00  0.00     0.010 A 
HETATM   16  C   UNK N   1      35.730  13.243  11.667  0.00  0.00    -0.030 A 
HETATM   17  C   UNK N   1      36.416  14.051  12.560  0.00  0.00     0.010 A 
HETATM   18  C   UNK N   1      36.293  13.846  13.916  0.00  0.00     0.014 A 
BRANCH  16  19
HETATM   19  C   UNK N   1      35.818  13.562  10.199  0.00  0.00     0.311 C 
BRANCH  19  20
HETATM   20  N   UNK N   1      34.592  14.122   9.579  0.00  0.00     0.096 N 
HETATM   21  C   UNK N   1      34.773  14.113   8.119  0.00  0.00     0.303 C 
HETATM   22  C   UNK N   1      34.067  15.286   7.431  0.00  0.00     0.302 C 
HETATM   23  N   UNK N   1      34.622  16.555   7.907  0.00  0.00     0.091 N 
HETATM   24  C   UNK N   1      34.704  16.627   9.377  0.00  0.00     0.302 C 
HETATM   25  C   UNK N   1      34.091  15.413  10.102  0.00  0.00     0.303 C 
BRANCH  23  26
HETATM   26  C   UNK N   1      33.744  17.621   7.445  0.00  0.00     0.268 C 
HETATM   27  C   UNK N   1      33.504  17.500   5.948  0.00  0.00     0.037 C 
ENDBRANCH  23  26
ENDBRANCH  19  20
ENDBRANCH  16  19
ENDBRANCH   4  13
BRANCH   5  28
HETATM   28  N   UNK N   1      35.394   9.695  18.918  0.00  0.00    -0.367 N 
ATOM     29  HN  UNK N   1      36.337   9.327  19.047  1.00  0.00     0.161 HD
BRANCH  28  30
HETATM   30  C   UNK N   1      34.315   8.730  18.671  0.00  0.00     0.112 C 
HETATM   31  C   UNK N   1      34.922   7.405  18.202  0.00  0.00     0.037 C 
BRANCH  30  32
HETATM   32  C   UNK N   1      33.452   8.426  19.863  0.00  0.00    -0.036 A 
HETATM   33  C   UNK N   1      32.056   8.443  19.694  0.00  0.00     0.009 A 
HETATM   34  C   UNK N   1      31.206   8.176  20.766  0.00  0.00     0.001 A 
HETATM   35  C   UNK N   1      31.744   7.891  22.021  0.00  0.00     0.000 A 
HETATM   36  C   UNK N   1      33.133   7.876  22.201  0.00  0.00     0.001 A 
HETATM   37  C   UNK N   1      33.988   8.144  21.125  0.00  0.00     0.009 A 
ENDBRANCH  30  32
ENDBRANCH  28  30
ENDBRANCH   5  28
TORSDOF 7
ENDMDL
