REMARK  5 active torsions:
REMARK  status: ('A' for Active; 'I' for Inactive)
REMARK    1  A    between atoms: C_3  and  C_29 
REMARK    2  A    between atoms: C_7  and  C_5 
REMARK    3  A    between atoms: C_7  and  C_19 
REMARK    4  A    between atoms: C_14  and  N_17 
REMARK    5  A    between atoms: C_24  and  C_26 
ROOT
HETATM    1  C   UNK N   1       1.165  -0.307  -0.178  0.00  0.00     0.115 A 
HETATM    2  C   UNK N   1       1.985  -1.292   0.643  0.00  0.00    -0.004 A 
HETATM    3  C   UNK N   1       2.523  -1.157   1.931  0.00  0.00     0.011 A 
HETATM    4  C   UNK N   1       3.420  -2.139   2.390  0.00  0.00     0.004 A 
HETATM    5  C   UNK N   1       3.777  -3.223   1.560  0.00  0.00     0.043 A 
HETATM    6  C   UNK N   1       3.217  -3.339   0.278  0.00  0.00     0.131 A 
HETATM    7  C   UNK N   1       2.325  -2.359  -0.146  0.00  0.00     0.055 A 
HETATM    8  C   UNK N   1       1.651  -2.163  -1.396  0.00  0.00     0.110 A 
HETATM    9  N   UNK N   1       1.029  -1.049  -1.435  0.00  0.00    -0.354 N 
ATOM     10  HN  UNK N   1       0.503  -0.715  -2.243  1.00  0.00     0.163 HD
HETATM   11  F   UNK N   1       3.584  -4.353  -0.546  0.00  0.00    -0.205 F 
ENDROOT
BRANCH   1  12
HETATM   12  C   UNK N   1      -0.244   0.054   0.331  0.00  0.00    -0.020 A 
HETATM   13  C   UNK N   1      -0.510   1.396   0.560  0.00  0.00     0.022 A 
HETATM   14  C   UNK N   1      -1.775   1.920   0.672  0.00  0.00    -0.023 A 
HETATM   15  C   UNK N   1      -2.876   1.064   0.547  0.00  0.00     0.012 A 
HETATM   16  C   UNK N   1      -2.654  -0.319   0.377  0.00  0.00     0.002 A 
HETATM   17  C   UNK N   1      -1.341  -0.823   0.235  0.00  0.00     0.010 A 
BRANCH  14  18
HETATM   18  C   UNK N   1      -1.853   3.373   0.507  0.00  0.00     0.005 A 
HETATM   19  C   UNK N   1      -2.127   4.237   1.564  0.00  0.00     0.102 A 
HETATM   20  N   UNK N   1      -1.969   5.579   1.392  0.00  0.00    -0.361 N 
HETATM   21  C   UNK N   1      -1.532   6.091   0.209  0.00  0.00     0.180 A 
ATOM     22  HN  UNK N   1      -2.182   6.211   2.164  1.00  0.00     0.166 HD
HETATM   23  N   UNK N   1      -1.243   5.264  -0.827  0.00  0.00    -0.361 N 
HETATM   24  C   UNK N   1      -1.374   3.923  -0.690  0.00  0.00     0.102 A 
ATOM     25  HN  UNK N   1      -0.926   5.654  -1.715  1.00  0.00     0.166 HD
ENDBRANCH  14  18
ENDBRANCH   1  12
BRANCH   1  26
HETATM   26  C   UNK N   1       2.003   0.964  -0.450  0.00  0.00    -0.017 A 
HETATM   27  C   UNK N   1       1.477   2.013  -1.227  0.00  0.00     0.027 A 
HETATM   28  C   UNK N   1       2.179   3.209  -1.355  0.00  0.00     0.089 A 
HETATM   29  N   UNK N   1       3.402   3.344  -0.782  0.00  0.00    -0.365 N 
HETATM   30  C   UNK N   1       3.979   2.325  -0.090  0.00  0.00     0.074 A 
ATOM     31  HN  UNK N   1       3.900   4.230  -0.871  1.00  0.00     0.165 HD
HETATM   32  C   UNK N   1       3.281   1.131   0.100  0.00  0.00     0.041 A 
BRANCH  30  33
HETATM   33  C   UNK N   1       5.368   2.482   0.437  0.00  0.00     0.403 C 
HETATM   34  F   UNK N   1       6.156   3.096  -0.517  0.00  0.00    -0.208 F 
HETATM   35  F   UNK N   1       5.918   1.244   0.734  0.00  0.00    -0.208 F 
ENDBRANCH  30  33
ENDBRANCH   1  26
BRANCH   8  36
HETATM   36  N   UNK N   1       1.679  -3.065  -2.489  0.00  0.00    -0.385 N 
HETATM   37  H   UNK N   1       1.147  -3.395  -3.249  0.00  0.00     0.157 HD
HETATM   38  H   UNK N   1       2.547  -3.530  -2.489  0.00  0.00     0.157 HD
ENDBRANCH   8  36
TORSDOF 5
