MODEL 1
REMARK VINA RESULT:      -8.0      0.000      0.000
REMARK  6 active torsions:
REMARK  status: ('A' for Active; 'I' for Inactive)
REMARK    1  A    between atoms: C_3  and  C_16 
REMARK    2  A    between atoms: C_5  and  O_7 
REMARK    3  A    between atoms: O_7  and  C_8 
REMARK    4  A    between atoms: C_8  and  C_9 
REMARK    5  A    between atoms: C_9  and  N_10 
REMARK    6  A    between atoms: C_19  and  C_26 
ROOT
HETATM    1  C   UNK N   1      20.054  17.621   3.079  0.00  0.00     0.071 A 
HETATM    2  C   UNK N   1      21.172  18.406   3.150  0.00  0.00     0.022 A 
HETATM    3  C   UNK N   1      22.365  18.236   3.824  0.00  0.00     0.031 A 
HETATM    4  C   UNK N   1      23.324  19.251   3.742  0.00  0.00     0.010 A 
HETATM    5  C   UNK N   1      23.050  20.421   2.982  0.00  0.00     0.017 A 
HETATM    6  C   UNK N   1      21.814  20.561   2.305  0.00  0.00     0.033 A 
HETATM    7  C   UNK N   1      20.898  19.515   2.419  0.00  0.00     0.060 A 
HETATM    8  N   UNK N   1      19.657  19.419   1.904  0.00  0.00    -0.299 N 
HETATM    9  N   UNK N   1      19.136  18.261   2.313  0.00  0.00    -0.299 N 
ATOM     10  HN  UNK N   1      18.204  17.914   2.087  1.00  0.00     0.187 HD
HETATM   11  H   UNK N   1      19.214  20.083   1.328  0.00  0.00     0.187 HD
ENDROOT
BRANCH   1  12
HETATM   12  C   UNK N   1      19.842  16.351   3.800  0.00  0.00    -0.004 A 
HETATM   13  C   UNK N   1      20.062  15.125   3.151  0.00  0.00     0.014 A 
HETATM   14  C   UNK N   1      20.002  13.926   3.857  0.00  0.00     0.004 A 
HETATM   15  C   UNK N   1      19.766  13.946   5.231  0.00  0.00     0.037 A 
HETATM   16  C   UNK N   1      19.538  15.166   5.891  0.00  0.00     0.069 A 
HETATM   17  C   UNK N   1      19.557  16.362   5.168  0.00  0.00     0.050 A 
BRANCH  16  18
HETATM   18  O   UNK N   1      19.388  15.219   7.231  0.00  0.00    -0.349 OA
BRANCH  18  19
HETATM   19  C   UNK N   1      20.484  15.336   8.056  0.00  0.00     0.206 C 
BRANCH  19  20
HETATM   20  C   UNK N   1      20.298  14.621   9.386  0.00  0.00     0.299 C 
BRANCH  20  21
HETATM   21  N   UNK N   1      21.501  13.934   9.853  0.00  0.00     0.090 N 
HETATM   22  C   UNK N   1      22.203  13.529   8.633  0.00  0.00     0.272 C 
HETATM   23  C   UNK N   1      23.495  12.784   8.966  0.00  0.00     0.030 C 
HETATM   24  C   UNK N   1      23.184  11.565   9.826  0.00  0.00     0.003 C 
HETATM   25  C   UNK N   1      22.390  11.988  11.056  0.00  0.00     0.030 C 
HETATM   26  C   UNK N   1      21.135  12.722  10.597  0.00  0.00     0.272 C 
ENDBRANCH  20  21
ENDBRANCH  19  20
ENDBRANCH  18  19
ENDBRANCH  16  18
ENDBRANCH   1  12
BRANCH   4  27
HETATM   27  C   UNK N   1      24.594  19.055   4.453  0.00  0.00     0.131 A 
HETATM   28  N   UNK N   1      25.586  19.966   4.462  0.00  0.00    -0.336 N 
HETATM   29  C   UNK N   1      26.536  19.393   5.225  0.00  0.00     0.199 A 
ATOM     30  HN  UNK N   1      25.612  20.874   3.998  1.00  0.00     0.168 HD
HETATM   31  N   UNK N   1      26.128  18.184   5.659  0.00  0.00    -0.295 N 
HETATM   32  N   UNK N   1      24.912  17.973   5.176  0.00  0.00    -0.284 N 
HETATM   33  H   UNK N   1      26.641  17.570   6.231  0.00  0.00     0.187 HD
ATOM     34  HN  UNK N   1      24.333  17.148   5.325  1.00  0.00     0.188 HD
ENDBRANCH   4  27
TORSDOF 6
ENDMDL
MODEL 2
REMARK VINA RESULT:      -7.6     13.599     15.840
REMARK  6 active torsions:
REMARK  status: ('A' for Active; 'I' for Inactive)
REMARK    1  A    between atoms: C_3  and  C_16 
REMARK    2  A    between atoms: C_5  and  O_7 
REMARK    3  A    between atoms: O_7  and  C_8 
REMARK    4  A    between atoms: C_8  and  C_9 
REMARK    5  A    between atoms: C_9  and  N_10 
REMARK    6  A    between atoms: C_19  and  C_26 
ROOT
HETATM    1  C   UNK N   1      27.276  24.294  -4.749  0.00  0.00     0.071 A 
HETATM    2  C   UNK N   1      26.734  25.550  -4.720  0.00  0.00     0.022 A 
HETATM    3  C   UNK N   1      27.115  26.694  -4.048  0.00  0.00     0.031 A 
HETATM    4  C   UNK N   1      26.322  27.837  -4.181  0.00  0.00     0.010 A 
HETATM    5  C   UNK N   1      25.153  27.796  -4.988  0.00  0.00     0.017 A 
HETATM    6  C   UNK N   1      24.791  26.604  -5.661  0.00  0.00     0.033 A 
HETATM    7  C   UNK N   1      25.623  25.495  -5.496  0.00  0.00     0.060 A 
HETATM    8  N   UNK N   1      25.485  24.253  -5.998  0.00  0.00    -0.299 N 
HETATM    9  N   UNK N   1      26.494  23.514  -5.536  0.00  0.00    -0.299 N 
ATOM     10  HN  UNK N   1      26.653  22.527  -5.740  1.00  0.00     0.187 HD
HETATM   11  H   UNK N   1      24.768  23.946  -6.598  0.00  0.00     0.187 HD
ENDROOT
BRANCH   1  12
HETATM   12  C   UNK N   1      28.446  23.840  -3.973  0.00  0.00    -0.004 A 
HETATM   13  C   UNK N   1      28.306  23.499  -2.618  0.00  0.00     0.014 A 
HETATM   14  C   UNK N   1      29.368  22.937  -1.912  0.00  0.00     0.004 A 
HETATM   15  C   UNK N   1      30.567  22.668  -2.571  0.00  0.00     0.037 A 
HETATM   16  C   UNK N   1      30.722  23.010  -3.926  0.00  0.00     0.069 A 
HETATM   17  C   UNK N   1      29.666  23.614  -4.615  0.00  0.00     0.050 A 
BRANCH  16  18
HETATM   18  O   UNK N   1      31.842  22.687  -4.604  0.00  0.00    -0.349 OA
BRANCH  18  19
HETATM   19  C   UNK N   1      31.863  22.716  -5.980  0.00  0.00     0.206 C 
BRANCH  19  20
HETATM   20  C   UNK N   1      32.403  21.431  -6.589  0.00  0.00     0.299 C 
BRANCH  20  21
HETATM   21  N   UNK N   1      31.473  20.787  -7.515  0.00  0.00     0.090 N 
HETATM   22  C   UNK N   1      30.200  20.727  -6.793  0.00  0.00     0.272 C 
HETATM   23  C   UNK N   1      29.118  20.066  -7.644  0.00  0.00     0.030 C 
HETATM   24  C   UNK N   1      29.562  18.666  -8.051  0.00  0.00     0.003 C 
HETATM   25  C   UNK N   1      30.920  18.731  -8.736  0.00  0.00     0.030 C 
HETATM   26  C   UNK N   1      31.908  19.413  -7.796  0.00  0.00     0.272 C 
ENDBRANCH  20  21
ENDBRANCH  19  20
ENDBRANCH  18  19
ENDBRANCH  16  18
ENDBRANCH   1  12
BRANCH   4  27
HETATM   27  C   UNK N   1      26.743  29.052  -3.470  0.00  0.00     0.131 A 
HETATM   28  N   UNK N   1      26.165  30.255  -3.652  0.00  0.00    -0.336 N 
HETATM   29  C   UNK N   1      26.841  31.062  -2.814  0.00  0.00     0.199 A 
ATOM     30  HN  UNK N   1      25.397  30.496  -4.278  1.00  0.00     0.168 HD
HETATM   31  N   UNK N   1      27.790  30.370  -2.153  0.00  0.00    -0.295 N 
HETATM   32  N   UNK N   1      27.728  29.111  -2.564  0.00  0.00    -0.284 N 
HETATM   33  H   UNK N   1      28.416  30.733  -1.486  0.00  0.00     0.187 HD
ATOM     34  HN  UNK N   1      28.316  28.339  -2.252  1.00  0.00     0.188 HD
ENDBRANCH   4  27
TORSDOF 6
ENDMDL
MODEL 3
REMARK VINA RESULT:      -7.6      8.305     13.117
REMARK  6 active torsions:
REMARK  status: ('A' for Active; 'I' for Inactive)
REMARK    1  A    between atoms: C_3  and  C_16 
REMARK    2  A    between atoms: C_5  and  O_7 
REMARK    3  A    between atoms: O_7  and  C_8 
REMARK    4  A    between atoms: C_8  and  C_9 
REMARK    5  A    between atoms: C_9  and  N_10 
REMARK    6  A    between atoms: C_19  and  C_26 
ROOT
HETATM    1  C   UNK N   1      33.995  16.560   8.900  0.00  0.00     0.071 A 
HETATM    2  C   UNK N   1      34.227  15.355   9.503  0.00  0.00     0.022 A 
HETATM    3  C   UNK N   1      33.885  14.068   9.135  0.00  0.00     0.031 A 
HETATM    4  C   UNK N   1      34.227  13.019   9.993  0.00  0.00     0.010 A 
HETATM    5  C   UNK N   1      34.904  13.296  11.212  0.00  0.00     0.017 A 
HETATM    6  C   UNK N   1      35.237  14.628  11.558  0.00  0.00     0.033 A 
HETATM    7  C   UNK N   1      34.875  15.634  10.661  0.00  0.00     0.060 A 
HETATM    8  N   UNK N   1      35.048  16.965  10.770  0.00  0.00    -0.299 N 
HETATM    9  N   UNK N   1      34.503  17.535   9.694  0.00  0.00    -0.299 N 
ATOM     10  HN  UNK N   1      34.474  18.536   9.500  1.00  0.00     0.187 HD
HETATM   11  H   UNK N   1      35.497  17.434  11.510  0.00  0.00     0.187 HD
ENDROOT
BRANCH   1  12
HETATM   12  C   UNK N   1      33.228  16.772   7.657  0.00  0.00    -0.004 A 
HETATM   13  C   UNK N   1      33.852  17.328   6.528  0.00  0.00     0.014 A 
HETATM   14  C   UNK N   1      33.181  17.403   5.310  0.00  0.00     0.004 A 
HETATM   15  C   UNK N   1      31.894  16.879   5.199  0.00  0.00     0.037 A 
HETATM   16  C   UNK N   1      31.256  16.326   6.323  0.00  0.00     0.069 A 
HETATM   17  C   UNK N   1      31.920  16.293   7.552  0.00  0.00     0.050 A 
BRANCH  16  18
HETATM   18  O   UNK N   1      30.045  15.741   6.222  0.00  0.00    -0.349 OA
BRANCH  18  19
HETATM   19  C   UNK N   1      28.956  16.452   5.771  0.00  0.00     0.206 C 
BRANCH  19  20
HETATM   20  C   UNK N   1      28.614  17.634   6.666  0.00  0.00     0.299 C 
BRANCH  20  21
HETATM   21  N   UNK N   1      28.397  18.879   5.932  0.00  0.00     0.090 N 
HETATM   22  C   UNK N   1      27.630  19.729   6.845  0.00  0.00     0.272 C 
HETATM   23  C   UNK N   1      27.320  21.081   6.205  0.00  0.00     0.030 C 
HETATM   24  C   UNK N   1      26.553  20.875   4.904  0.00  0.00     0.003 C 
HETATM   25  C   UNK N   1      27.325  19.932   3.991  0.00  0.00     0.030 C 
HETATM   26  C   UNK N   1      27.578  18.628   4.739  0.00  0.00     0.272 C 
ENDBRANCH  20  21
ENDBRANCH  19  20
ENDBRANCH  18  19
ENDBRANCH  16  18
ENDBRANCH   1  12
BRANCH   4  27
HETATM   27  C   UNK N   1      33.868  11.654   9.586  0.00  0.00     0.131 A 
HETATM   28  N   UNK N   1      32.599  11.209   9.526  0.00  0.00    -0.336 N 
HETATM   29  C   UNK N   1      32.729   9.935   9.108  0.00  0.00     0.199 A 
ATOM     30  HN  UNK N   1      31.742  11.716   9.746  1.00  0.00     0.168 HD
HETATM   31  N   UNK N   1      34.028   9.629   8.924  0.00  0.00    -0.295 N 
HETATM   32  N   UNK N   1      34.741  10.705   9.223  0.00  0.00    -0.284 N 
HETATM   33  H   UNK N   1      34.383   8.762   8.622  0.00  0.00     0.187 HD
ATOM     34  HN  UNK N   1      35.756  10.793   9.185  1.00  0.00     0.188 HD
ENDBRANCH   4  27
TORSDOF 6
ENDMDL
MODEL 4
REMARK VINA RESULT:      -7.5      2.084      2.936
REMARK  6 active torsions:
REMARK  status: ('A' for Active; 'I' for Inactive)
REMARK    1  A    between atoms: C_3  and  C_16 
REMARK    2  A    between atoms: C_5  and  O_7 
REMARK    3  A    between atoms: O_7  and  C_8 
REMARK    4  A    between atoms: C_8  and  C_9 
REMARK    5  A    between atoms: C_9  and  N_10 
REMARK    6  A    between atoms: C_19  and  C_26 
ROOT
HETATM    1  C   UNK N   1      22.240  18.524   4.436  0.00  0.00     0.071 A 
HETATM    2  C   UNK N   1      23.501  18.940   4.106  0.00  0.00     0.022 A 
HETATM    3  C   UNK N   1      24.742  18.533   4.553  0.00  0.00     0.031 A 
HETATM    4  C   UNK N   1      25.873  19.187   4.056  0.00  0.00     0.010 A 
HETATM    5  C   UNK N   1      25.722  20.247   3.121  0.00  0.00     0.017 A 
HETATM    6  C   UNK N   1      24.432  20.639   2.687  0.00  0.00     0.033 A 
HETATM    7  C   UNK N   1      23.341  19.947   3.212  0.00  0.00     0.060 A 
HETATM    8  N   UNK N   1      22.028  20.144   2.987  0.00  0.00    -0.299 N 
HETATM    9  N   UNK N   1      21.351  19.277   3.741  0.00  0.00    -0.299 N 
ATOM     10  HN  UNK N   1      20.336  19.192   3.787  1.00  0.00     0.187 HD
HETATM   11  H   UNK N   1      21.637  20.808   2.374  0.00  0.00     0.187 HD
ENDROOT
BRANCH   1  12
HETATM   12  C   UNK N   1      21.902  17.509   5.452  0.00  0.00    -0.004 A 
HETATM   13  C   UNK N   1      21.164  17.868   6.592  0.00  0.00     0.014 A 
HETATM   14  C   UNK N   1      20.720  16.897   7.487  0.00  0.00     0.004 A 
HETATM   15  C   UNK N   1      20.971  15.551   7.223  0.00  0.00     0.037 A 
HETATM   16  C   UNK N   1      21.714  15.179   6.089  0.00  0.00     0.069 A 
HETATM   17  C   UNK N   1      22.194  16.162   5.219  0.00  0.00     0.050 A 
BRANCH  16  18
HETATM   18  O   UNK N   1      21.900  13.882   5.770  0.00  0.00    -0.349 OA
BRANCH  18  19
HETATM   19  C   UNK N   1      23.121  13.277   5.970  0.00  0.00     0.206 C 
BRANCH  19  20
HETATM   20  C   UNK N   1      23.066  12.167   7.008  0.00  0.00     0.299 C 
BRANCH  20  21
HETATM   21  N   UNK N   1      23.074  12.655   8.386  0.00  0.00     0.090 N 
HETATM   22  C   UNK N   1      24.055  11.818   9.079  0.00  0.00     0.272 C 
HETATM   23  C   UNK N   1      24.171  12.212  10.550  0.00  0.00     0.030 C 
HETATM   24  C   UNK N   1      22.809  12.100  11.226  0.00  0.00     0.003 C 
HETATM   25  C   UNK N   1      21.780  12.916  10.456  0.00  0.00     0.030 C 
HETATM   26  C   UNK N   1      21.761  12.437   9.008  0.00  0.00     0.272 C 
ENDBRANCH  20  21
ENDBRANCH  19  20
ENDBRANCH  18  19
ENDBRANCH  16  18
ENDBRANCH   1  12
BRANCH   4  27
HETATM   27  C   UNK N   1      27.190  18.739   4.530  0.00  0.00     0.131 A 
HETATM   28  N   UNK N   1      27.390  18.174   5.735  0.00  0.00    -0.336 N 
HETATM   29  C   UNK N   1      28.712  17.916   5.749  0.00  0.00     0.199 A 
ATOM     30  HN  UNK N   1      26.704  17.986   6.466  1.00  0.00     0.168 HD
HETATM   31  N   UNK N   1      29.283  18.312   4.594  0.00  0.00    -0.295 N 
HETATM   32  N   UNK N   1      28.329  18.827   3.831  0.00  0.00    -0.284 N 
HETATM   33  H   UNK N   1      30.235  18.233   4.360  0.00  0.00     0.187 HD
ATOM     34  HN  UNK N   1      28.442  19.215   2.895  1.00  0.00     0.188 HD
ENDBRANCH   4  27
TORSDOF 6
ENDMDL
MODEL 5
REMARK VINA RESULT:      -7.5      6.006      8.757
REMARK  6 active torsions:
REMARK  status: ('A' for Active; 'I' for Inactive)
REMARK    1  A    between atoms: C_3  and  C_16 
REMARK    2  A    between atoms: C_5  and  O_7 
REMARK    3  A    between atoms: O_7  and  C_8 
REMARK    4  A    between atoms: C_8  and  C_9 
REMARK    5  A    between atoms: C_9  and  N_10 
REMARK    6  A    between atoms: C_19  and  C_26 
ROOT
HETATM    1  C   UNK N   1      27.852  18.819   6.955  0.00  0.00     0.071 A 
HETATM    2  C   UNK N   1      29.063  18.183   6.990  0.00  0.00     0.022 A 
HETATM    3  C   UNK N   1      29.866  17.692   5.980  0.00  0.00     0.031 A 
HETATM    4  C   UNK N   1      31.050  17.038   6.333  0.00  0.00     0.010 A 
HETATM    5  C   UNK N   1      31.394  16.890   7.704  0.00  0.00     0.017 A 
HETATM    6  C   UNK N   1      30.544  17.405   8.713  0.00  0.00     0.033 A 
HETATM    7  C   UNK N   1      29.378  18.053   8.302  0.00  0.00     0.060 A 
HETATM    8  N   UNK N   1      28.404  18.596   9.056  0.00  0.00    -0.299 N 
HETATM    9  N   UNK N   1      27.464  19.060   8.232  0.00  0.00    -0.299 N 
ATOM     10  HN  UNK N   1      26.598  19.521   8.514  1.00  0.00     0.187 HD
HETATM   11  H   UNK N   1      28.388  18.643  10.039  0.00  0.00     0.187 HD
ENDROOT
BRANCH   1  12
HETATM   12  C   UNK N   1      27.055  19.095   5.744  0.00  0.00    -0.004 A 
HETATM   13  C   UNK N   1      27.290  20.260   4.994  0.00  0.00     0.014 A 
HETATM   14  C   UNK N   1      26.644  20.464   3.777  0.00  0.00     0.004 A 
HETATM   15  C   UNK N   1      25.794  19.481   3.275  0.00  0.00     0.037 A 
HETATM   16  C   UNK N   1      25.546  18.313   4.018  0.00  0.00     0.069 A 
HETATM   17  C   UNK N   1      26.163  18.135   5.259  0.00  0.00     0.050 A 
BRANCH  16  18
HETATM   18  O   UNK N   1      24.792  17.313   3.518  0.00  0.00    -0.349 OA
BRANCH  18  19
HETATM   19  C   UNK N   1      25.273  16.024   3.474  0.00  0.00     0.206 C 
BRANCH  19  20
HETATM   20  C   UNK N   1      26.439  15.863   2.511  0.00  0.00     0.299 C 
BRANCH  20  21
HETATM   21  N   UNK N   1      27.707  15.560   3.174  0.00  0.00     0.090 N 
HETATM   22  C   UNK N   1      28.470  14.783   2.196  0.00  0.00     0.272 C 
HETATM   23  C   UNK N   1      29.834  14.385   2.757  0.00  0.00     0.030 C 
HETATM   24  C   UNK N   1      29.654  13.587   4.042  0.00  0.00     0.003 C 
HETATM   25  C   UNK N   1      28.798  14.374   5.025  0.00  0.00     0.030 C 
HETATM   26  C   UNK N   1      27.473  14.715   4.353  0.00  0.00     0.272 C 
ENDBRANCH  20  21
ENDBRANCH  19  20
ENDBRANCH  18  19
ENDBRANCH  16  18
ENDBRANCH   1  12
BRANCH   4  27
HETATM   27  C   UNK N   1      31.902  16.529   5.250  0.00  0.00     0.131 A 
HETATM   28  N   UNK N   1      32.138  17.207   4.111  0.00  0.00    -0.336 N 
HETATM   29  C   UNK N   1      32.959  16.393   3.421  0.00  0.00     0.199 A 
ATOM     30  HN  UNK N   1      31.779  18.121   3.836  1.00  0.00     0.168 HD
HETATM   31  N   UNK N   1      33.206  15.268   4.120  0.00  0.00    -0.295 N 
HETATM   32  N   UNK N   1      32.545  15.353   5.265  0.00  0.00    -0.284 N 
HETATM   33  H   UNK N   1      33.775  14.519   3.832  0.00  0.00     0.187 HD
ATOM     34  HN  UNK N   1      32.528  14.659   6.011  1.00  0.00     0.188 HD
ENDBRANCH   4  27
TORSDOF 6
ENDMDL
MODEL 6
REMARK VINA RESULT:      -7.5      4.230      8.645
REMARK  6 active torsions:
REMARK  status: ('A' for Active; 'I' for Inactive)
REMARK    1  A    between atoms: C_3  and  C_16 
REMARK    2  A    between atoms: C_5  and  O_7 
REMARK    3  A    between atoms: O_7  and  C_8 
REMARK    4  A    between atoms: C_8  and  C_9 
REMARK    5  A    between atoms: C_9  and  N_10 
REMARK    6  A    between atoms: C_19  and  C_26 
ROOT
HETATM    1  C   UNK N   1      27.858  18.824   6.994  0.00  0.00     0.071 A 
HETATM    2  C   UNK N   1      29.032  18.124   7.042  0.00  0.00     0.022 A 
HETATM    3  C   UNK N   1      29.799  17.558   6.042  0.00  0.00     0.031 A 
HETATM    4  C   UNK N   1      30.948  16.850   6.408  0.00  0.00     0.010 A 
HETATM    5  C   UNK N   1      31.292  16.724   7.782  0.00  0.00     0.017 A 
HETATM    6  C   UNK N   1      30.480  17.316   8.780  0.00  0.00     0.033 A 
HETATM    7  C   UNK N   1      29.349  18.014   8.356  0.00  0.00     0.060 A 
HETATM    8  N   UNK N   1      28.411  18.633   9.098  0.00  0.00    -0.299 N 
HETATM    9  N   UNK N   1      27.492  19.125   8.265  0.00  0.00    -0.299 N 
ATOM     10  HN  UNK N   1      26.656  19.641   8.537  1.00  0.00     0.187 HD
HETATM   11  H   UNK N   1      28.404  18.710  10.079  0.00  0.00     0.187 HD
ENDROOT
BRANCH   1  12
HETATM   12  C   UNK N   1      27.069  19.108   5.779  0.00  0.00    -0.004 A 
HETATM   13  C   UNK N   1      27.319  20.270   5.030  0.00  0.00     0.014 A 
HETATM   14  C   UNK N   1      26.682  20.481   3.810  0.00  0.00     0.004 A 
HETATM   15  C   UNK N   1      25.823  19.506   3.304  0.00  0.00     0.037 A 
HETATM   16  C   UNK N   1      25.559  18.341   4.047  0.00  0.00     0.069 A 
HETATM   17  C   UNK N   1      26.169  18.158   5.291  0.00  0.00     0.050 A 
BRANCH  16  18
HETATM   18  O   UNK N   1      24.797  17.349   3.544  0.00  0.00    -0.349 OA
BRANCH  18  19
HETATM   19  C   UNK N   1      24.106  16.501   4.379  0.00  0.00     0.206 C 
BRANCH  19  20
HETATM   20  C   UNK N   1      22.753  17.058   4.797  0.00  0.00     0.299 C 
BRANCH  20  21
HETATM   21  N   UNK N   1      22.048  17.749   3.719  0.00  0.00     0.090 N 
HETATM   22  C   UNK N   1      21.470  18.939   4.346  0.00  0.00     0.272 C 
HETATM   23  C   UNK N   1      20.689  19.769   3.330  0.00  0.00     0.030 C 
HETATM   24  C   UNK N   1      19.592  18.919   2.699  0.00  0.00     0.003 C 
HETATM   25  C   UNK N   1      20.194  17.649   2.113  0.00  0.00     0.030 C 
HETATM   26  C   UNK N   1      20.949  16.914   3.215  0.00  0.00     0.272 C 
ENDBRANCH  20  21
ENDBRANCH  19  20
ENDBRANCH  18  19
ENDBRANCH  16  18
ENDBRANCH   1  12
BRANCH   4  27
HETATM   27  C   UNK N   1      31.762  16.262   5.337  0.00  0.00     0.131 A 
HETATM   28  N   UNK N   1      31.365  15.209   4.597  0.00  0.00    -0.336 N 
HETATM   29  C   UNK N   1      32.391  15.013   3.748  0.00  0.00     0.199 A 
ATOM     30  HN  UNK N   1      30.494  14.684   4.665  1.00  0.00     0.168 HD
HETATM   31  N   UNK N   1      33.368  15.916   3.969  0.00  0.00    -0.295 N 
HETATM   32  N   UNK N   1      32.973  16.697   4.964  0.00  0.00    -0.284 N 
HETATM   33  H   UNK N   1      34.219  15.982   3.481  0.00  0.00     0.187 HD
ATOM     34  HN  UNK N   1      33.492  17.477   5.368  1.00  0.00     0.188 HD
ENDBRANCH   4  27
TORSDOF 6
ENDMDL
MODEL 7
REMARK VINA RESULT:      -7.4      4.236      8.044
REMARK  6 active torsions:
REMARK  status: ('A' for Active; 'I' for Inactive)
REMARK    1  A    between atoms: C_3  and  C_16 
REMARK    2  A    between atoms: C_5  and  O_7 
REMARK    3  A    between atoms: O_7  and  C_8 
REMARK    4  A    between atoms: C_8  and  C_9 
REMARK    5  A    between atoms: C_9  and  N_10 
REMARK    6  A    between atoms: C_19  and  C_26 
ROOT
HETATM    1  C   UNK N   1      27.094  19.561   6.218  0.00  0.00     0.071 A 
HETATM    2  C   UNK N   1      28.211  18.771   6.214  0.00  0.00     0.022 A 
HETATM    3  C   UNK N   1      28.885  18.148   5.183  0.00  0.00     0.031 A 
HETATM    4  C   UNK N   1      29.991  17.353   5.498  0.00  0.00     0.010 A 
HETATM    5  C   UNK N   1      30.387  17.200   6.855  0.00  0.00     0.017 A 
HETATM    6  C   UNK N   1      29.669  17.852   7.887  0.00  0.00     0.033 A 
HETATM    7  C   UNK N   1      28.578  18.637   7.513  0.00  0.00     0.060 A 
HETATM    8  N   UNK N   1      27.725  19.326   8.295  0.00  0.00    -0.299 N 
HETATM    9  N   UNK N   1      26.811  19.888   7.503  0.00  0.00    -0.299 N 
ATOM     10  HN  UNK N   1      26.031  20.468   7.812  1.00  0.00     0.187 HD
HETATM   11  H   UNK N   1      27.769  19.403   9.275  0.00  0.00     0.187 HD
ENDROOT
BRANCH   1  12
HETATM   12  C   UNK N   1      26.276  19.906   5.039  0.00  0.00    -0.004 A 
HETATM   13  C   UNK N   1      26.855  20.573   3.947  0.00  0.00     0.014 A 
HETATM   14  C   UNK N   1      26.132  20.781   2.775  0.00  0.00     0.004 A 
HETATM   15  C   UNK N   1      24.836  20.280   2.668  0.00  0.00     0.037 A 
HETATM   16  C   UNK N   1      24.242  19.615   3.755  0.00  0.00     0.069 A 
HETATM   17  C   UNK N   1      24.959  19.450   4.944  0.00  0.00     0.050 A 
BRANCH  16  18
HETATM   18  O   UNK N   1      23.021  19.052   3.648  0.00  0.00    -0.349 OA
BRANCH  18  19
HETATM   19  C   UNK N   1      21.962  19.764   3.132  0.00  0.00     0.206 C 
BRANCH  19  20
HETATM   20  C   UNK N   1      20.690  18.935   3.028  0.00  0.00     0.299 C 
BRANCH  20  21
HETATM   21  N   UNK N   1      20.924  17.559   2.592  0.00  0.00     0.090 N 
HETATM   22  C   UNK N   1      20.075  17.386   1.412  0.00  0.00     0.272 C 
HETATM   23  C   UNK N   1      20.211  15.976   0.840  0.00  0.00     0.030 C 
HETATM   24  C   UNK N   1      19.850  14.948   1.906  0.00  0.00     0.003 C 
HETATM   25  C   UNK N   1      20.688  15.182   3.156  0.00  0.00     0.030 C 
HETATM   26  C   UNK N   1      20.474  16.617   3.625  0.00  0.00     0.272 C 
ENDBRANCH  20  21
ENDBRANCH  19  20
ENDBRANCH  18  19
ENDBRANCH  16  18
ENDBRANCH   1  12
BRANCH   4  27
HETATM   27  C   UNK N   1      30.708  16.704   4.393  0.00  0.00     0.131 A 
HETATM   28  N   UNK N   1      30.573  15.399   4.086  0.00  0.00    -0.336 N 
HETATM   29  C   UNK N   1      31.386  15.237   3.025  0.00  0.00     0.199 A 
ATOM     30  HN  UNK N   1      29.993  14.700   4.550  1.00  0.00     0.168 HD
HETATM   31  N   UNK N   1      31.986  16.400   2.707  0.00  0.00    -0.295 N 
HETATM   32  N   UNK N   1      31.561  17.319   3.563  0.00  0.00    -0.284 N 
HETATM   33  H   UNK N   1      32.624  16.542   1.971  0.00  0.00     0.187 HD
ATOM     34  HN  UNK N   1      31.832  18.301   3.585  1.00  0.00     0.188 HD
ENDBRANCH   4  27
TORSDOF 6
ENDMDL
MODEL 8
REMARK VINA RESULT:      -7.4      3.601      7.967
REMARK  6 active torsions:
REMARK  status: ('A' for Active; 'I' for Inactive)
REMARK    1  A    between atoms: C_3  and  C_16 
REMARK    2  A    between atoms: C_5  and  O_7 
REMARK    3  A    between atoms: O_7  and  C_8 
REMARK    4  A    between atoms: C_8  and  C_9 
REMARK    5  A    between atoms: C_9  and  N_10 
REMARK    6  A    between atoms: C_19  and  C_26 
ROOT
HETATM    1  C   UNK N   1      22.399  15.564   6.201  0.00  0.00     0.071 A 
HETATM    2  C   UNK N   1      21.948  15.089   7.402  0.00  0.00     0.022 A 
HETATM    3  C   UNK N   1      22.503  14.198   8.298  0.00  0.00     0.031 A 
HETATM    4  C   UNK N   1      21.772  13.865   9.442  0.00  0.00     0.010 A 
HETATM    5  C   UNK N   1      20.488  14.439   9.651  0.00  0.00     0.017 A 
HETATM    6  C   UNK N   1      19.949  15.348   8.708  0.00  0.00     0.033 A 
HETATM    7  C   UNK N   1      20.726  15.646   7.588  0.00  0.00     0.060 A 
HETATM    8  N   UNK N   1      20.432  16.446   6.546  0.00  0.00    -0.299 N 
HETATM    9  N   UNK N   1      21.454  16.392   5.691  0.00  0.00    -0.299 N 
ATOM     10  HN  UNK N   1      21.516  16.890   4.803  1.00  0.00     0.187 HD
HETATM   11  H   UNK N   1      19.610  16.977   6.434  0.00  0.00     0.187 HD
ENDROOT
BRANCH   1  12
HETATM   12  C   UNK N   1      23.648  15.160   5.526  0.00  0.00    -0.004 A 
HETATM   13  C   UNK N   1      23.623  14.737   4.186  0.00  0.00     0.014 A 
HETATM   14  C   UNK N   1      24.807  14.487   3.497  0.00  0.00     0.004 A 
HETATM   15  C   UNK N   1      26.030  14.704   4.128  0.00  0.00     0.037 A 
HETATM   16  C   UNK N   1      26.070  15.122   5.470  0.00  0.00     0.069 A 
HETATM   17  C   UNK N   1      24.877  15.328   6.169  0.00  0.00     0.050 A 
BRANCH  16  18
HETATM   18  O   UNK N   1      27.238  15.416   6.077  0.00  0.00    -0.349 OA
BRANCH  18  19
HETATM   19  C   UNK N   1      27.416  16.626   6.709  0.00  0.00     0.206 C 
BRANCH  19  20
HETATM   20  C   UNK N   1      28.699  17.327   6.288  0.00  0.00     0.299 C 
BRANCH  20  21
HETATM   21  N   UNK N   1      28.479  18.657   5.724  0.00  0.00     0.090 N 
HETATM   22  C   UNK N   1      27.824  19.418   6.790  0.00  0.00     0.272 C 
HETATM   23  C   UNK N   1      27.523  20.846   6.339  0.00  0.00     0.030 C 
HETATM   24  C   UNK N   1      26.648  20.823   5.092  0.00  0.00     0.003 C 
HETATM   25  C   UNK N   1      27.304  19.969   4.014  0.00  0.00     0.030 C 
HETATM   26  C   UNK N   1      27.559  18.578   4.582  0.00  0.00     0.272 C 
ENDBRANCH  20  21
ENDBRANCH  19  20
ENDBRANCH  18  19
ENDBRANCH  16  18
ENDBRANCH   1  12
BRANCH   4  27
HETATM   27  C   UNK N   1      22.376  12.925  10.395  0.00  0.00     0.131 A 
HETATM   28  N   UNK N   1      23.696  12.884  10.659  0.00  0.00    -0.336 N 
HETATM   29  C   UNK N   1      23.806  11.903  11.575  0.00  0.00     0.199 A 
ATOM     30  HN  UNK N   1      24.437  13.459  10.260  1.00  0.00     0.168 HD
HETATM   31  N   UNK N   1      22.597  11.375  11.850  0.00  0.00    -0.295 N 
HETATM   32  N   UNK N   1      21.702  12.015  11.111  0.00  0.00    -0.284 N 
HETATM   33  H   UNK N   1      22.412  10.646  12.485  0.00  0.00     0.187 HD
ATOM     34  HN  UNK N   1      20.697  11.847  11.091  1.00  0.00     0.188 HD
ENDBRANCH   4  27
TORSDOF 6
ENDMDL
MODEL 9
REMARK VINA RESULT:      -7.3      8.685     12.601
REMARK  6 active torsions:
REMARK  status: ('A' for Active; 'I' for Inactive)
REMARK    1  A    between atoms: C_3  and  C_16 
REMARK    2  A    between atoms: C_5  and  O_7 
REMARK    3  A    between atoms: O_7  and  C_8 
REMARK    4  A    between atoms: C_8  and  C_9 
REMARK    5  A    between atoms: C_9  and  N_10 
REMARK    6  A    between atoms: C_19  and  C_26 
ROOT
HETATM    1  C   UNK N   1      32.693  17.424   8.453  0.00  0.00     0.071 A 
HETATM    2  C   UNK N   1      33.401  16.328   8.864  0.00  0.00     0.022 A 
HETATM    3  C   UNK N   1      33.023  15.012   9.044  0.00  0.00     0.031 A 
HETATM    4  C   UNK N   1      33.975  14.109   9.527  0.00  0.00     0.010 A 
HETATM    5  C   UNK N   1      35.290  14.561   9.825  0.00  0.00     0.017 A 
HETATM    6  C   UNK N   1      35.641  15.919   9.630  0.00  0.00     0.033 A 
HETATM    7  C   UNK N   1      34.652  16.773   9.141  0.00  0.00     0.060 A 
HETATM    8  N   UNK N   1      34.722  18.096   8.901  0.00  0.00    -0.299 N 
HETATM    9  N   UNK N   1      33.520  18.498   8.485  0.00  0.00    -0.299 N 
ATOM     10  HN  UNK N   1      33.265  19.453   8.232  1.00  0.00     0.187 HD
HETATM   11  H   UNK N   1      35.518  18.665   9.011  0.00  0.00     0.187 HD
ENDROOT
BRANCH   1  12
HETATM   12  C   UNK N   1      31.252  17.453   8.135  0.00  0.00    -0.004 A 
HETATM   13  C   UNK N   1      30.322  17.861   9.106  0.00  0.00     0.014 A 
HETATM   14  C   UNK N   1      28.978  18.026   8.778  0.00  0.00     0.004 A 
HETATM   15  C   UNK N   1      28.561  17.831   7.462  0.00  0.00     0.037 A 
HETATM   16  C   UNK N   1      29.481  17.416   6.482  0.00  0.00     0.069 A 
HETATM   17  C   UNK N   1      30.819  17.210   6.829  0.00  0.00     0.050 A 
BRANCH  16  18
HETATM   18  O   UNK N   1      29.118  17.299   5.189  0.00  0.00    -0.349 OA
BRANCH  18  19
HETATM   19  C   UNK N   1      29.007  16.060   4.600  0.00  0.00     0.206 C 
BRANCH  19  20
HETATM   20  C   UNK N   1      29.492  16.047   3.158  0.00  0.00     0.299 C 
BRANCH  20  21
HETATM   21  N   UNK N   1      30.881  15.612   3.013  0.00  0.00     0.090 N 
HETATM   22  C   UNK N   1      31.114  14.705   4.138  0.00  0.00     0.272 C 
HETATM   23  C   UNK N   1      32.543  14.167   4.122  0.00  0.00     0.030 C 
HETATM   24  C   UNK N   1      33.533  15.325   4.162  0.00  0.00     0.003 C 
HETATM   25  C   UNK N   1      33.237  16.300   3.031  0.00  0.00     0.030 C 
HETATM   26  C   UNK N   1      31.788  16.759   3.150  0.00  0.00     0.272 C 
ENDBRANCH  20  21
ENDBRANCH  19  20
ENDBRANCH  18  19
ENDBRANCH  16  18
ENDBRANCH   1  12
BRANCH   4  27
HETATM   27  C   UNK N   1      33.566  12.710   9.705  0.00  0.00     0.131 A 
HETATM   28  N   UNK N   1      34.288  11.809  10.399  0.00  0.00    -0.336 N 
HETATM   29  C   UNK N   1      33.556  10.682  10.315  0.00  0.00     0.199 A 
ATOM     30  HN  UNK N   1      35.180  11.948  10.874  1.00  0.00     0.168 HD
HETATM   31  N   UNK N   1      32.436  10.899   9.598  0.00  0.00    -0.295 N 
HETATM   32  N   UNK N   1      32.443  12.168   9.216  0.00  0.00    -0.284 N 
HETATM   33  H   UNK N   1      31.739  10.235   9.395  0.00  0.00     0.187 HD
ATOM     34  HN  UNK N   1      31.731  12.640   8.659  1.00  0.00     0.188 HD
ENDBRANCH   4  27
TORSDOF 6
ENDMDL
