MODEL 1
REMARK VINA RESULT:      -8.2      0.000      0.000
REMARK  11 active torsions:
REMARK  status: ('A' for Active; 'I' for Inactive)
REMARK    1  A    between atoms: C_4  and  C_22 
REMARK    2  A    between atoms: C_6  and  C_7 
REMARK    3  A    between atoms: C_7  and  C_8 
REMARK    4  A    between atoms: C_9  and  C_8 
REMARK       I    between atoms: C_15  and  N_21 
REMARK       I    between atoms: C_22  and  N_24 
REMARK    5  A    between atoms: C_25  and  N_24 
REMARK    6  A    between atoms: C_25  and  C_26 
REMARK    7  A    between atoms: C_25  and  C_31 
REMARK    8  A    between atoms: C_26  and  C_27 
REMARK    9  A    between atoms: C_27  and  C_28 
REMARK   10  A    between atoms: C_28  and  O_30 
REMARK   11  A    between atoms: C_31  and  O_33 
ROOT
HETATM    1  C   UNK N   1      26.680  16.512   4.414  0.00  0.00     0.049 C 
HETATM    2  C   UNK N   1      26.049  17.861   4.442  0.00  0.00    -0.047 A 
HETATM    3  C   UNK N   1      24.800  18.135   3.811  0.00  0.00     0.032 A 
HETATM    4  C   UNK N   1      24.446  19.487   3.907  0.00  0.00     0.073 A 
HETATM    5  S   UNK N   1      25.648  20.265   4.741  0.00  0.00    -0.089 SA
HETATM    6  C   UNK N   1      26.659  18.991   5.003  0.00  0.00    -0.011 A 
ENDROOT
BRANCH   6   7
HETATM    7  C   UNK N   1      28.020  19.099   5.600  0.00  0.00     0.047 C 
BRANCH   7   8
HETATM    8  C   UNK N   1      27.975  19.328   7.094  0.00  0.00     0.011 C 
BRANCH   8   9
HETATM    9  C   UNK N   1      28.763  18.239   7.787  0.00  0.00     0.008 C 
HETATM   10  C   UNK N   1      29.725  17.579   6.797  0.00  0.00     0.054 C 
HETATM   11  C   UNK N   1      30.652  16.618   7.490  0.00  0.00     0.055 A 
HETATM   12  C   UNK N   1      31.274  15.580   6.789  0.00  0.00     0.269 A 
HETATM   13  C   UNK N   1      30.916  16.750   8.862  0.00  0.00     0.128 A 
HETATM   14  O   UNK N   1      31.078  15.430   5.596  0.00  0.00    -0.267 OA
HETATM   15  N   UNK N   1      32.110  14.721   7.454  0.00  0.00    -0.156 N 
HETATM   16  C   UNK N   1      32.343  14.865   8.785  0.00  0.00     0.680 A 
HETATM   17  H   UNK N   1      32.549  13.991   6.961  0.00  0.00     0.187 HD
HETATM   18  N   UNK N   1      31.749  15.872   9.479  0.00  0.00    -0.176 N 
HETATM   19  N   UNK N   1      33.205  13.971   9.448  0.00  0.00    -0.234 N 
ATOM     20  HN  UNK N   1      31.931  15.969  10.478  1.00  0.00     0.186 HD
HETATM   21  H   UNK N   1      33.427  14.109  10.397  0.00  0.00     0.174 HD
HETATM   22  H   UNK N   1      33.587  13.206   8.961  0.00  0.00     0.174 HD
HETATM   23  N   UNK N   1      30.316  17.797   9.609  0.00  0.00    -0.375 N 
HETATM   24  C   UNK N   1      29.534  18.827   8.960  0.00  0.00     0.126 C 
HETATM   25  H   UNK N   1      30.435  17.823  10.586  0.00  0.00     0.161 HD
ENDBRANCH   8   9
ENDBRANCH   7   8
ENDBRANCH   6   7
BRANCH   4  26
HETATM   26  C   UNK N   1      23.394  20.171   3.147  0.00  0.00     0.259 C 
HETATM   27  O   UNK N   1      23.488  21.369   2.921  0.00  0.00    -0.267 OA
HETATM   28  N   UNK N   1      22.257  19.485   2.860  0.00  0.00    -0.342 N 
HETATM   29  H   UNK N   1      22.314  18.503   2.870  0.00  0.00     0.163 HD
BRANCH  28  30
HETATM   30  C   UNK N   1      20.966  20.065   2.541  0.00  0.00     0.183 C 
BRANCH  30  31
HETATM   31  C   UNK N   1      19.833  19.134   2.960  0.00  0.00     0.046 C 
BRANCH  31  32
HETATM   32  C   UNK N   1      20.285  17.685   3.082  0.00  0.00     0.112 C 
BRANCH  32  33
HETATM   33  C   UNK N   1      20.126  16.999   1.767  0.00  0.00     0.139 C 
HETATM   34  O   UNK N   1      20.920  16.136   1.425  0.00  0.00    -0.650 OA
BRANCH  33  35
HETATM   35  O   UNK N   1      19.103  17.327   0.957  0.00  0.00    -0.776 OA
HETATM   36  H   UNK N   1      18.315  16.821   0.932  0.00  0.00     0.167 HD
ENDBRANCH  33  35
ENDBRANCH  32  33
ENDBRANCH  31  32
ENDBRANCH  30  31
BRANCH  30  37
HETATM   37  C   UNK N   1      20.808  20.645   1.167  0.00  0.00     0.163 C 
HETATM   38  O   UNK N   1      20.746  21.852   0.996  0.00  0.00    -0.648 OA
BRANCH  37  39
HETATM   39  O   UNK N   1      20.738  19.812   0.111  0.00  0.00    -0.775 OA
HETATM   40  H   UNK N   1      21.486  19.596  -0.410  0.00  0.00     0.167 HD
ENDBRANCH  37  39
ENDBRANCH  30  37
ENDBRANCH  28  30
ENDBRANCH   4  26
TORSDOF 11
ENDMDL
MODEL 2
REMARK VINA RESULT:      -7.9      2.321      2.846
REMARK  11 active torsions:
REMARK  status: ('A' for Active; 'I' for Inactive)
REMARK    1  A    between atoms: C_4  and  C_22 
REMARK    2  A    between atoms: C_6  and  C_7 
REMARK    3  A    between atoms: C_7  and  C_8 
REMARK    4  A    between atoms: C_9  and  C_8 
REMARK       I    between atoms: C_15  and  N_21 
REMARK       I    between atoms: C_22  and  N_24 
REMARK    5  A    between atoms: C_25  and  N_24 
REMARK    6  A    between atoms: C_25  and  C_26 
REMARK    7  A    between atoms: C_25  and  C_31 
REMARK    8  A    between atoms: C_26  and  C_27 
REMARK    9  A    between atoms: C_27  and  C_28 
REMARK   10  A    between atoms: C_28  and  O_30 
REMARK   11  A    between atoms: C_31  and  O_33 
ROOT
HETATM    1  C   UNK N   1      28.499  20.320   5.399  0.00  0.00     0.049 C 
HETATM    2  C   UNK N   1      27.315  19.698   4.744  0.00  0.00    -0.047 A 
HETATM    3  C   UNK N   1      26.358  20.460   4.010  0.00  0.00     0.032 A 
HETATM    4  C   UNK N   1      25.296  19.672   3.550  0.00  0.00     0.073 A 
HETATM    5  S   UNK N   1      25.571  18.115   4.049  0.00  0.00    -0.089 SA
HETATM    6  C   UNK N   1      26.986  18.342   4.862  0.00  0.00    -0.011 A 
ENDROOT
BRANCH   6   7
HETATM    7  C   UNK N   1      27.670  17.298   5.677  0.00  0.00     0.047 C 
BRANCH   7   8
HETATM    8  C   UNK N   1      28.961  16.830   5.042  0.00  0.00     0.011 C 
BRANCH   8   9
HETATM    9  C   UNK N   1      29.996  16.615   6.124  0.00  0.00     0.008 C 
HETATM   10  C   UNK N   1      31.275  17.384   5.785  0.00  0.00     0.054 C 
HETATM   11  C   UNK N   1      32.258  17.343   6.922  0.00  0.00     0.055 A 
HETATM   12  C   UNK N   1      33.625  17.546   6.705  0.00  0.00     0.269 A 
HETATM   13  C   UNK N   1      31.819  17.103   8.232  0.00  0.00     0.128 A 
HETATM   14  O   UNK N   1      34.051  17.763   5.584  0.00  0.00    -0.267 OA
HETATM   15  N   UNK N   1      34.493  17.499   7.764  0.00  0.00    -0.156 N 
HETATM   16  C   UNK N   1      34.043  17.256   9.023  0.00  0.00     0.680 A 
HETATM   17  H   UNK N   1      35.454  17.642   7.612  0.00  0.00     0.187 HD
HETATM   18  N   UNK N   1      32.717  17.060   9.251  0.00  0.00    -0.176 N 
HETATM   19  N   UNK N   1      34.952  17.211  10.097  0.00  0.00    -0.234 N 
ATOM     20  HN  UNK N   1      32.392  16.878  10.200  1.00  0.00     0.186 HD
HETATM   21  H   UNK N   1      34.625  17.099  11.019  0.00  0.00     0.174 HD
HETATM   22  H   UNK N   1      35.918  17.291   9.926  0.00  0.00     0.174 HD
HETATM   23  N   UNK N   1      30.439  16.904   8.500  0.00  0.00    -0.375 N 
HETATM   24  C   UNK N   1      29.443  17.076   7.465  0.00  0.00     0.126 C 
HETATM   25  H   UNK N   1      30.156  16.645   9.406  0.00  0.00     0.161 HD
ENDBRANCH   8   9
ENDBRANCH   7   8
ENDBRANCH   6   7
BRANCH   4  26
HETATM   26  C   UNK N   1      24.017  20.153   3.019  0.00  0.00     0.259 C 
HETATM   27  O   UNK N   1      23.960  21.237   2.456  0.00  0.00    -0.267 OA
HETATM   28  N   UNK N   1      22.891  19.455   3.319  0.00  0.00    -0.342 N 
HETATM   29  H   UNK N   1      23.007  18.512   3.577  0.00  0.00     0.163 HD
BRANCH  28  30
HETATM   30  C   UNK N   1      21.533  19.967   3.293  0.00  0.00     0.183 C 
BRANCH  30  31
HETATM   31  C   UNK N   1      20.611  19.105   4.149  0.00  0.00     0.046 C 
BRANCH  31  32
HETATM   32  C   UNK N   1      21.292  17.836   4.642  0.00  0.00     0.112 C 
BRANCH  32  33
HETATM   33  C   UNK N   1      21.565  17.949   6.105  0.00  0.00     0.139 C 
HETATM   34  O   UNK N   1      20.984  18.787   6.775  0.00  0.00    -0.650 OA
BRANCH  33  35
HETATM   35  O   UNK N   1      22.450  17.121   6.687  0.00  0.00    -0.776 OA
HETATM   36  H   UNK N   1      22.332  16.815   7.565  0.00  0.00     0.167 HD
ENDBRANCH  33  35
ENDBRANCH  32  33
ENDBRANCH  31  32
ENDBRANCH  30  31
BRANCH  30  37
HETATM   37  C   UNK N   1      20.971  20.321   1.949  0.00  0.00     0.163 C 
HETATM   38  O   UNK N   1      20.572  19.456   1.185  0.00  0.00    -0.648 OA
BRANCH  37  39
HETATM   39  O   UNK N   1      20.908  21.617   1.588  0.00  0.00    -0.775 OA
HETATM   40  H   UNK N   1      21.538  22.012   1.018  0.00  0.00     0.167 HD
ENDBRANCH  37  39
ENDBRANCH  30  37
ENDBRANCH  28  30
ENDBRANCH   4  26
TORSDOF 11
ENDMDL
MODEL 3
REMARK VINA RESULT:      -7.8      2.153      3.311
REMARK  11 active torsions:
REMARK  status: ('A' for Active; 'I' for Inactive)
REMARK    1  A    between atoms: C_4  and  C_22 
REMARK    2  A    between atoms: C_6  and  C_7 
REMARK    3  A    between atoms: C_7  and  C_8 
REMARK    4  A    between atoms: C_9  and  C_8 
REMARK       I    between atoms: C_15  and  N_21 
REMARK       I    between atoms: C_22  and  N_24 
REMARK    5  A    between atoms: C_25  and  N_24 
REMARK    6  A    between atoms: C_25  and  C_26 
REMARK    7  A    between atoms: C_25  and  C_31 
REMARK    8  A    between atoms: C_26  and  C_27 
REMARK    9  A    between atoms: C_27  and  C_28 
REMARK   10  A    between atoms: C_28  and  O_30 
REMARK   11  A    between atoms: C_31  and  O_33 
ROOT
HETATM    1  C   UNK N   1      27.018  20.455   5.805  0.00  0.00     0.049 C 
HETATM    2  C   UNK N   1      26.487  19.299   5.030  0.00  0.00    -0.047 A 
HETATM    3  C   UNK N   1      25.091  19.056   4.878  0.00  0.00     0.032 A 
HETATM    4  C   UNK N   1      24.834  17.872   4.174  0.00  0.00     0.073 A 
HETATM    5  S   UNK N   1      26.295  17.194   3.779  0.00  0.00    -0.089 SA
HETATM    6  C   UNK N   1      27.298  18.306   4.465  0.00  0.00    -0.011 A 
ENDROOT
BRANCH   6   7
HETATM    7  C   UNK N   1      28.778  18.161   4.566  0.00  0.00     0.047 C 
BRANCH   7   8
HETATM    8  C   UNK N   1      29.210  16.713   4.633  0.00  0.00     0.011 C 
BRANCH   8   9
HETATM    9  C   UNK N   1      30.140  16.526   5.810  0.00  0.00     0.008 C 
HETATM   10  C   UNK N   1      31.455  17.270   5.562  0.00  0.00     0.054 C 
HETATM   11  C   UNK N   1      32.331  17.260   6.784  0.00  0.00     0.055 A 
HETATM   12  C   UNK N   1      33.714  17.442   6.684  0.00  0.00     0.269 A 
HETATM   13  C   UNK N   1      31.773  17.071   8.057  0.00  0.00     0.128 A 
HETATM   14  O   UNK N   1      34.243  17.614   5.600  0.00  0.00    -0.267 OA
HETATM   15  N   UNK N   1      34.482  17.423   7.819  0.00  0.00    -0.156 N 
HETATM   16  C   UNK N   1      33.918  17.230   9.040  0.00  0.00     0.680 A 
HETATM   17  H   UNK N   1      35.456  17.552   7.750  0.00  0.00     0.187 HD
HETATM   18  N   UNK N   1      32.575  17.056   9.153  0.00  0.00    -0.176 N 
HETATM   19  N   UNK N   1      34.726  17.214  10.193  0.00  0.00    -0.234 N 
ATOM     20  HN  UNK N   1      32.163  16.911  10.075  1.00  0.00     0.186 HD
HETATM   21  H   UNK N   1      34.316  17.139  11.085  0.00  0.00     0.174 HD
HETATM   22  H   UNK N   1      35.704  17.278  10.107  0.00  0.00     0.174 HD
HETATM   23  N   UNK N   1      30.372  16.896   8.205  0.00  0.00    -0.375 N 
HETATM   24  C   UNK N   1      29.475  17.041   7.079  0.00  0.00     0.126 C 
HETATM   25  H   UNK N   1      30.004  16.672   9.091  0.00  0.00     0.161 HD
ENDBRANCH   8   9
ENDBRANCH   7   8
ENDBRANCH   6   7
BRANCH   4  26
HETATM   26  C   UNK N   1      23.549  17.173   4.079  0.00  0.00     0.259 C 
HETATM   27  O   UNK N   1      23.520  15.951   4.056  0.00  0.00    -0.267 OA
HETATM   28  N   UNK N   1      22.431  17.909   3.845  0.00  0.00    -0.342 N 
HETATM   29  H   UNK N   1      22.469  18.864   4.078  0.00  0.00     0.163 HD
BRANCH  28  30
HETATM   30  C   UNK N   1      21.185  17.419   3.283  0.00  0.00     0.183 C 
BRANCH  30  31
HETATM   31  C   UNK N   1      20.722  18.306   2.132  0.00  0.00     0.046 C 
BRANCH  31  32
HETATM   32  C   UNK N   1      20.800  19.788   2.471  0.00  0.00     0.112 C 
BRANCH  32  33
HETATM   33  C   UNK N   1      20.758  20.592   1.215  0.00  0.00     0.139 C 
HETATM   34  O   UNK N   1      20.796  21.812   1.266  0.00  0.00    -0.650 OA
BRANCH  33  35
HETATM   35  O   UNK N   1      20.683  19.973   0.024  0.00  0.00    -0.776 OA
HETATM   36  H   UNK N   1      20.393  20.423  -0.746  0.00  0.00     0.167 HD
ENDBRANCH  33  35
ENDBRANCH  32  33
ENDBRANCH  31  32
ENDBRANCH  30  31
BRANCH  30  37
HETATM   37  C   UNK N   1      20.103  17.059   4.256  0.00  0.00     0.163 C 
HETATM   38  O   UNK N   1      20.325  17.006   5.455  0.00  0.00    -0.648 OA
BRANCH  37  39
HETATM   39  O   UNK N   1      18.868  16.793   3.789  0.00  0.00    -0.775 OA
HETATM   40  H   UNK N   1      18.388  16.029   4.041  0.00  0.00     0.167 HD
ENDBRANCH  37  39
ENDBRANCH  30  37
ENDBRANCH  28  30
ENDBRANCH   4  26
TORSDOF 11
ENDMDL
MODEL 4
REMARK VINA RESULT:      -7.8      8.012     12.987
REMARK  11 active torsions:
REMARK  status: ('A' for Active; 'I' for Inactive)
REMARK    1  A    between atoms: C_4  and  C_22 
REMARK    2  A    between atoms: C_6  and  C_7 
REMARK    3  A    between atoms: C_7  and  C_8 
REMARK    4  A    between atoms: C_9  and  C_8 
REMARK       I    between atoms: C_15  and  N_21 
REMARK       I    between atoms: C_22  and  N_24 
REMARK    5  A    between atoms: C_25  and  N_24 
REMARK    6  A    between atoms: C_25  and  C_26 
REMARK    7  A    between atoms: C_25  and  C_31 
REMARK    8  A    between atoms: C_26  and  C_27 
REMARK    9  A    between atoms: C_27  and  C_28 
REMARK   10  A    between atoms: C_28  and  O_30 
REMARK   11  A    between atoms: C_31  and  O_33 
ROOT
HETATM    1  C   UNK N   1      38.591  13.044  10.480  0.00  0.00     0.049 C 
HETATM    2  C   UNK N   1      37.158  13.448  10.471  0.00  0.00    -0.047 A 
HETATM    3  C   UNK N   1      36.541  14.058   9.340  0.00  0.00     0.032 A 
HETATM    4  C   UNK N   1      35.211  14.416   9.592  0.00  0.00     0.073 A 
HETATM    5  S   UNK N   1      34.858  13.979  11.152  0.00  0.00    -0.089 SA
HETATM    6  C   UNK N   1      36.318  13.352  11.588  0.00  0.00    -0.011 A 
ENDROOT
BRANCH   6   7
HETATM    7  C   UNK N   1      36.671  12.913  12.969  0.00  0.00     0.047 C 
BRANCH   7   8
HETATM    8  C   UNK N   1      35.763  13.521  14.014  0.00  0.00     0.011 C 
BRANCH   8   9
HETATM    9  C   UNK N   1      35.927  12.763  15.313  0.00  0.00     0.008 C 
HETATM   10  C   UNK N   1      35.275  13.542  16.459  0.00  0.00     0.054 C 
HETATM   11  C   UNK N   1      35.257  12.738  17.729  0.00  0.00     0.055 A 
HETATM   12  C   UNK N   1      35.160  13.360  18.978  0.00  0.00     0.269 A 
HETATM   13  C   UNK N   1      35.334  11.338  17.685  0.00  0.00     0.128 A 
HETATM   14  O   UNK N   1      35.087  14.573  19.065  0.00  0.00    -0.267 OA
HETATM   15  N   UNK N   1      35.150  12.595  20.116  0.00  0.00    -0.156 N 
HETATM   16  C   UNK N   1      35.234  11.241  20.046  0.00  0.00     0.680 A 
HETATM   17  H   UNK N   1      35.081  13.032  20.995  0.00  0.00     0.187 HD
HETATM   18  N   UNK N   1      35.325  10.622  18.839  0.00  0.00    -0.176 N 
HETATM   19  N   UNK N   1      35.223  10.475  21.227  0.00  0.00    -0.234 N 
ATOM     20  HN  UNK N   1      35.388   9.604  18.800  1.00  0.00     0.186 HD
HETATM   21  H   UNK N   1      35.218   9.491  21.180  0.00  0.00     0.174 HD
HETATM   22  H   UNK N   1      35.219  10.924  22.103  0.00  0.00     0.174 HD
HETATM   23  N   UNK N   1      35.420  10.665  16.438  0.00  0.00    -0.375 N 
HETATM   24  C   UNK N   1      35.296  11.383  15.189  0.00  0.00     0.126 C 
HETATM   25  H   UNK N   1      35.567   9.691  16.424  0.00  0.00     0.161 HD
ENDBRANCH   8   9
ENDBRANCH   7   8
ENDBRANCH   6   7
BRANCH   4  26
HETATM   26  C   UNK N   1      34.374  15.302   8.776  0.00  0.00     0.259 C 
HETATM   27  O   UNK N   1      34.343  15.162   7.561  0.00  0.00    -0.267 OA
HETATM   28  N   UNK N   1      33.786  16.368   9.378  0.00  0.00    -0.342 N 
HETATM   29  H   UNK N   1      33.665  16.318  10.353  0.00  0.00     0.163 HD
BRANCH  28  30
HETATM   30  C   UNK N   1      33.318  17.573   8.718  0.00  0.00     0.183 C 
BRANCH  30  31
HETATM   31  C   UNK N   1      31.974  17.333   8.037  0.00  0.00     0.046 C 
BRANCH  31  32
HETATM   32  C   UNK N   1      30.861  17.036   9.032  0.00  0.00     0.112 C 
BRANCH  32  33
HETATM   33  C   UNK N   1      29.914  18.187   9.084  0.00  0.00     0.139 C 
HETATM   34  O   UNK N   1      29.600  18.676  10.158  0.00  0.00    -0.650 OA
BRANCH  33  35
HETATM   35  O   UNK N   1      29.409  18.692   7.944  0.00  0.00    -0.776 OA
HETATM   36  H   UNK N   1      29.016  19.542   7.916  0.00  0.00     0.167 HD
ENDBRANCH  33  35
ENDBRANCH  32  33
ENDBRANCH  31  32
ENDBRANCH  30  31
BRANCH  30  37
HETATM   37  C   UNK N   1      34.313  18.309   7.872  0.00  0.00     0.163 C 
HETATM   38  O   UNK N   1      35.044  19.159   8.355  0.00  0.00    -0.648 OA
BRANCH  37  39
HETATM   39  O   UNK N   1      34.396  18.017   6.560  0.00  0.00    -0.775 OA
HETATM   40  H   UNK N   1      33.694  18.184   5.962  0.00  0.00     0.167 HD
ENDBRANCH  37  39
ENDBRANCH  30  37
ENDBRANCH  28  30
ENDBRANCH   4  26
TORSDOF 11
ENDMDL
MODEL 5
REMARK VINA RESULT:      -7.6      3.157     11.628
REMARK  11 active torsions:
REMARK  status: ('A' for Active; 'I' for Inactive)
REMARK    1  A    between atoms: C_4  and  C_22 
REMARK    2  A    between atoms: C_6  and  C_7 
REMARK    3  A    between atoms: C_7  and  C_8 
REMARK    4  A    between atoms: C_9  and  C_8 
REMARK       I    between atoms: C_15  and  N_21 
REMARK       I    between atoms: C_22  and  N_24 
REMARK    5  A    between atoms: C_25  and  N_24 
REMARK    6  A    between atoms: C_25  and  C_26 
REMARK    7  A    between atoms: C_25  and  C_31 
REMARK    8  A    between atoms: C_26  and  C_27 
REMARK    9  A    between atoms: C_27  and  C_28 
REMARK   10  A    between atoms: C_28  and  O_30 
REMARK   11  A    between atoms: C_31  and  O_33 
ROOT
HETATM    1  C   UNK N   1      28.156  18.508   8.524  0.00  0.00     0.049 C 
HETATM    2  C   UNK N   1      29.431  17.885   8.074  0.00  0.00    -0.047 A 
HETATM    3  C   UNK N   1      30.626  17.940   8.850  0.00  0.00     0.032 A 
HETATM    4  C   UNK N   1      31.712  17.351   8.190  0.00  0.00     0.073 A 
HETATM    5  S   UNK N   1      31.172  16.800   6.722  0.00  0.00    -0.089 SA
HETATM    6  C   UNK N   1      29.597  17.275   6.824  0.00  0.00    -0.011 A 
ENDROOT
BRANCH   6   7
HETATM    7  C   UNK N   1      28.612  17.179   5.709  0.00  0.00     0.047 C 
BRANCH   7   8
HETATM    8  C   UNK N   1      28.296  18.530   5.106  0.00  0.00     0.011 C 
BRANCH   8   9
HETATM    9  C   UNK N   1      26.797  18.737   5.111  0.00  0.00     0.008 C 
HETATM   10  C   UNK N   1      26.352  19.375   3.793  0.00  0.00     0.054 C 
HETATM   11  C   UNK N   1      24.853  19.428   3.688  0.00  0.00     0.055 A 
HETATM   12  C   UNK N   1      24.219  20.348   2.846  0.00  0.00     0.269 A 
HETATM   13  C   UNK N   1      24.057  18.546   4.433  0.00  0.00     0.128 A 
HETATM   14  O   UNK N   1      24.870  21.130   2.176  0.00  0.00    -0.267 OA
HETATM   15  N   UNK N   1      22.851  20.370   2.778  0.00  0.00    -0.156 N 
HETATM   16  C   UNK N   1      22.102  19.511   3.517  0.00  0.00     0.680 A 
HETATM   17  H   UNK N   1      22.404  21.017   2.186  0.00  0.00     0.187 HD
HETATM   18  N   UNK N   1      22.703  18.609   4.336  0.00  0.00    -0.176 N 
HETATM   19  N   UNK N   1      20.696  19.552   3.431  0.00  0.00    -0.234 N 
ATOM     20  HN  UNK N   1      22.130  17.969   4.886  1.00  0.00     0.186 HD
HETATM   21  H   UNK N   1      20.151  18.890   3.915  0.00  0.00     0.174 HD
HETATM   22  H   UNK N   1      20.258  20.244   2.887  0.00  0.00     0.174 HD
HETATM   23  N   UNK N   1      24.659  17.588   5.290  0.00  0.00    -0.375 N 
HETATM   24  C   UNK N   1      26.093  17.403   5.315  0.00  0.00     0.126 C 
HETATM   25  H   UNK N   1      24.089  17.039   5.876  0.00  0.00     0.161 HD
ENDBRANCH   8   9
ENDBRANCH   7   8
ENDBRANCH   6   7
BRANCH   4  26
HETATM   26  C   UNK N   1      33.127  17.475   8.553  0.00  0.00     0.259 C 
HETATM   27  O   UNK N   1      33.797  18.389   8.091  0.00  0.00    -0.267 OA
HETATM   28  N   UNK N   1      33.702  16.468   9.261  0.00  0.00    -0.342 N 
HETATM   29  H   UNK N   1      33.099  15.884   9.775  0.00  0.00     0.163 HD
BRANCH  28  30
HETATM   30  C   UNK N   1      35.121  16.172   9.331  0.00  0.00     0.183 C 
BRANCH  30  31
HETATM   31  C   UNK N   1      35.484  15.025   8.392  0.00  0.00     0.046 C 
BRANCH  31  32
HETATM   32  C   UNK N   1      34.333  14.637   7.475  0.00  0.00     0.112 C 
BRANCH  32  33
HETATM   33  C   UNK N   1      34.645  15.049   6.076  0.00  0.00     0.139 C 
HETATM   34  O   UNK N   1      35.068  16.171   5.846  0.00  0.00    -0.650 OA
BRANCH  33  35
HETATM   35  O   UNK N   1      34.465  14.180   5.065  0.00  0.00    -0.776 OA
HETATM   36  H   UNK N   1      33.785  14.300   4.431  0.00  0.00     0.167 HD
ENDBRANCH  33  35
ENDBRANCH  32  33
ENDBRANCH  31  32
ENDBRANCH  30  31
BRANCH  30  37
HETATM   37  C   UNK N   1      35.720  16.058  10.700  0.00  0.00     0.163 C 
HETATM   38  O   UNK N   1      35.022  15.827  11.675  0.00  0.00    -0.648 OA
BRANCH  37  39
HETATM   39  O   UNK N   1      37.049  16.213  10.847  0.00  0.00    -0.775 OA
HETATM   40  H   UNK N   1      37.661  15.531  10.651  0.00  0.00     0.167 HD
ENDBRANCH  37  39
ENDBRANCH  30  37
ENDBRANCH  28  30
ENDBRANCH   4  26
TORSDOF 11
ENDMDL
MODEL 6
REMARK VINA RESULT:      -7.6      1.523      2.220
REMARK  11 active torsions:
REMARK  status: ('A' for Active; 'I' for Inactive)
REMARK    1  A    between atoms: C_4  and  C_22 
REMARK    2  A    between atoms: C_6  and  C_7 
REMARK    3  A    between atoms: C_7  and  C_8 
REMARK    4  A    between atoms: C_9  and  C_8 
REMARK       I    between atoms: C_15  and  N_21 
REMARK       I    between atoms: C_22  and  N_24 
REMARK    5  A    between atoms: C_25  and  N_24 
REMARK    6  A    between atoms: C_25  and  C_26 
REMARK    7  A    between atoms: C_25  and  C_31 
REMARK    8  A    between atoms: C_26  and  C_27 
REMARK    9  A    between atoms: C_27  and  C_28 
REMARK   10  A    between atoms: C_28  and  O_30 
REMARK   11  A    between atoms: C_31  and  O_33 
ROOT
HETATM    1  C   UNK N   1      25.995  16.653   5.504  0.00  0.00     0.049 C 
HETATM    2  C   UNK N   1      25.710  17.988   4.908  0.00  0.00    -0.047 A 
HETATM    3  C   UNK N   1      24.403  18.377   4.492  0.00  0.00     0.032 A 
HETATM    4  C   UNK N   1      24.394  19.644   3.896  0.00  0.00     0.073 A 
HETATM    5  S   UNK N   1      25.950  20.217   3.905  0.00  0.00    -0.089 SA
HETATM    6  C   UNK N   1      26.700  18.936   4.620  0.00  0.00    -0.011 A 
ENDROOT
BRANCH   6   7
HETATM    7  C   UNK N   1      28.177  18.800   4.776  0.00  0.00     0.047 C 
BRANCH   7   8
HETATM    8  C   UNK N   1      28.728  17.619   4.008  0.00  0.00     0.011 C 
BRANCH   8   9
HETATM    9  C   UNK N   1      29.797  16.944   4.839  0.00  0.00     0.008 C 
HETATM   10  C   UNK N   1      29.656  17.353   6.307  0.00  0.00     0.054 C 
HETATM   11  C   UNK N   1      30.583  16.564   7.189  0.00  0.00     0.055 A 
HETATM   12  C   UNK N   1      30.980  17.048   8.439  0.00  0.00     0.269 A 
HETATM   13  C   UNK N   1      31.067  15.314   6.772  0.00  0.00     0.128 A 
HETATM   14  O   UNK N   1      30.582  18.126   8.844  0.00  0.00    -0.267 OA
HETATM   15  N   UNK N   1      31.829  16.302   9.215  0.00  0.00    -0.156 N 
HETATM   16  C   UNK N   1      32.290  15.099   8.785  0.00  0.00     0.680 A 
HETATM   17  H   UNK N   1      32.108  16.642  10.095  0.00  0.00     0.187 HD
HETATM   18  N   UNK N   1      31.910  14.612   7.574  0.00  0.00    -0.176 N 
HETATM   19  N   UNK N   1      33.162  14.349   9.598  0.00  0.00    -0.234 N 
ATOM     20  HN  UNK N   1      32.263  13.708   7.262  1.00  0.00     0.186 HD
HETATM   21  H   UNK N   1      33.448  13.449   9.320  0.00  0.00     0.174 HD
HETATM   22  H   UNK N   1      33.487  14.727  10.447  0.00  0.00     0.174 HD
HETATM   23  N   UNK N   1      30.679  14.778   5.516  0.00  0.00    -0.375 N 
HETATM   24  C   UNK N   1      29.680  15.432   4.700  0.00  0.00     0.126 C 
HETATM   25  H   UNK N   1      31.097  13.946   5.196  0.00  0.00     0.161 HD
ENDBRANCH   8   9
ENDBRANCH   7   8
ENDBRANCH   6   7
BRANCH   4  26
HETATM   26  C   UNK N   1      23.304  20.233   3.110  0.00  0.00     0.259 C 
HETATM   27  O   UNK N   1      23.309  21.431   2.864  0.00  0.00    -0.267 OA
HETATM   28  N   UNK N   1      22.226  19.458   2.822  0.00  0.00    -0.342 N 
HETATM   29  H   UNK N   1      22.358  18.483   2.850  0.00  0.00     0.163 HD
BRANCH  28  30
HETATM   30  C   UNK N   1      20.899  19.932   2.476  0.00  0.00     0.183 C 
BRANCH  30  31
HETATM   31  C   UNK N   1      19.844  18.880   2.804  0.00  0.00     0.046 C 
BRANCH  31  32
HETATM   32  C   UNK N   1      20.430  17.479   2.905  0.00  0.00     0.112 C 
BRANCH  32  33
HETATM   33  C   UNK N   1      19.996  16.844   4.183  0.00  0.00     0.139 C 
HETATM   34  O   UNK N   1      20.818  16.577   5.045  0.00  0.00    -0.650 OA
BRANCH  33  35
HETATM   35  O   UNK N   1      18.695  16.570   4.388  0.00  0.00    -0.776 OA
HETATM   36  H   UNK N   1      18.338  15.724   4.204  0.00  0.00     0.167 HD
ENDBRANCH  33  35
ENDBRANCH  32  33
ENDBRANCH  31  32
ENDBRANCH  30  31
BRANCH  30  37
HETATM   37  C   UNK N   1      20.739  20.563   1.126  0.00  0.00     0.163 C 
HETATM   38  O   UNK N   1      20.680  21.776   1.000  0.00  0.00    -0.648 OA
BRANCH  37  39
HETATM   39  O   UNK N   1      20.663  19.770   0.040  0.00  0.00    -0.775 OA
HETATM   40  H   UNK N   1      20.763  20.099  -0.832  0.00  0.00     0.167 HD
ENDBRANCH  37  39
ENDBRANCH  30  37
ENDBRANCH  28  30
ENDBRANCH   4  26
TORSDOF 11
ENDMDL
MODEL 7
REMARK VINA RESULT:      -7.5      8.642     13.422
REMARK  11 active torsions:
REMARK  status: ('A' for Active; 'I' for Inactive)
REMARK    1  A    between atoms: C_4  and  C_22 
REMARK    2  A    between atoms: C_6  and  C_7 
REMARK    3  A    between atoms: C_7  and  C_8 
REMARK    4  A    between atoms: C_9  and  C_8 
REMARK       I    between atoms: C_15  and  N_21 
REMARK       I    between atoms: C_22  and  N_24 
REMARK    5  A    between atoms: C_25  and  N_24 
REMARK    6  A    between atoms: C_25  and  C_26 
REMARK    7  A    between atoms: C_25  and  C_31 
REMARK    8  A    between atoms: C_26  and  C_27 
REMARK    9  A    between atoms: C_27  and  C_28 
REMARK   10  A    between atoms: C_28  and  O_30 
REMARK   11  A    between atoms: C_31  and  O_33 
ROOT
HETATM    1  C   UNK N   1      34.854  11.153  11.165  0.00  0.00     0.049 C 
HETATM    2  C   UNK N   1      35.036  12.597  11.481  0.00  0.00    -0.047 A 
HETATM    3  C   UNK N   1      34.624  13.633  10.592  0.00  0.00     0.032 A 
HETATM    4  C   UNK N   1      34.965  14.905  11.070  0.00  0.00     0.073 A 
HETATM    5  S   UNK N   1      35.736  14.708  12.523  0.00  0.00    -0.089 SA
HETATM    6  C   UNK N   1      35.702  13.063  12.621  0.00  0.00    -0.011 A 
ENDROOT
BRANCH   6   7
HETATM    7  C   UNK N   1      36.393  12.264  13.674  0.00  0.00     0.047 C 
BRANCH   7   8
HETATM    8  C   UNK N   1      36.389  12.959  15.017  0.00  0.00     0.011 C 
BRANCH   8   9
HETATM    9  C   UNK N   1      36.171  11.932  16.106  0.00  0.00     0.008 C 
HETATM   10  C   UNK N   1      35.645  12.613  17.371  0.00  0.00     0.054 C 
HETATM   11  C   UNK N   1      35.245  11.605  18.412  0.00  0.00     0.055 A 
HETATM   12  C   UNK N   1      35.188  11.947  19.767  0.00  0.00     0.269 A 
HETATM   13  C   UNK N   1      34.915  10.293  18.041  0.00  0.00     0.128 A 
HETATM   14  O   UNK N   1      35.461  13.076  20.136  0.00  0.00    -0.267 OA
HETATM   15  N   UNK N   1      34.822  11.001  20.689  0.00  0.00    -0.156 N 
HETATM   16  C   UNK N   1      34.516   9.735  20.304  0.00  0.00     0.680 A 
HETATM   17  H   UNK N   1      34.781  11.242  21.642  0.00  0.00     0.187 HD
HETATM   18  N   UNK N   1      34.563   9.387  18.991  0.00  0.00    -0.176 N 
HETATM   19  N   UNK N   1      34.143   8.778  21.268  0.00  0.00    -0.234 N 
ATOM     20  HN  UNK N   1      34.331   8.434  18.714  1.00  0.00     0.186 HD
HETATM   21  H   UNK N   1      33.858   7.878  20.989  0.00  0.00     0.174 HD
HETATM   22  H   UNK N   1      34.168   9.010  22.224  0.00  0.00     0.174 HD
HETATM   23  N   UNK N   1      34.948   9.906  16.675  0.00  0.00    -0.375 N 
HETATM   24  C   UNK N   1      35.186  10.875  15.628  0.00  0.00     0.126 C 
HETATM   25  H   UNK N   1      34.805   8.961  16.438  0.00  0.00     0.161 HD
ENDBRANCH   8   9
ENDBRANCH   7   8
ENDBRANCH   6   7
BRANCH   4  26
HETATM   26  C   UNK N   1      34.954  16.157  10.305  0.00  0.00     0.259 C 
HETATM   27  O   UNK N   1      35.682  17.081  10.640  0.00  0.00    -0.267 OA
HETATM   28  N   UNK N   1      34.007  16.318   9.345  0.00  0.00    -0.342 N 
HETATM   29  H   UNK N   1      33.602  15.499   8.978  0.00  0.00     0.163 HD
BRANCH  28  30
HETATM   30  C   UNK N   1      33.538  17.582   8.809  0.00  0.00     0.183 C 
BRANCH  30  31
HETATM   31  C   UNK N   1      32.054  17.508   8.463  0.00  0.00     0.046 C 
BRANCH  31  32
HETATM   32  C   UNK N   1      31.539  16.076   8.411  0.00  0.00     0.112 C 
BRANCH  32  33
HETATM   33  C   UNK N   1      31.525  15.599   6.997  0.00  0.00     0.139 C 
HETATM   34  O   UNK N   1      31.435  16.400   6.080  0.00  0.00    -0.650 OA
BRANCH  33  35
HETATM   35  O   UNK N   1      31.615  14.284   6.732  0.00  0.00    -0.776 OA
HETATM   36  H   UNK N   1      31.740  13.967   5.859  0.00  0.00     0.167 HD
ENDBRANCH  33  35
ENDBRANCH  32  33
ENDBRANCH  31  32
ENDBRANCH  30  31
BRANCH  30  37
HETATM   37  C   UNK N   1      34.385  18.221   7.749  0.00  0.00     0.163 C 
HETATM   38  O   UNK N   1      35.288  18.987   8.043  0.00  0.00    -0.648 OA
BRANCH  37  39
HETATM   39  O   UNK N   1      34.138  17.936   6.456  0.00  0.00    -0.775 OA
HETATM   40  H   UNK N   1      34.821  17.753   5.842  0.00  0.00     0.167 HD
ENDBRANCH  37  39
ENDBRANCH  30  37
ENDBRANCH  28  30
ENDBRANCH   4  26
TORSDOF 11
ENDMDL
MODEL 8
REMARK VINA RESULT:      -7.4      3.678     12.245
REMARK  11 active torsions:
REMARK  status: ('A' for Active; 'I' for Inactive)
REMARK    1  A    between atoms: C_4  and  C_22 
REMARK    2  A    between atoms: C_6  and  C_7 
REMARK    3  A    between atoms: C_7  and  C_8 
REMARK    4  A    between atoms: C_9  and  C_8 
REMARK       I    between atoms: C_15  and  N_21 
REMARK       I    between atoms: C_22  and  N_24 
REMARK    5  A    between atoms: C_25  and  N_24 
REMARK    6  A    between atoms: C_25  and  C_26 
REMARK    7  A    between atoms: C_25  and  C_31 
REMARK    8  A    between atoms: C_26  and  C_27 
REMARK    9  A    between atoms: C_27  and  C_28 
REMARK   10  A    between atoms: C_28  and  O_30 
REMARK   11  A    between atoms: C_31  and  O_33 
ROOT
HETATM    1  C   UNK N   1      28.446  18.680   8.500  0.00  0.00     0.049 C 
HETATM    2  C   UNK N   1      29.520  17.864   7.871  0.00  0.00    -0.047 A 
HETATM    3  C   UNK N   1      30.682  17.447   8.585  0.00  0.00     0.032 A 
HETATM    4  C   UNK N   1      31.584  16.755   7.767  0.00  0.00     0.073 A 
HETATM    5  S   UNK N   1      30.934  16.686   6.244  0.00  0.00    -0.089 SA
HETATM    6  C   UNK N   1      29.535  17.513   6.515  0.00  0.00    -0.011 A 
ENDROOT
BRANCH   6   7
HETATM    7  C   UNK N   1      28.568  17.912   5.452  0.00  0.00     0.047 C 
BRANCH   7   8
HETATM    8  C   UNK N   1      27.460  16.898   5.275  0.00  0.00     0.011 C 
BRANCH   8   9
HETATM    9  C   UNK N   1      26.144  17.626   5.108  0.00  0.00     0.008 C 
HETATM   10  C   UNK N   1      26.193  18.516   3.864  0.00  0.00     0.054 C 
HETATM   11  C   UNK N   1      24.846  19.114   3.563  0.00  0.00     0.055 A 
HETATM   12  C   UNK N   1      24.726  20.283   2.805  0.00  0.00     0.269 A 
HETATM   13  C   UNK N   1      23.676  18.502   4.037  0.00  0.00     0.128 A 
HETATM   14  O   UNK N   1      25.715  20.846   2.369  0.00  0.00    -0.267 OA
HETATM   15  N   UNK N   1      23.482  20.801   2.553  0.00  0.00    -0.156 N 
HETATM   16  C   UNK N   1      22.365  20.194   3.031  0.00  0.00     0.680 A 
HETATM   17  H   UNK N   1      23.397  21.623   2.019  0.00  0.00     0.187 HD
HETATM   18  N   UNK N   1      22.465  19.055   3.766  0.00  0.00    -0.176 N 
HETATM   19  N   UNK N   1      21.097  20.744   2.761  0.00  0.00    -0.234 N 
ATOM     20  HN  UNK N   1      21.618  18.609   4.120  1.00  0.00     0.186 HD
HETATM   21  H   UNK N   1      20.281  20.275   3.050  0.00  0.00     0.174 HD
HETATM   22  H   UNK N   1      21.026  21.601   2.282  0.00  0.00     0.174 HD
HETATM   23  N   UNK N   1      23.751  17.307   4.800  0.00  0.00    -0.375 N 
HETATM   24  C   UNK N   1      25.009  16.619   4.992  0.00  0.00     0.126 C 
HETATM   25  H   UNK N   1      22.932  16.940   5.204  0.00  0.00     0.161 HD
ENDBRANCH   8   9
ENDBRANCH   7   8
ENDBRANCH   6   7
BRANCH   4  26
HETATM   26  C   UNK N   1      32.980  16.435   8.082  0.00  0.00     0.259 C 
HETATM   27  O   UNK N   1      33.712  15.982   7.213  0.00  0.00    -0.267 OA
HETATM   28  N   UNK N   1      33.378  16.490   9.380  0.00  0.00    -0.342 N 
HETATM   29  H   UNK N   1      32.838  17.046   9.987  0.00  0.00     0.163 HD
BRANCH  28  30
HETATM   30  C   UNK N   1      34.522  15.808   9.955  0.00  0.00     0.183 C 
BRANCH  30  31
HETATM   31  C   UNK N   1      34.079  14.805  11.017  0.00  0.00     0.046 C 
BRANCH  31  32
HETATM   32  C   UNK N   1      34.749  13.449  10.852  0.00  0.00     0.112 C 
BRANCH  32  33
HETATM   33  C   UNK N   1      35.267  12.982  12.171  0.00  0.00     0.139 C 
HETATM   34  O   UNK N   1      34.808  13.436  13.207  0.00  0.00    -0.650 OA
BRANCH  33  35
HETATM   35  O   UNK N   1      36.240  12.054  12.219  0.00  0.00    -0.776 OA
HETATM   36  H   UNK N   1      36.056  11.143  12.099  0.00  0.00     0.167 HD
ENDBRANCH  33  35
ENDBRANCH  32  33
ENDBRANCH  31  32
ENDBRANCH  30  31
BRANCH  30  37
HETATM   37  C   UNK N   1      35.682  16.664  10.364  0.00  0.00     0.163 C 
HETATM   38  O   UNK N   1      35.684  17.866  10.151  0.00  0.00    -0.648 OA
BRANCH  37  39
HETATM   39  O   UNK N   1      36.734  16.088  10.978  0.00  0.00    -0.775 OA
HETATM   40  H   UNK N   1      37.615  16.377  10.844  0.00  0.00     0.167 HD
ENDBRANCH  37  39
ENDBRANCH  30  37
ENDBRANCH  28  30
ENDBRANCH   4  26
TORSDOF 11
ENDMDL
MODEL 9
REMARK VINA RESULT:      -7.3      2.559     10.622
REMARK  11 active torsions:
REMARK  status: ('A' for Active; 'I' for Inactive)
REMARK    1  A    between atoms: C_4  and  C_22 
REMARK    2  A    between atoms: C_6  and  C_7 
REMARK    3  A    between atoms: C_7  and  C_8 
REMARK    4  A    between atoms: C_9  and  C_8 
REMARK       I    between atoms: C_15  and  N_21 
REMARK       I    between atoms: C_22  and  N_24 
REMARK    5  A    between atoms: C_25  and  N_24 
REMARK    6  A    between atoms: C_25  and  C_26 
REMARK    7  A    between atoms: C_25  and  C_31 
REMARK    8  A    between atoms: C_26  and  C_27 
REMARK    9  A    between atoms: C_27  and  C_28 
REMARK   10  A    between atoms: C_28  and  O_30 
REMARK   11  A    between atoms: C_31  and  O_33 
ROOT
HETATM    1  C   UNK N   1      26.931  15.672   2.545  0.00  0.00     0.049 C 
HETATM    2  C   UNK N   1      27.947  16.413   3.343  0.00  0.00    -0.047 A 
HETATM    3  C   UNK N   1      29.192  15.833   3.725  0.00  0.00     0.032 A 
HETATM    4  C   UNK N   1      29.949  16.692   4.532  0.00  0.00     0.073 A 
HETATM    5  S   UNK N   1      29.080  18.089   4.735  0.00  0.00    -0.089 SA
HETATM    6  C   UNK N   1      27.739  17.697   3.863  0.00  0.00    -0.011 A 
ENDROOT
BRANCH   6   7
HETATM    7  C   UNK N   1      26.503  18.528   3.793  0.00  0.00     0.047 C 
BRANCH   7   8
HETATM    8  C   UNK N   1      25.762  18.567   5.111  0.00  0.00     0.011 C 
BRANCH   8   9
HETATM    9  C   UNK N   1      24.277  18.453   4.849  0.00  0.00     0.008 C 
HETATM   10  C   UNK N   1      23.848  19.488   3.806  0.00  0.00     0.054 C 
HETATM   11  C   UNK N   1      22.419  19.285   3.386  0.00  0.00     0.055 A 
HETATM   12  C   UNK N   1      21.671  20.330   2.833  0.00  0.00     0.269 A 
HETATM   13  C   UNK N   1      21.805  18.032   3.537  0.00  0.00     0.128 A 
HETATM   14  O   UNK N   1      22.164  21.433   2.678  0.00  0.00    -0.267 OA
HETATM   15  N   UNK N   1      20.370  20.109   2.465  0.00  0.00    -0.156 N 
HETATM   16  C   UNK N   1      19.796  18.889   2.630  0.00  0.00     0.680 A 
HETATM   17  H   UNK N   1      19.844  20.844   2.075  0.00  0.00     0.187 HD
HETATM   18  N   UNK N   1      20.510  17.862   3.162  0.00  0.00    -0.176 N 
HETATM   19  N   UNK N   1      18.457  18.685   2.245  0.00  0.00    -0.234 N 
ATOM     20  HN  UNK N   1      20.068  16.951   3.281  1.00  0.00     0.186 HD
HETATM   21  H   UNK N   1      18.056  17.788   2.302  0.00  0.00     0.174 HD
HETATM   22  H   UNK N   1      17.920  19.442   1.917  0.00  0.00     0.174 HD
HETATM   23  N   UNK N   1      22.530  16.941   4.081  0.00  0.00    -0.375 N 
HETATM   24  C   UNK N   1      23.945  17.048   4.365  0.00  0.00     0.126 C 
HETATM   25  H   UNK N   1      22.062  16.095   4.269  0.00  0.00     0.161 HD
ENDBRANCH   8   9
ENDBRANCH   7   8
ENDBRANCH   6   7
BRANCH   4  26
HETATM   26  C   UNK N   1      31.127  16.332   5.327  0.00  0.00     0.259 C 
HETATM   27  O   UNK N   1      31.610  15.213   5.228  0.00  0.00    -0.267 OA
HETATM   28  N   UNK N   1      31.548  17.199   6.284  0.00  0.00    -0.342 N 
HETATM   29  H   UNK N   1      31.276  18.140   6.184  0.00  0.00     0.163 HD
BRANCH  28  30
HETATM   30  C   UNK N   1      32.363  16.870   7.440  0.00  0.00     0.183 C 
BRANCH  30  31
HETATM   31  C   UNK N   1      31.805  17.522   8.701  0.00  0.00     0.046 C 
BRANCH  31  32
HETATM   32  C   UNK N   1      30.505  18.271   8.443  0.00  0.00     0.112 C 
BRANCH  32  33
HETATM   33  C   UNK N   1      29.437  17.746   9.343  0.00  0.00     0.139 C 
HETATM   34  O   UNK N   1      28.261  17.950   9.083  0.00  0.00    -0.650 OA
BRANCH  33  35
HETATM   35  O   UNK N   1      29.769  17.043  10.440  0.00  0.00    -0.776 OA
HETATM   36  H   UNK N   1      30.648  17.025  10.763  0.00  0.00     0.167 HD
ENDBRANCH  33  35
ENDBRANCH  32  33
ENDBRANCH  31  32
ENDBRANCH  30  31
BRANCH  30  37
HETATM   37  C   UNK N   1      33.847  17.010   7.281  0.00  0.00     0.163 C 
HETATM   38  O   UNK N   1      34.614  16.225   7.815  0.00  0.00    -0.648 OA
BRANCH  37  39
HETATM   39  O   UNK N   1      34.331  18.019   6.532  0.00  0.00    -0.775 OA
HETATM   40  H   UNK N   1      34.803  17.875   5.736  0.00  0.00     0.167 HD
ENDBRANCH  37  39
ENDBRANCH  30  37
ENDBRANCH  28  30
ENDBRANCH   4  26
TORSDOF 11
ENDMDL
