MODEL 1
REMARK VINA RESULT:      -2.8      0.000      0.000
REMARK  0 active torsions:
REMARK  status: ('A' for Active; 'I' for Inactive)
ROOT
HETATM    1  C   UNK N   1      22.725  12.475  10.882  0.00  0.00     0.148 C 
HETATM    2  N   UNK N   1      22.687  11.601  12.021  0.00  0.00    -0.373 N 
ATOM      3  HN  UNK N   1      22.223  10.695  11.955  1.00  0.00     0.161 HD
HETATM    4  C   UNK N   1      23.226  11.958  13.097  0.00  0.00     0.348 C 
HETATM    5  O   UNK N   1      23.741  12.302  14.122  0.00  0.00    -0.284 OA
ENDROOT
TORSDOF 0
ENDMDL
MODEL 2
REMARK VINA RESULT:      -2.7     13.659     14.187
REMARK  0 active torsions:
REMARK  status: ('A' for Active; 'I' for Inactive)
ROOT
HETATM    1  C   UNK N   1      20.748  20.007   3.357  0.00  0.00     0.148 C 
HETATM    2  N   UNK N   1      20.801  21.108   2.437  0.00  0.00    -0.373 N 
ATOM      3  HN  UNK N   1      20.733  22.066   2.780  1.00  0.00     0.161 HD
HETATM    4  C   UNK N   1      20.931  20.886   1.207  0.00  0.00     0.348 C 
HETATM    5  O   UNK N   1      21.055  20.669   0.037  0.00  0.00    -0.284 OA
ENDROOT
TORSDOF 0
ENDMDL
MODEL 3
REMARK VINA RESULT:      -2.4      2.922      3.206
REMARK  0 active torsions:
REMARK  status: ('A' for Active; 'I' for Inactive)
ROOT
HETATM    1  C   UNK N   1      23.083  12.028  11.382  0.00  0.00     0.148 C 
HETATM    2  N   UNK N   1      21.683  11.842  11.638  0.00  0.00    -0.373 N 
ATOM      3  HN  UNK N   1      21.377  11.192  12.361  1.00  0.00     0.161 HD
HETATM    4  C   UNK N   1      20.837  12.483  10.966  0.00  0.00     0.348 C 
HETATM    5  O   UNK N   1      20.034  13.096  10.323  0.00  0.00    -0.284 OA
ENDROOT
TORSDOF 0
ENDMDL
MODEL 4
REMARK VINA RESULT:      -2.3     13.155     13.371
REMARK  0 active torsions:
REMARK  status: ('A' for Active; 'I' for Inactive)
ROOT
HETATM    1  C   UNK N   1      20.284  18.462   1.960  0.00  0.00     0.148 C 
HETATM    2  N   UNK N   1      20.376  19.848   1.597  0.00  0.00    -0.373 N 
ATOM      3  HN  UNK N   1      19.763  20.230   0.876  1.00  0.00     0.161 HD
HETATM    4  C   UNK N   1      21.213  20.588   2.171  0.00  0.00     0.348 C 
HETATM    5  O   UNK N   1      22.013  21.288   2.720  0.00  0.00    -0.284 OA
ENDROOT
TORSDOF 0
ENDMDL
MODEL 5
REMARK VINA RESULT:      -2.2     24.453     24.586
REMARK  0 active torsions:
REMARK  status: ('A' for Active; 'I' for Inactive)
ROOT
HETATM    1  C   UNK N   1      42.073  22.720   2.162  0.00  0.00     0.148 C 
HETATM    2  N   UNK N   1      42.948  23.489   3.002  0.00  0.00    -0.373 N 
ATOM      3  HN  UNK N   1      43.028  24.496   2.871  1.00  0.00     0.161 HD
HETATM    4  C   UNK N   1      43.612  22.913   3.900  0.00  0.00     0.348 C 
HETATM    5  O   UNK N   1      44.243  22.361   4.754  0.00  0.00    -0.284 OA
ENDROOT
TORSDOF 0
ENDMDL
MODEL 6
REMARK VINA RESULT:      -2.2     13.141     13.388
REMARK  0 active torsions:
REMARK  status: ('A' for Active; 'I' for Inactive)
ROOT
HETATM    1  C   UNK N   1      36.861  14.200  15.252  0.00  0.00     0.148 C 
HETATM    2  N   UNK N   1      36.784  14.371  13.828  0.00  0.00    -0.373 N 
ATOM      3  HN  UNK N   1      37.589  14.726  13.312  1.00  0.00     0.161 HD
HETATM    4  C   UNK N   1      35.722  14.082  13.223  0.00  0.00     0.348 C 
HETATM    5  O   UNK N   1      34.708  13.806  12.651  0.00  0.00    -0.284 OA
ENDROOT
TORSDOF 0
ENDMDL
MODEL 7
REMARK VINA RESULT:      -2.2     12.439     12.564
REMARK  0 active torsions:
REMARK  status: ('A' for Active; 'I' for Inactive)
ROOT
HETATM    1  C   UNK N   1      31.952  16.555   8.372  0.00  0.00     0.148 C 
HETATM    2  N   UNK N   1      32.835  17.596   8.817  0.00  0.00    -0.373 N 
ATOM      3  HN  UNK N   1      32.706  18.019   9.736  1.00  0.00     0.161 HD
HETATM    4  C   UNK N   1      33.768  17.982   8.070  0.00  0.00     0.348 C 
HETATM    5  O   UNK N   1      34.655  18.347   7.354  0.00  0.00    -0.284 OA
ENDROOT
TORSDOF 0
ENDMDL
MODEL 8
REMARK VINA RESULT:      -2.1     12.809     13.140
REMARK  0 active torsions:
REMARK  status: ('A' for Active; 'I' for Inactive)
ROOT
HETATM    1  C   UNK N   1      19.948  18.439   2.861  0.00  0.00     0.148 C 
HETATM    2  N   UNK N   1      19.202  17.826   1.798  0.00  0.00    -0.373 N 
ATOM      3  HN  UNK N   1      18.185  17.778   1.848  1.00  0.00     0.161 HD
HETATM    4  C   UNK N   1      19.808  17.352   0.806  0.00  0.00     0.348 C 
HETATM    5  O   UNK N   1      20.391  16.901  -0.138  0.00  0.00    -0.284 OA
ENDROOT
TORSDOF 0
ENDMDL
MODEL 9
REMARK VINA RESULT:      -2.1     28.918     29.064
REMARK  0 active torsions:
REMARK  status: ('A' for Active; 'I' for Inactive)
ROOT
HETATM    1  C   UNK N   1      47.235  25.491   0.061  0.00  0.00     0.148 C 
HETATM    2  N   UNK N   1      47.257  25.177   1.462  0.00  0.00    -0.373 N 
ATOM      3  HN  UNK N   1      48.109  24.820   1.893  1.00  0.00     0.161 HD
HETATM    4  C   UNK N   1      46.222  25.345   2.154  0.00  0.00     0.348 C 
HETATM    5  O   UNK N   1      45.233  25.506   2.808  0.00  0.00    -0.284 OA
ENDROOT
TORSDOF 0
ENDMDL
