MODEL 1
REMARK VINA RESULT:      -9.0      0.000      0.000
REMARK  6 active torsions:
REMARK  status: ('A' for Active; 'I' for Inactive)
REMARK    1  A    between atoms: C_4  and  N_17 
REMARK    2  A    between atoms: C_9  and  C_10 
REMARK    3  A    between atoms: C_10  and  C_11 
REMARK    4  A    between atoms: N_20  and  C_24 
REMARK    5  A    between atoms: C_28  and  C_32 
REMARK    6  A    between atoms: C_32  and  O_35 
ROOT
HETATM    1  N   UNK N   1      28.625  17.794   7.040  0.00  0.00    -0.362 N 
HETATM    2  C   UNK N   1      27.837  16.826   6.306  0.00  0.00     0.144 C 
HETATM    3  C   UNK N   1      27.508  17.401   4.927  0.00  0.00     0.145 C 
HETATM    4  N   UNK N   1      26.939  18.722   5.105  0.00  0.00    -0.359 N 
HETATM    5  C   UNK N   1      27.764  19.686   5.832  0.00  0.00     0.100 C 
HETATM    6  C   UNK N   1      28.062  19.117   7.212  0.00  0.00     0.149 C 
HETATM    7  C   UNK N   1      27.248  21.113   5.933  0.00  0.00     0.034 C 
ENDROOT
BRANCH   1   8
HETATM    8  C   UNK N   1      30.007  17.591   7.357  0.00  0.00     0.124 A 
HETATM    9  C   UNK N   1      31.027  17.442   6.379  0.00  0.00    -0.009 A 
HETATM   10  C   UNK N   1      32.364  17.360   6.806  0.00  0.00    -0.028 A 
HETATM   11  C   UNK N   1      30.735  17.390   4.909  0.00  0.00     0.052 C 
HETATM   12  C   UNK N   1      33.476  17.241   5.808  0.00  0.00     0.051 C 
HETATM   13  C   UNK N   1      32.652  17.417   8.177  0.00  0.00     0.036 A 
HETATM   14  N   UNK N   1      31.631  17.513   9.064  0.00  0.00    -0.302 N 
HETATM   15  N   UNK N   1      30.365  17.597   8.670  0.00  0.00    -0.285 N 
ATOM     16  HN  UNK N   1      31.841  17.520  10.062  1.00  0.00     0.186 HD
ATOM     17  HN  UNK N   1      29.634  17.668   9.378  1.00  0.00     0.188 HD
BRANCH  13  18
HETATM   18  C   UNK N   1      34.083  17.431   8.659  0.00  0.00     0.097 C 
BRANCH  18  19
HETATM   19  C   UNK N   1      34.475  16.320   9.592  0.00  0.00    -0.052 A 
HETATM   20  C   UNK N   1      34.028  15.003   9.395  0.00  0.00     0.007 A 
HETATM   21  C   UNK N   1      34.400  13.993  10.288  0.00  0.00     0.001 A 
HETATM   22  C   UNK N   1      35.194  14.299  11.395  0.00  0.00     0.000 A 
HETATM   23  C   UNK N   1      35.620  15.613  11.608  0.00  0.00     0.001 A 
HETATM   24  C   UNK N   1      35.265  16.619  10.705  0.00  0.00     0.007 A 
ENDBRANCH  18  19
ENDBRANCH  13  18
ENDBRANCH   1   8
BRANCH   4  25
HETATM   25  C   UNK N   1      25.572  18.939   4.730  0.00  0.00     0.119 A 
HETATM   26  C   UNK N   1      25.262  19.789   3.659  0.00  0.00     0.136 A 
HETATM   27  N   UNK N   1      23.974  19.930   3.257  0.00  0.00    -0.362 N 
HETATM   28  C   UNK N   1      22.967  19.248   3.868  0.00  0.00     0.058 A 
ATOM     29  HN  UNK N   1      23.756  20.558   2.483  1.00  0.00     0.165 HD
HETATM   30  C   UNK N   1      23.271  18.406   4.944  0.00  0.00     0.117 A 
HETATM   31  N   UNK N   1      24.559  18.272   5.348  0.00  0.00    -0.349 N 
ATOM     32  HN  UNK N   1      24.773  17.659   6.134  1.00  0.00     0.167 HD
BRANCH  28  33
HETATM   33  C   UNK N   1      21.552  19.381   3.376  0.00  0.00     0.094 C 
HETATM   34  C   UNK N   1      21.511  20.296   2.166  0.00  0.00     0.052 C 
HETATM   35  C   UNK N   1      21.000  18.021   2.990  0.00  0.00     0.052 C 
BRANCH  33  36
HETATM   36  O   UNK N   1      20.741  19.926   4.374  0.00  0.00    -0.384 OA
HETATM   37  H   UNK N   1      19.831  20.217   4.210  0.00  0.00     0.211 HD
ENDBRANCH  33  36
ENDBRANCH  28  33
ENDBRANCH   4  25
TORSDOF 6
ENDMDL
MODEL 2
REMARK VINA RESULT:      -8.5      3.013     10.887
REMARK  6 active torsions:
REMARK  status: ('A' for Active; 'I' for Inactive)
REMARK    1  A    between atoms: C_4  and  N_17 
REMARK    2  A    between atoms: C_9  and  C_10 
REMARK    3  A    between atoms: C_10  and  C_11 
REMARK    4  A    between atoms: N_20  and  C_24 
REMARK    5  A    between atoms: C_28  and  C_32 
REMARK    6  A    between atoms: C_32  and  O_35 
ROOT
HETATM    1  N   UNK N   1      26.742  18.485   4.882  0.00  0.00    -0.362 N 
HETATM    2  C   UNK N   1      27.566  17.492   4.224  0.00  0.00     0.144 C 
HETATM    3  C   UNK N   1      28.034  16.472   5.264  0.00  0.00     0.145 C 
HETATM    4  N   UNK N   1      28.621  17.189   6.379  0.00  0.00    -0.359 N 
HETATM    5  C   UNK N   1      27.761  18.172   7.037  0.00  0.00     0.100 C 
HETATM    6  C   UNK N   1      27.324  19.198   6.001  0.00  0.00     0.149 C 
HETATM    7  C   UNK N   1      28.305  18.855   8.282  0.00  0.00     0.034 C 
ENDROOT
BRANCH   1   8
HETATM    8  C   UNK N   1      25.332  18.598   4.657  0.00  0.00     0.124 A 
HETATM    9  C   UNK N   1      24.749  19.541   3.768  0.00  0.00    -0.009 A 
HETATM   10  C   UNK N   1      23.362  19.486   3.542  0.00  0.00    -0.028 A 
HETATM   11  C   UNK N   1      25.556  20.578   3.046  0.00  0.00     0.052 C 
HETATM   12  C   UNK N   1      22.709  20.436   2.583  0.00  0.00     0.051 C 
HETATM   13  C   UNK N   1      22.596  18.515   4.202  0.00  0.00     0.036 A 
HETATM   14  N   UNK N   1      23.205  17.673   5.074  0.00  0.00    -0.302 N 
HETATM   15  N   UNK N   1      24.515  17.714   5.290  0.00  0.00    -0.285 N 
ATOM     16  HN  UNK N   1      22.640  16.990   5.579  1.00  0.00     0.186 HD
ATOM     17  HN  UNK N   1      24.924  17.058   5.956  1.00  0.00     0.188 HD
BRANCH  13  18
HETATM   18  C   UNK N   1      21.123  18.368   3.905  0.00  0.00     0.097 C 
BRANCH  18  19
HETATM   19  C   UNK N   1      20.765  17.414   2.801  0.00  0.00    -0.052 A 
HETATM   20  C   UNK N   1      20.239  17.866   1.580  0.00  0.00     0.007 A 
HETATM   21  C   UNK N   1      19.903  16.952   0.577  0.00  0.00     0.001 A 
HETATM   22  C   UNK N   1      20.062  15.583   0.800  0.00  0.00     0.000 A 
HETATM   23  C   UNK N   1      20.560  15.127   2.023  0.00  0.00     0.001 A 
HETATM   24  C   UNK N   1      20.915  16.042   3.019  0.00  0.00     0.007 A 
ENDBRANCH  18  19
ENDBRANCH  13  18
ENDBRANCH   1   8
BRANCH   4  25
HETATM   25  C   UNK N   1      30.021  17.027   6.639  0.00  0.00     0.119 A 
HETATM   26  C   UNK N   1      30.959  17.272   5.626  0.00  0.00     0.136 A 
HETATM   27  N   UNK N   1      32.286  17.195   5.898  0.00  0.00    -0.362 N 
HETATM   28  C   UNK N   1      32.732  16.895   7.148  0.00  0.00     0.058 A 
ATOM     29  HN  UNK N   1      32.961  17.364   5.152  1.00  0.00     0.165 HD
HETATM   30  C   UNK N   1      31.800  16.641   8.160  0.00  0.00     0.117 A 
HETATM   31  N   UNK N   1      30.473  16.711   7.884  0.00  0.00    -0.349 N 
ATOM     32  HN  UNK N   1      29.799  16.523   8.626  1.00  0.00     0.167 HD
BRANCH  28  33
HETATM   33  C   UNK N   1      34.207  16.862   7.441  0.00  0.00     0.094 C 
HETATM   34  C   UNK N   1      34.630  18.162   8.100  0.00  0.00     0.052 C 
HETATM   35  C   UNK N   1      34.532  15.705   8.368  0.00  0.00     0.052 C 
BRANCH  33  36
HETATM   36  O   UNK N   1      34.933  16.706   6.259  0.00  0.00    -0.384 OA
HETATM   37  H   UNK N   1      35.414  17.435   5.838  0.00  0.00     0.211 HD
ENDBRANCH  33  36
ENDBRANCH  28  33
ENDBRANCH   4  25
TORSDOF 6
ENDMDL
MODEL 3
REMARK VINA RESULT:      -8.5      5.269     11.696
REMARK  6 active torsions:
REMARK  status: ('A' for Active; 'I' for Inactive)
REMARK    1  A    between atoms: C_4  and  N_17 
REMARK    2  A    between atoms: C_9  and  C_10 
REMARK    3  A    between atoms: C_10  and  C_11 
REMARK    4  A    between atoms: N_20  and  C_24 
REMARK    5  A    between atoms: C_28  and  C_32 
REMARK    6  A    between atoms: C_32  and  O_35 
ROOT
HETATM    1  N   UNK N   1      32.450  14.619   7.994  0.00  0.00    -0.362 N 
HETATM    2  C   UNK N   1      32.098  15.187   9.279  0.00  0.00     0.144 C 
HETATM    3  C   UNK N   1      33.308  15.940   9.833  0.00  0.00     0.145 C 
HETATM    4  N   UNK N   1      34.458  15.058   9.790  0.00  0.00    -0.359 N 
HETATM    5  C   UNK N   1      34.802  14.514   8.477  0.00  0.00     0.100 C 
HETATM    6  C   UNK N   1      33.602  13.743   7.946  0.00  0.00     0.149 C 
HETATM    7  C   UNK N   1      36.071  13.681   8.375  0.00  0.00     0.034 C 
ENDROOT
BRANCH   1   8
HETATM    8  C   UNK N   1      31.892  15.084   6.760  0.00  0.00     0.124 A 
HETATM    9  C   UNK N   1      32.361  16.232   6.066  0.00  0.00    -0.009 A 
HETATM   10  C   UNK N   1      31.811  16.530   4.806  0.00  0.00    -0.028 A 
HETATM   11  C   UNK N   1      33.434  17.124   6.613  0.00  0.00     0.052 C 
HETATM   12  C   UNK N   1      32.303  17.708   4.021  0.00  0.00     0.051 C 
HETATM   13  C   UNK N   1      30.814  15.699   4.278  0.00  0.00     0.036 A 
HETATM   14  N   UNK N   1      30.375  14.645   5.010  0.00  0.00    -0.302 N 
HETATM   15  N   UNK N   1      30.892  14.352   6.198  0.00  0.00    -0.285 N 
ATOM     16  HN  UNK N   1      29.625  14.062   4.638  1.00  0.00     0.186 HD
ATOM     17  HN  UNK N   1      30.527  13.548   6.708  1.00  0.00     0.188 HD
BRANCH  13  18
HETATM   18  C   UNK N   1      30.275  15.937   2.888  0.00  0.00     0.097 C 
BRANCH  18  19
HETATM   19  C   UNK N   1      28.778  15.946   2.753  0.00  0.00    -0.052 A 
HETATM   20  C   UNK N   1      27.987  16.908   3.402  0.00  0.00     0.007 A 
HETATM   21  C   UNK N   1      26.596  16.882   3.268  0.00  0.00     0.001 A 
HETATM   22  C   UNK N   1      25.987  15.879   2.510  0.00  0.00     0.000 A 
HETATM   23  C   UNK N   1      26.769  14.904   1.884  0.00  0.00     0.001 A 
HETATM   24  C   UNK N   1      28.162  14.942   2.001  0.00  0.00     0.007 A 
ENDBRANCH  18  19
ENDBRANCH  13  18
ENDBRANCH   1   8
BRANCH   4  25
HETATM   25  C   UNK N   1      35.052  14.641  11.026  0.00  0.00     0.119 A 
HETATM   26  C   UNK N   1      35.970  15.474  11.682  0.00  0.00     0.136 A 
HETATM   27  N   UNK N   1      36.470  15.111  12.890  0.00  0.00    -0.362 N 
HETATM   28  C   UNK N   1      36.089  13.952  13.491  0.00  0.00     0.058 A 
ATOM     29  HN  UNK N   1      37.145  15.718  13.356  1.00  0.00     0.165 HD
HETATM   30  C   UNK N   1      35.180  13.112  12.835  0.00  0.00     0.117 A 
HETATM   31  N   UNK N   1      34.687  13.474  11.624  0.00  0.00    -0.349 N 
ATOM     32  HN  UNK N   1      34.027  12.857  11.151  1.00  0.00     0.167 HD
BRANCH  28  33
HETATM   33  C   UNK N   1      36.618  13.591  14.852  0.00  0.00     0.094 C 
HETATM   34  C   UNK N   1      37.144  14.834  15.545  0.00  0.00     0.052 C 
HETATM   35  C   UNK N   1      35.517  12.977  15.697  0.00  0.00     0.052 C 
BRANCH  33  36
HETATM   36  O   UNK N   1      37.661  12.670  14.738  0.00  0.00    -0.384 OA
HETATM   37  H   UNK N   1      38.141  12.520  13.909  0.00  0.00     0.211 HD
ENDBRANCH  33  36
ENDBRANCH  28  33
ENDBRANCH   4  25
TORSDOF 6
ENDMDL
MODEL 4
REMARK VINA RESULT:      -8.3      2.132      3.053
REMARK  6 active torsions:
REMARK  status: ('A' for Active; 'I' for Inactive)
REMARK    1  A    between atoms: C_4  and  N_17 
REMARK    2  A    between atoms: C_9  and  C_10 
REMARK    3  A    between atoms: C_10  and  C_11 
REMARK    4  A    between atoms: N_20  and  C_24 
REMARK    5  A    between atoms: C_28  and  C_32 
REMARK    6  A    between atoms: C_32  and  O_35 
ROOT
HETATM    1  N   UNK N   1      28.346  17.865   5.578  0.00  0.00    -0.362 N 
HETATM    2  C   UNK N   1      27.567  17.101   4.625  0.00  0.00     0.144 C 
HETATM    3  C   UNK N   1      27.093  18.037   3.512  0.00  0.00     0.145 C 
HETATM    4  N   UNK N   1      26.454  19.187   4.120  0.00  0.00    -0.359 N 
HETATM    5  C   UNK N   1      27.269  19.952   5.063  0.00  0.00     0.100 C 
HETATM    6  C   UNK N   1      27.713  19.019   6.181  0.00  0.00     0.149 C 
HETATM    7  C   UNK N   1      26.671  21.231   5.628  0.00  0.00     0.034 C 
ENDROOT
BRANCH   1   8
HETATM    8  C   UNK N   1      29.759  17.696   5.739  0.00  0.00     0.124 A 
HETATM    9  C   UNK N   1      30.375  17.345   6.971  0.00  0.00    -0.009 A 
HETATM   10  C   UNK N   1      31.759  17.097   6.986  0.00  0.00    -0.028 A 
HETATM   11  C   UNK N   1      29.605  17.208   8.250  0.00  0.00     0.052 C 
HETATM   12  C   UNK N   1      32.445  16.686   8.254  0.00  0.00     0.051 C 
HETATM   13  C   UNK N   1      32.490  17.211   5.795  0.00  0.00     0.036 A 
HETATM   14  N   UNK N   1      31.853  17.595   4.662  0.00  0.00    -0.302 N 
HETATM   15  N   UNK N   1      30.545  17.827   4.637  0.00  0.00    -0.285 N 
ATOM     16  HN  UNK N   1      32.393  17.711   3.804  1.00  0.00     0.186 HD
ATOM     17  HN  UNK N   1      30.113  18.113   3.758  1.00  0.00     0.188 HD
BRANCH  13  18
HETATM   18  C   UNK N   1      33.957  16.856   5.760  0.00  0.00     0.097 C 
BRANCH  18  19
HETATM   19  C   UNK N   1      34.287  15.454   5.330  0.00  0.00    -0.052 A 
HETATM   20  C   UNK N   1      34.063  15.018   4.013  0.00  0.00     0.007 A 
HETATM   21  C   UNK N   1      34.367  13.704   3.647  0.00  0.00     0.001 A 
HETATM   22  C   UNK N   1      34.868  12.812   4.598  0.00  0.00     0.000 A 
HETATM   23  C   UNK N   1      35.067  13.236   5.916  0.00  0.00     0.001 A 
HETATM   24  C   UNK N   1      34.782  14.555   6.278  0.00  0.00     0.007 A 
ENDBRANCH  18  19
ENDBRANCH  13  18
ENDBRANCH   1   8
BRANCH   4  25
HETATM   25  C   UNK N   1      25.051  19.388   3.907  0.00  0.00     0.119 A 
HETATM   26  C   UNK N   1      24.609  20.367   3.006  0.00  0.00     0.136 A 
HETATM   27  N   UNK N   1      23.283  20.501   2.748  0.00  0.00    -0.362 N 
HETATM   28  C   UNK N   1      22.366  19.690   3.339  0.00  0.00     0.058 A 
ATOM     29  HN  UNK N   1      22.969  21.222   2.098  1.00  0.00     0.165 HD
HETATM   30  C   UNK N   1      22.801  18.717   4.247  0.00  0.00     0.117 A 
HETATM   31  N   UNK N   1      24.127  18.590   4.509  0.00  0.00    -0.349 N 
ATOM     32  HN  UNK N   1      24.437  17.881   5.173  1.00  0.00     0.167 HD
BRANCH  28  33
HETATM   33  C   UNK N   1      20.905  19.822   3.003  0.00  0.00     0.094 C 
HETATM   34  C   UNK N   1      20.749  20.413   1.614  0.00  0.00     0.052 C 
HETATM   35  C   UNK N   1      20.232  18.462   3.045  0.00  0.00     0.052 C 
BRANCH  33  36
HETATM   36  O   UNK N   1      20.271  20.664   3.919  0.00  0.00    -0.384 OA
HETATM   37  H   UNK N   1      19.555  20.364   4.500  0.00  0.00     0.211 HD
ENDBRANCH  33  36
ENDBRANCH  28  33
ENDBRANCH   4  25
TORSDOF 6
ENDMDL
MODEL 5
REMARK VINA RESULT:      -8.2      5.925      9.645
REMARK  6 active torsions:
REMARK  status: ('A' for Active; 'I' for Inactive)
REMARK    1  A    between atoms: C_4  and  N_17 
REMARK    2  A    between atoms: C_9  and  C_10 
REMARK    3  A    between atoms: C_10  and  C_11 
REMARK    4  A    between atoms: N_20  and  C_24 
REMARK    5  A    between atoms: C_28  and  C_32 
REMARK    6  A    between atoms: C_32  and  O_35 
ROOT
HETATM    1  N   UNK N   1      35.187  13.070  10.647  0.00  0.00    -0.362 N 
HETATM    2  C   UNK N   1      34.784  14.462  10.640  0.00  0.00     0.144 C 
HETATM    3  C   UNK N   1      33.351  14.558  10.114  0.00  0.00     0.145 C 
HETATM    4  N   UNK N   1      33.274  13.839   8.858  0.00  0.00    -0.359 N 
HETATM    5  C   UNK N   1      33.667  12.431   8.897  0.00  0.00     0.100 C 
HETATM    6  C   UNK N   1      35.103  12.347   9.395  0.00  0.00     0.149 C 
HETATM    7  C   UNK N   1      33.485  11.617   7.625  0.00  0.00     0.034 C 
ENDROOT
BRANCH   1   8
HETATM    8  C   UNK N   1      35.398  12.329  11.853  0.00  0.00     0.124 A 
HETATM    9  C   UNK N   1      36.682  12.051  12.395  0.00  0.00    -0.009 A 
HETATM   10  C   UNK N   1      36.764  11.411  13.644  0.00  0.00    -0.028 A 
HETATM   11  C   UNK N   1      37.953  12.434  11.697  0.00  0.00     0.052 C 
HETATM   12  C   UNK N   1      38.097  11.134  14.271  0.00  0.00     0.051 C 
HETATM   13  C   UNK N   1      35.584  11.056  14.312  0.00  0.00     0.036 A 
HETATM   14  N   UNK N   1      34.389  11.305  13.722  0.00  0.00    -0.302 N 
HETATM   15  N   UNK N   1      34.301  11.915  12.545  0.00  0.00    -0.285 N 
ATOM     16  HN  UNK N   1      33.532  11.015  14.195  1.00  0.00     0.186 HD
ATOM     17  HN  UNK N   1      33.378  12.080  12.145  1.00  0.00     0.188 HD
BRANCH  13  18
HETATM   18  C   UNK N   1      35.638  10.457  15.697  0.00  0.00     0.097 C 
BRANCH  18  19
HETATM   19  C   UNK N   1      35.458  11.417  16.839  0.00  0.00    -0.052 A 
HETATM   20  C   UNK N   1      35.308  12.797  16.623  0.00  0.00     0.007 A 
HETATM   21  C   UNK N   1      35.155  13.667  17.707  0.00  0.00     0.001 A 
HETATM   22  C   UNK N   1      35.182  13.167  19.011  0.00  0.00     0.000 A 
HETATM   23  C   UNK N   1      35.357  11.798  19.231  0.00  0.00     0.001 A 
HETATM   24  C   UNK N   1      35.490  10.925  18.147  0.00  0.00     0.007 A 
ENDBRANCH  18  19
ENDBRANCH  13  18
ENDBRANCH   1   8
BRANCH   4  25
HETATM   25  C   UNK N   1      33.003  14.575   7.658  0.00  0.00     0.119 A 
HETATM   26  C   UNK N   1      34.034  15.272   7.012  0.00  0.00     0.136 A 
HETATM   27  N   UNK N   1      33.791  15.902   5.835  0.00  0.00    -0.362 N 
HETATM   28  C   UNK N   1      32.561  15.863   5.256  0.00  0.00     0.058 A 
ATOM     29  HN  UNK N   1      34.544  16.415   5.376  1.00  0.00     0.165 HD
HETATM   30  C   UNK N   1      31.526  15.177   5.903  0.00  0.00     0.117 A 
HETATM   31  N   UNK N   1      31.770  14.554   7.083  0.00  0.00    -0.349 N 
ATOM     32  HN  UNK N   1      31.010  14.057   7.550  1.00  0.00     0.167 HD
BRANCH  28  33
HETATM   33  C   UNK N   1      32.323  16.528   3.927  0.00  0.00     0.094 C 
HETATM   34  C   UNK N   1      33.336  16.026   2.914  0.00  0.00     0.052 C 
HETATM   35  C   UNK N   1      30.924  16.219   3.428  0.00  0.00     0.052 C 
BRANCH  33  36
HETATM   36  O   UNK N   1      32.462  17.912   4.046  0.00  0.00    -0.384 OA
HETATM   37  H   UNK N   1      32.042  18.423   4.755  0.00  0.00     0.211 HD
ENDBRANCH  33  36
ENDBRANCH  28  33
ENDBRANCH   4  25
TORSDOF 6
ENDMDL
MODEL 6
REMARK VINA RESULT:      -8.1      3.546     10.776
REMARK  6 active torsions:
REMARK  status: ('A' for Active; 'I' for Inactive)
REMARK    1  A    between atoms: C_4  and  N_17 
REMARK    2  A    between atoms: C_9  and  C_10 
REMARK    3  A    between atoms: C_10  and  C_11 
REMARK    4  A    between atoms: N_20  and  C_24 
REMARK    5  A    between atoms: C_28  and  C_32 
REMARK    6  A    between atoms: C_32  and  O_35 
ROOT
HETATM    1  N   UNK N   1      29.588  16.776   5.906  0.00  0.00    -0.362 N 
HETATM    2  C   UNK N   1      29.577  16.766   7.355  0.00  0.00     0.144 C 
HETATM    3  C   UNK N   1      30.681  17.694   7.864  0.00  0.00     0.145 C 
HETATM    4  N   UNK N   1      31.922  17.334   7.208  0.00  0.00    -0.359 N 
HETATM    5  C   UNK N   1      31.912  17.371   5.746  0.00  0.00     0.100 C 
HETATM    6  C   UNK N   1      30.830  16.424   5.248  0.00  0.00     0.149 C 
HETATM    7  C   UNK N   1      33.229  17.115   5.030  0.00  0.00     0.034 C 
ENDROOT
BRANCH   1   8
HETATM    8  C   UNK N   1      28.542  17.363   5.125  0.00  0.00     0.124 A 
HETATM    9  C   UNK N   1      27.742  16.634   4.203  0.00  0.00    -0.009 A 
HETATM   10  C   UNK N   1      26.670  17.292   3.574  0.00  0.00    -0.028 A 
HETATM   11  C   UNK N   1      27.984  15.188   3.891  0.00  0.00     0.052 C 
HETATM   12  C   UNK N   1      25.777  16.552   2.624  0.00  0.00     0.051 C 
HETATM   13  C   UNK N   1      26.426  18.641   3.864  0.00  0.00     0.036 A 
HETATM   14  N   UNK N   1      27.253  19.294   4.718  0.00  0.00    -0.302 N 
HETATM   15  N   UNK N   1      28.265  18.681   5.321  0.00  0.00    -0.285 N 
ATOM     16  HN  UNK N   1      27.094  20.285   4.901  1.00  0.00     0.186 HD
ATOM     17  HN  UNK N   1      28.857  19.217   5.955  1.00  0.00     0.188 HD
BRANCH  13  18
HETATM   18  C   UNK N   1      25.225  19.345   3.281  0.00  0.00     0.097 C 
BRANCH  18  19
HETATM   19  C   UNK N   1      23.904  19.047   3.932  0.00  0.00    -0.052 A 
HETATM   20  C   UNK N   1      23.813  18.224   5.067  0.00  0.00     0.007 A 
HETATM   21  C   UNK N   1      22.568  17.954   5.643  0.00  0.00     0.001 A 
HETATM   22  C   UNK N   1      21.407  18.480   5.071  0.00  0.00     0.000 A 
HETATM   23  C   UNK N   1      21.491  19.278   3.926  0.00  0.00     0.001 A 
HETATM   24  C   UNK N   1      22.737  19.564   3.362  0.00  0.00     0.007 A 
ENDBRANCH  18  19
ENDBRANCH  13  18
ENDBRANCH   1   8
BRANCH   4  25
HETATM   25  C   UNK N   1      32.991  16.802   8.001  0.00  0.00     0.119 A 
HETATM   26  C   UNK N   1      33.876  17.668   8.660  0.00  0.00     0.136 A 
HETATM   27  N   UNK N   1      34.838  17.163   9.473  0.00  0.00    -0.362 N 
HETATM   28  C   UNK N   1      34.956  15.823   9.676  0.00  0.00     0.058 A 
ATOM     29  HN  UNK N   1      35.483  17.799   9.941  1.00  0.00     0.165 HD
HETATM   30  C   UNK N   1      34.081  14.954   9.012  0.00  0.00     0.117 A 
HETATM   31  N   UNK N   1      33.125  15.462   8.194  0.00  0.00    -0.349 N 
ATOM     32  HN  UNK N   1      32.492  14.823   7.712  1.00  0.00     0.167 HD
BRANCH  28  33
HETATM   33  C   UNK N   1      35.998  15.285  10.619  0.00  0.00     0.094 C 
HETATM   34  C   UNK N   1      35.342  14.857  11.919  0.00  0.00     0.052 C 
HETATM   35  C   UNK N   1      36.701  14.091   9.999  0.00  0.00     0.052 C 
BRANCH  33  36
HETATM   36  O   UNK N   1      36.948  16.267  10.902  0.00  0.00    -0.384 OA
HETATM   37  H   UNK N   1      37.336  16.383  11.783  0.00  0.00     0.211 HD
ENDBRANCH  33  36
ENDBRANCH  28  33
ENDBRANCH   4  25
TORSDOF 6
ENDMDL
MODEL 7
REMARK VINA RESULT:      -7.9      1.854      2.744
REMARK  6 active torsions:
REMARK  status: ('A' for Active; 'I' for Inactive)
REMARK    1  A    between atoms: C_4  and  N_17 
REMARK    2  A    between atoms: C_9  and  C_10 
REMARK    3  A    between atoms: C_10  and  C_11 
REMARK    4  A    between atoms: N_20  and  C_24 
REMARK    5  A    between atoms: C_28  and  C_32 
REMARK    6  A    between atoms: C_32  and  O_35 
ROOT
HETATM    1  N   UNK N   1      28.500  18.333   4.309  0.00  0.00    -0.362 N 
HETATM    2  C   UNK N   1      27.901  19.551   4.816  0.00  0.00     0.144 C 
HETATM    3  C   UNK N   1      26.627  19.192   5.583  0.00  0.00     0.145 C 
HETATM    4  N   UNK N   1      25.804  18.349   4.739  0.00  0.00    -0.359 N 
HETATM    5  C   UNK N   1      26.426  17.117   4.258  0.00  0.00     0.100 C 
HETATM    6  C   UNK N   1      27.677  17.485   3.472  0.00  0.00     0.149 C 
HETATM    7  C   UNK N   1      25.553  16.154   3.469  0.00  0.00     0.034 C 
ENDROOT
BRANCH   1   8
HETATM    8  C   UNK N   1      29.737  17.811   4.805  0.00  0.00     0.124 A 
HETATM    9  C   UNK N   1      29.838  16.971   5.947  0.00  0.00    -0.009 A 
HETATM   10  C   UNK N   1      31.093  16.427   6.276  0.00  0.00    -0.028 A 
HETATM   11  C   UNK N   1      28.656  16.623   6.801  0.00  0.00     0.052 C 
HETATM   12  C   UNK N   1      31.238  15.504   7.448  0.00  0.00     0.051 C 
HETATM   13  C   UNK N   1      32.204  16.735   5.480  0.00  0.00     0.036 A 
HETATM   14  N   UNK N   1      32.053  17.581   4.431  0.00  0.00    -0.302 N 
HETATM   15  N   UNK N   1      30.871  18.095   4.109  0.00  0.00    -0.285 N 
ATOM     16  HN  UNK N   1      32.871  17.831   3.874  1.00  0.00     0.186 HD
ATOM     17  HN  UNK N   1      30.811  18.726   3.310  1.00  0.00     0.188 HD
BRANCH  13  18
HETATM   18  C   UNK N   1      33.542  16.090   5.750  0.00  0.00     0.097 C 
BRANCH  18  19
HETATM   19  C   UNK N   1      34.134  16.340   7.108  0.00  0.00    -0.052 A 
HETATM   20  C   UNK N   1      34.596  15.287   7.915  0.00  0.00     0.007 A 
HETATM   21  C   UNK N   1      35.129  15.550   9.180  0.00  0.00     0.001 A 
HETATM   22  C   UNK N   1      35.177  16.863   9.657  0.00  0.00     0.000 A 
HETATM   23  C   UNK N   1      34.695  17.911   8.868  0.00  0.00     0.001 A 
HETATM   24  C   UNK N   1      34.180  17.649   7.594  0.00  0.00     0.007 A 
ENDBRANCH  18  19
ENDBRANCH  13  18
ENDBRANCH   1   8
BRANCH   4  25
HETATM   25  C   UNK N   1      24.537  18.850   4.293  0.00  0.00     0.119 A 
HETATM   26  C   UNK N   1      24.483  19.884   3.347  0.00  0.00     0.136 A 
HETATM   27  N   UNK N   1      23.284  20.302   2.868  0.00  0.00    -0.362 N 
HETATM   28  C   UNK N   1      22.122  19.726   3.279  0.00  0.00     0.058 A 
ATOM     29  HN  UNK N   1      23.253  21.062   2.188  1.00  0.00     0.165 HD
HETATM   30  C   UNK N   1      22.171  18.700   4.230  0.00  0.00     0.117 A 
HETATM   31  N   UNK N   1      23.371  18.289   4.713  0.00  0.00    -0.349 N 
ATOM     32  HN  UNK N   1      23.399  17.542   5.407  1.00  0.00     0.167 HD
BRANCH  28  33
HETATM   33  C   UNK N   1      20.807  20.170   2.701  0.00  0.00     0.094 C 
HETATM   34  C   UNK N   1      20.978  20.500   1.229  0.00  0.00     0.052 C 
HETATM   35  C   UNK N   1      19.771  19.071   2.848  0.00  0.00     0.052 C 
BRANCH  33  36
HETATM   36  O   UNK N   1      20.347  21.310   3.362  0.00  0.00    -0.384 OA
HETATM   37  H   UNK N   1      19.899  22.038   2.904  0.00  0.00     0.211 HD
ENDBRANCH  33  36
ENDBRANCH  28  33
ENDBRANCH   4  25
TORSDOF 6
ENDMDL
MODEL 8
REMARK VINA RESULT:      -7.9      3.331     10.752
REMARK  6 active torsions:
REMARK  status: ('A' for Active; 'I' for Inactive)
REMARK    1  A    between atoms: C_4  and  N_17 
REMARK    2  A    between atoms: C_9  and  C_10 
REMARK    3  A    between atoms: C_10  and  C_11 
REMARK    4  A    between atoms: N_20  and  C_24 
REMARK    5  A    between atoms: C_28  and  C_32 
REMARK    6  A    between atoms: C_32  and  O_35 
ROOT
HETATM    1  N   UNK N   1      27.940  16.946   6.658  0.00  0.00    -0.362 N 
HETATM    2  C   UNK N   1      28.279  17.293   8.024  0.00  0.00     0.144 C 
HETATM    3  C   UNK N   1      29.545  18.151   8.015  0.00  0.00     0.145 C 
HETATM    4  N   UNK N   1      30.557  17.468   7.233  0.00  0.00    -0.359 N 
HETATM    5  C   UNK N   1      30.196  17.147   5.853  0.00  0.00     0.100 C 
HETATM    6  C   UNK N   1      28.952  16.270   5.873  0.00  0.00     0.149 C 
HETATM    7  C   UNK N   1      31.275  16.539   4.970  0.00  0.00     0.034 C 
ENDROOT
BRANCH   1   8
HETATM    8  C   UNK N   1      26.787  17.466   5.988  0.00  0.00     0.124 A 
HETATM    9  C   UNK N   1      26.810  18.620   5.159  0.00  0.00    -0.009 A 
HETATM   10  C   UNK N   1      25.640  18.973   4.462  0.00  0.00    -0.028 A 
HETATM   11  C   UNK N   1      28.037  19.462   4.980  0.00  0.00     0.052 C 
HETATM   12  C   UNK N   1      25.630  20.159   3.546  0.00  0.00     0.051 C 
HETATM   13  C   UNK N   1      24.488  18.189   4.612  0.00  0.00     0.036 A 
HETATM   14  N   UNK N   1      24.515  17.127   5.455  0.00  0.00    -0.302 N 
HETATM   15  N   UNK N   1      25.617  16.782   6.113  0.00  0.00    -0.285 N 
ATOM     16  HN  UNK N   1      23.666  16.578   5.588  1.00  0.00     0.186 HD
ATOM     17  HN  UNK N   1      25.585  15.974   6.734  1.00  0.00     0.188 HD
BRANCH  13  18
HETATM   18  C   UNK N   1      23.249  18.486   3.803  0.00  0.00     0.097 C 
BRANCH  18  19
HETATM   19  C   UNK N   1      22.180  17.429   3.820  0.00  0.00    -0.052 A 
HETATM   20  C   UNK N   1      22.351  16.201   3.161  0.00  0.00     0.007 A 
HETATM   21  C   UNK N   1      21.334  15.242   3.184  0.00  0.00     0.001 A 
HETATM   22  C   UNK N   1      20.131  15.518   3.839  0.00  0.00     0.000 A 
HETATM   23  C   UNK N   1      19.947  16.750   4.473  0.00  0.00     0.001 A 
HETATM   24  C   UNK N   1      20.972  17.700   4.468  0.00  0.00     0.007 A 
ENDBRANCH  18  19
ENDBRANCH  13  18
ENDBRANCH   1   8
BRANCH   4  25
HETATM   25  C   UNK N   1      31.740  17.001   7.895  0.00  0.00     0.119 A 
HETATM   26  C   UNK N   1      32.820  17.871   8.102  0.00  0.00     0.136 A 
HETATM   27  N   UNK N   1      33.905  17.448   8.798  0.00  0.00    -0.362 N 
HETATM   28  C   UNK N   1      33.964  16.192   9.316  0.00  0.00     0.058 A 
ATOM     29  HN  UNK N   1      34.691  18.084   8.936  1.00  0.00     0.165 HD
HETATM   30  C   UNK N   1      32.892  15.317   9.104  0.00  0.00     0.117 A 
HETATM   31  N   UNK N   1      31.811  15.740   8.401  0.00  0.00    -0.349 N 
ATOM     32  HN  UNK N   1      31.034  15.097   8.248  1.00  0.00     0.167 HD
BRANCH  28  33
HETATM   33  C   UNK N   1      35.155  15.758  10.127  0.00  0.00     0.094 C 
HETATM   34  C   UNK N   1      34.690  15.045  11.383  0.00  0.00     0.052 C 
HETATM   35  C   UNK N   1      36.028  14.818   9.315  0.00  0.00     0.052 C 
BRANCH  33  36
HETATM   36  O   UNK N   1      35.917  16.866  10.500  0.00  0.00    -0.384 OA
HETATM   37  H   UNK N   1      36.150  17.057  11.422  0.00  0.00     0.211 HD
ENDBRANCH  33  36
ENDBRANCH  28  33
ENDBRANCH   4  25
TORSDOF 6
ENDMDL
MODEL 9
REMARK VINA RESULT:      -7.7      6.916     13.469
REMARK  6 active torsions:
REMARK  status: ('A' for Active; 'I' for Inactive)
REMARK    1  A    between atoms: C_4  and  N_17 
REMARK    2  A    between atoms: C_9  and  C_10 
REMARK    3  A    between atoms: C_10  and  C_11 
REMARK    4  A    between atoms: N_20  and  C_24 
REMARK    5  A    between atoms: C_28  and  C_32 
REMARK    6  A    between atoms: C_32  and  O_35 
ROOT
HETATM    1  N   UNK N   1      35.851  13.782  11.297  0.00  0.00    -0.362 N 
HETATM    2  C   UNK N   1      35.298  12.443  11.331  0.00  0.00     0.144 C 
HETATM    3  C   UNK N   1      34.545  12.254  12.649  0.00  0.00     0.145 C 
HETATM    4  N   UNK N   1      35.420  12.639  13.738  0.00  0.00    -0.359 N 
HETATM    5  C   UNK N   1      35.949  14.001  13.689  0.00  0.00     0.100 C 
HETATM    6  C   UNK N   1      36.720  14.171  12.388  0.00  0.00     0.149 C 
HETATM    7  C   UNK N   1      36.773  14.475  14.876  0.00  0.00     0.034 C 
ENDROOT
BRANCH   1   8
HETATM    8  C   UNK N   1      35.375  14.796  10.405  0.00  0.00     0.124 A 
HETATM    9  C   UNK N   1      35.468  14.709   8.990  0.00  0.00    -0.009 A 
HETATM   10  C   UNK N   1      34.866  15.713   8.211  0.00  0.00    -0.028 A 
HETATM   11  C   UNK N   1      36.162  13.577   8.294  0.00  0.00     0.052 C 
HETATM   12  C   UNK N   1      34.905  15.641   6.715  0.00  0.00     0.051 C 
HETATM   13  C   UNK N   1      34.205  16.772   8.848  0.00  0.00     0.036 A 
HETATM   14  N   UNK N   1      34.191  16.825  10.203  0.00  0.00    -0.302 N 
HETATM   15  N   UNK N   1      34.751  15.877  10.947  0.00  0.00    -0.285 N 
ATOM     16  HN  UNK N   1      33.738  17.614  10.664  1.00  0.00     0.186 HD
ATOM     17  HN  UNK N   1      34.713  15.963  11.963  1.00  0.00     0.188 HD
BRANCH  13  18
HETATM   18  C   UNK N   1      33.466  17.811   8.039  0.00  0.00     0.097 C 
BRANCH  18  19
HETATM   19  C   UNK N   1      31.984  17.607   7.898  0.00  0.00    -0.052 A 
HETATM   20  C   UNK N   1      31.443  16.854   6.843  0.00  0.00     0.007 A 
HETATM   21  C   UNK N   1      30.059  16.693   6.731  0.00  0.00     0.001 A 
HETATM   22  C   UNK N   1      29.208  17.307   7.654  0.00  0.00     0.000 A 
HETATM   23  C   UNK N   1      29.742  18.078   8.690  0.00  0.00     0.001 A 
HETATM   24  C   UNK N   1      31.127  18.223   8.814  0.00  0.00     0.007 A 
ENDBRANCH  18  19
ENDBRANCH  13  18
ENDBRANCH   1   8
BRANCH   4  25
HETATM   25  C   UNK N   1      35.847  11.632  14.666  0.00  0.00     0.119 A 
HETATM   26  C   UNK N   1      35.041  11.300  15.763  0.00  0.00     0.136 A 
HETATM   27  N   UNK N   1      35.410  10.293  16.595  0.00  0.00    -0.362 N 
HETATM   28  C   UNK N   1      36.551   9.583  16.377  0.00  0.00     0.058 A 
ATOM     29  HN  UNK N   1      34.823  10.063  17.396  1.00  0.00     0.165 HD
HETATM   30  C   UNK N   1      37.364   9.918  15.288  0.00  0.00     0.117 A 
HETATM   31  N   UNK N   1      36.995  10.931  14.463  0.00  0.00    -0.349 N 
ATOM     32  HN  UNK N   1      37.594  11.171  13.673  1.00  0.00     0.167 HD
BRANCH  28  33
HETATM   33  C   UNK N   1      36.919   8.439  17.282  0.00  0.00     0.094 C 
HETATM   34  C   UNK N   1      35.802   7.411  17.291  0.00  0.00     0.052 C 
HETATM   35  C   UNK N   1      38.198   7.780  16.802  0.00  0.00     0.052 C 
BRANCH  33  36
HETATM   36  O   UNK N   1      37.112   8.896  18.587  0.00  0.00    -0.384 OA
HETATM   37  H   UNK N   1      36.455   9.430  19.059  0.00  0.00     0.211 HD
ENDBRANCH  33  36
ENDBRANCH  28  33
ENDBRANCH   4  25
TORSDOF 6
ENDMDL
