MODEL 1
REMARK VINA RESULT:      -8.9      0.000      0.000
REMARK  10 active torsions:
REMARK  status: ('A' for Active; 'I' for Inactive)
REMARK    1  A    between atoms: C_6  and  O_10 
REMARK    2  A    between atoms: C_7  and  O_8 
REMARK    3  A    between atoms: C_19  and  O_20 
REMARK    4  A    between atoms: O_20  and  C_21 
REMARK    5  A    between atoms: C_28  and  C_36 
REMARK    6  A    between atoms: C_30  and  O_35 
REMARK    7  A    between atoms: C_36  and  N_37 
REMARK       I    between atoms: N_37  and  C_38 
REMARK    8  A    between atoms: C_38  and  C_40 
REMARK    9  A    between atoms: C_41  and  C_42 
REMARK   10  A    between atoms: C_46  and  C_48 
ROOT
HETATM    1  C   UNK N   1      26.552  20.516   3.478  0.00  0.00     0.051 C 
HETATM    2  C   UNK N   1      25.568  19.397   3.543  0.00  0.00    -0.025 A 
HETATM    3  C   UNK N   1      24.220  19.746   3.631  0.00  0.00     0.017 A 
HETATM    4  C   UNK N   1      23.231  18.769   3.722  0.00  0.00    -0.044 A 
HETATM    5  C   UNK N   1      23.590  17.412   3.733  0.00  0.00     0.019 A 
HETATM    6  C   UNK N   1      24.939  17.042   3.633  0.00  0.00     0.108 A 
HETATM    7  C   UNK N   1      25.945  18.021   3.536  0.00  0.00     0.107 A 
HETATM    8  C   UNK N   1      22.506  16.376   3.890  0.00  0.00     0.293 C 
HETATM    9  C   UNK N   1      21.903  16.119   2.496  0.00  0.00     0.269 C 
HETATM   10  C   UNK N   1      22.434  14.867   1.811  0.00  0.00     0.081 C 
HETATM   11  C   UNK N   1      21.459  13.722   1.723  0.00  0.00    -0.010 A 
HETATM   12  C   UNK N   1      20.130  13.837   2.208  0.00  0.00     0.022 A 
HETATM   13  C   UNK N   1      19.289  12.730   2.047  0.00  0.00     0.114 A 
HETATM   14  C   UNK N   1      19.696  11.594   1.470  0.00  0.00     0.114 A 
HETATM   15  C   UNK N   1      20.994  11.422   0.997  0.00  0.00     0.009 A 
HETATM   16  C   UNK N   1      21.900  12.508   1.137  0.00  0.00     0.095 A 
HETATM   17  C   UNK N   1      21.370  10.138   0.335  0.00  0.00     0.054 C 
HETATM   18  O   UNK N   1      18.685  10.728   1.433  0.00  0.00    -0.322 OA
HETATM   19  C   UNK N   1      17.565  11.328   2.015  0.00  0.00     0.352 A 
HETATM   20  O   UNK N   1      18.005  12.600   2.386  0.00  0.00    -0.322 OA
HETATM   21  C   UNK N   1      19.650  15.121   2.840  0.00  0.00     0.281 C 
HETATM   22  N   UNK N   1      20.445  16.286   2.385  0.00  0.00     0.137 N 
HETATM   23  C   UNK N   1      19.982  17.558   2.973  0.00  0.00     0.392 C 
HETATM   24  C   UNK N   1      20.806  18.045   4.195  0.00  0.00     0.286 C 
HETATM   25  C   UNK N   1      21.797  19.197   3.887  0.00  0.00     0.079 C 
HETATM   26  N   UNK N   1      21.470  16.886   4.807  0.00  0.00     0.104 N 
HETATM   27  C   UNK N   1      21.993  17.187   6.137  0.00  0.00     0.311 C 
ENDROOT
BRANCH  21  28
HETATM   28  C   UNK N   1      19.471  15.048   4.377  0.00  0.00     0.164 C 
BRANCH  28  29
HETATM   29  N   UNK N   1      19.291  13.724   4.947  0.00  0.00    -0.355 N 
HETATM   30  C   UNK N   1      20.297  12.892   5.327  0.00  0.00     0.241 C 
HETATM   31  O   UNK N   1      20.020  11.803   5.800  0.00  0.00    -0.269 OA
HETATM   32  H   UNK N   1      18.367  13.405   5.067  0.00  0.00     0.162 HD
BRANCH  30  33
HETATM   33  C   UNK N   1      21.696  13.362   5.370  0.00  0.00     0.075 C 
HETATM   34  C   UNK N   1      22.406  13.578   6.481  0.00  0.00     0.017 C 
BRANCH  34  35
HETATM   35  C   UNK N   1      21.838  13.752   7.819  0.00  0.00    -0.035 A 
HETATM   36  C   UNK N   1      20.668  14.486   8.032  0.00  0.00     0.011 A 
HETATM   37  C   UNK N   1      20.056  14.481   9.290  0.00  0.00     0.002 A 
HETATM   38  C   UNK N   1      20.583  13.692  10.318  0.00  0.00     0.016 A 
HETATM   39  C   UNK N   1      21.743  12.935  10.097  0.00  0.00     0.048 A 
HETATM   40  C   UNK N   1      22.363  12.977   8.847  0.00  0.00     0.027 A 
BRANCH  39  41
HETATM   41  C   UNK N   1      22.276  12.029  11.163  0.00  0.00     0.417 C 
HETATM   42  F   UNK N   1      23.322  12.662  11.812  0.00  0.00    -0.166 F 
HETATM   43  F   UNK N   1      21.295  11.730  12.095  0.00  0.00    -0.166 F 
HETATM   44  F   UNK N   1      22.731  10.853  10.599  0.00  0.00    -0.166 F 
ENDBRANCH  39  41
ENDBRANCH  34  35
ENDBRANCH  30  33
ENDBRANCH  28  29
ENDBRANCH  21  28
BRANCH  23  45
HETATM   45  O   UNK N   1      19.837  18.543   1.995  0.00  0.00    -0.366 OA
HETATM   46  H   UNK N   1      19.621  18.975   1.154  0.00  0.00     0.212 HD
ENDBRANCH  23  45
BRANCH  16  47
HETATM   47  O   UNK N   1      23.192  12.433   0.719  0.00  0.00    -0.278 OA
BRANCH  47  48
HETATM   48  C   UNK N   1      24.202  11.850   1.414  0.00  0.00     0.260 C 
HETATM   49  O   UNK N   1      25.192  11.414   0.844  0.00  0.00    -0.265 OA
HETATM   50  C   UNK N   1      24.046  11.629   2.877  0.00  0.00     0.126 C 
ENDBRANCH  47  48
ENDBRANCH  16  47
BRANCH   6  51
HETATM   51  O   UNK N   1      25.276  15.739   3.635  0.00  0.00    -0.357 OA
HETATM   52  H   UNK N   1      25.896  15.314   3.075  0.00  0.00     0.217 HD
ENDBRANCH   6  51
BRANCH   7  53
HETATM   53  O   UNK N   1      27.234  17.588   3.450  0.00  0.00    -0.353 OA
HETATM   54  C   UNK N   1      28.117  17.428   4.491  0.00  0.00     0.210 C 
ENDBRANCH   7  53
TORSDOF 10
ENDMDL
MODEL 2
REMARK VINA RESULT:      -8.8      5.089      9.690
REMARK  10 active torsions:
REMARK  status: ('A' for Active; 'I' for Inactive)
REMARK    1  A    between atoms: C_6  and  O_10 
REMARK    2  A    between atoms: C_7  and  O_8 
REMARK    3  A    between atoms: C_19  and  O_20 
REMARK    4  A    between atoms: O_20  and  C_21 
REMARK    5  A    between atoms: C_28  and  C_36 
REMARK    6  A    between atoms: C_30  and  O_35 
REMARK    7  A    between atoms: C_36  and  N_37 
REMARK       I    between atoms: N_37  and  C_38 
REMARK    8  A    between atoms: C_38  and  C_40 
REMARK    9  A    between atoms: C_41  and  C_42 
REMARK   10  A    between atoms: C_46  and  C_48 
ROOT
HETATM    1  C   UNK N   1      27.705  10.059   0.177  0.00  0.00     0.051 C 
HETATM    2  C   UNK N   1      27.921  11.260   1.033  0.00  0.00    -0.025 A 
HETATM    3  C   UNK N   1      26.857  11.659   1.844  0.00  0.00     0.017 A 
HETATM    4  C   UNK N   1      26.958  12.784   2.658  0.00  0.00    -0.044 A 
HETATM    5  C   UNK N   1      28.143  13.537   2.662  0.00  0.00     0.019 A 
HETATM    6  C   UNK N   1      29.227  13.145   1.865  0.00  0.00     0.108 A 
HETATM    7  C   UNK N   1      29.136  12.008   1.041  0.00  0.00     0.107 A 
HETATM    8  C   UNK N   1      28.207  14.785   3.509  0.00  0.00     0.293 C 
HETATM    9  C   UNK N   1      28.574  14.354   4.942  0.00  0.00     0.269 C 
HETATM   10  C   UNK N   1      30.045  14.536   5.288  0.00  0.00     0.081 C 
HETATM   11  C   UNK N   1      30.344  15.657   6.249  0.00  0.00    -0.010 A 
HETATM   12  C   UNK N   1      29.310  16.447   6.816  0.00  0.00     0.022 A 
HETATM   13  C   UNK N   1      29.685  17.441   7.727  0.00  0.00     0.114 A 
HETATM   14  C   UNK N   1      30.960  17.665   8.062  0.00  0.00     0.114 A 
HETATM   15  C   UNK N   1      32.014  16.935   7.519  0.00  0.00     0.009 A 
HETATM   16  C   UNK N   1      31.699  15.914   6.582  0.00  0.00     0.095 A 
HETATM   17  C   UNK N   1      33.411  17.218   7.963  0.00  0.00     0.054 C 
HETATM   18  O   UNK N   1      31.018  18.648   8.958  0.00  0.00    -0.322 OA
HETATM   19  C   UNK N   1      29.718  19.086   9.220  0.00  0.00     0.352 A 
HETATM   20  O   UNK N   1      28.911  18.284   8.411  0.00  0.00    -0.322 OA
HETATM   21  C   UNK N   1      27.864  16.190   6.466  0.00  0.00     0.281 C 
HETATM   22  N   UNK N   1      27.653  14.798   6.001  0.00  0.00     0.137 N 
HETATM   23  C   UNK N   1      26.243  14.514   5.672  0.00  0.00     0.392 C 
HETATM   24  C   UNK N   1      25.903  14.591   4.159  0.00  0.00     0.286 C 
HETATM   25  C   UNK N   1      25.759  13.215   3.460  0.00  0.00     0.079 C 
HETATM   26  N   UNK N   1      26.893  15.452   3.498  0.00  0.00     0.104 N 
HETATM   27  C   UNK N   1      26.473  15.847   2.156  0.00  0.00     0.311 C 
ENDROOT
BRANCH  21  28
HETATM   28  C   UNK N   1      27.231  17.259   5.541  0.00  0.00     0.164 C 
BRANCH  28  29
HETATM   29  N   UNK N   1      26.807  18.496   6.175  0.00  0.00    -0.355 N 
HETATM   30  C   UNK N   1      26.800  19.718   5.580  0.00  0.00     0.241 C 
HETATM   31  O   UNK N   1      26.415  20.685   6.214  0.00  0.00    -0.269 OA
HETATM   32  H   UNK N   1      26.501  18.444   7.110  0.00  0.00     0.162 HD
BRANCH  30  33
HETATM   33  C   UNK N   1      27.049  19.858   4.131  0.00  0.00     0.075 C 
HETATM   34  C   UNK N   1      26.113  20.073   3.202  0.00  0.00     0.017 C 
BRANCH  34  35
HETATM   35  C   UNK N   1      24.680  19.837   3.386  0.00  0.00    -0.035 A 
HETATM   36  C   UNK N   1      23.716  20.699   2.853  0.00  0.00     0.011 A 
HETATM   37  C   UNK N   1      22.363  20.348   2.891  0.00  0.00     0.002 A 
HETATM   38  C   UNK N   1      21.979  19.105   3.408  0.00  0.00     0.016 A 
HETATM   39  C   UNK N   1      22.948  18.229   3.917  0.00  0.00     0.048 A 
HETATM   40  C   UNK N   1      24.292  18.607   3.906  0.00  0.00     0.027 A 
BRANCH  39  41
HETATM   41  C   UNK N   1      22.562  16.866   4.405  0.00  0.00     0.417 C 
HETATM   42  F   UNK N   1      21.187  16.811   4.549  0.00  0.00    -0.166 F 
HETATM   43  F   UNK N   1      22.950  15.889   3.501  0.00  0.00    -0.166 F 
HETATM   44  F   UNK N   1      23.162  16.613   5.623  0.00  0.00    -0.166 F 
ENDBRANCH  39  41
ENDBRANCH  34  35
ENDBRANCH  30  33
ENDBRANCH  28  29
ENDBRANCH  21  28
BRANCH  23  45
HETATM   45  O   UNK N   1      25.817  13.321   6.258  0.00  0.00    -0.366 OA
HETATM   46  H   UNK N   1      25.827  12.414   6.602  0.00  0.00     0.212 HD
ENDBRANCH  23  45
BRANCH  16  47
HETATM   47  O   UNK N   1      32.657  15.156   5.986  0.00  0.00    -0.278 OA
BRANCH  47  48
HETATM   48  C   UNK N   1      33.534  15.602   5.050  0.00  0.00     0.260 C 
HETATM   49  O   UNK N   1      34.736  15.409   5.167  0.00  0.00    -0.265 OA
HETATM   50  C   UNK N   1      33.035  16.445   3.930  0.00  0.00     0.126 C 
ENDBRANCH  47  48
ENDBRANCH  16  47
BRANCH   6  51
HETATM   51  O   UNK N   1      30.364  13.867   1.880  0.00  0.00    -0.357 OA
HETATM   52  H   UNK N   1      30.506  14.691   2.304  0.00  0.00     0.217 HD
ENDBRANCH   6  51
BRANCH   7  53
HETATM   53  O   UNK N   1      30.227  11.691   0.287  0.00  0.00    -0.353 OA
HETATM   54  C   UNK N   1      31.220  10.800   0.617  0.00  0.00     0.210 C 
ENDBRANCH   7  53
TORSDOF 10
ENDMDL
MODEL 3
REMARK VINA RESULT:      -8.6     14.724     18.196
REMARK  10 active torsions:
REMARK  status: ('A' for Active; 'I' for Inactive)
REMARK    1  A    between atoms: C_6  and  O_10 
REMARK    2  A    between atoms: C_7  and  O_8 
REMARK    3  A    between atoms: C_19  and  O_20 
REMARK    4  A    between atoms: O_20  and  C_21 
REMARK    5  A    between atoms: C_28  and  C_36 
REMARK    6  A    between atoms: C_30  and  O_35 
REMARK    7  A    between atoms: C_36  and  N_37 
REMARK       I    between atoms: N_37  and  C_38 
REMARK    8  A    between atoms: C_38  and  C_40 
REMARK    9  A    between atoms: C_41  and  C_42 
REMARK   10  A    between atoms: C_46  and  C_48 
ROOT
HETATM    1  C   UNK N   1      36.681  21.024  -4.411  0.00  0.00     0.051 C 
HETATM    2  C   UNK N   1      35.391  21.743  -4.618  0.00  0.00    -0.025 A 
HETATM    3  C   UNK N   1      34.290  21.287  -3.892  0.00  0.00     0.017 A 
HETATM    4  C   UNK N   1      33.039  21.880  -4.040  0.00  0.00    -0.044 A 
HETATM    5  C   UNK N   1      32.875  22.949  -4.934  0.00  0.00     0.019 A 
HETATM    6  C   UNK N   1      33.973  23.430  -5.662  0.00  0.00     0.108 A 
HETATM    7  C   UNK N   1      35.242  22.839  -5.517  0.00  0.00     0.107 A 
HETATM    8  C   UNK N   1      31.498  23.537  -5.118  0.00  0.00     0.293 C 
HETATM    9  C   UNK N   1      31.275  24.559  -3.987  0.00  0.00     0.269 C 
HETATM   10  C   UNK N   1      31.502  26.006  -4.403  0.00  0.00     0.081 C 
HETATM   11  C   UNK N   1      30.255  26.843  -4.518  0.00  0.00    -0.010 A 
HETATM   12  C   UNK N   1      28.973  26.316  -4.212  0.00  0.00     0.022 A 
HETATM   13  C   UNK N   1      27.880  27.183  -4.314  0.00  0.00     0.114 A 
HETATM   14  C   UNK N   1      28.007  28.461  -4.690  0.00  0.00     0.114 A 
HETATM   15  C   UNK N   1      29.237  29.022  -5.022  0.00  0.00     0.009 A 
HETATM   16  C   UNK N   1      30.387  28.189  -4.945  0.00  0.00     0.095 A 
HETATM   17  C   UNK N   1      29.310  30.463  -5.402  0.00  0.00     0.054 C 
HETATM   18  O   UNK N   1      26.812  29.049  -4.677  0.00  0.00    -0.322 OA
HETATM   19  C   UNK N   1      25.860  28.110  -4.273  0.00  0.00     0.352 A 
HETATM   20  O   UNK N   1      26.594  26.942  -4.054  0.00  0.00    -0.322 OA
HETATM   21  C   UNK N   1      28.817  24.883  -3.763  0.00  0.00     0.281 C 
HETATM   22  N   UNK N   1      30.069  24.356  -3.168  0.00  0.00     0.137 N 
HETATM   23  C   UNK N   1      29.936  22.963  -2.702  0.00  0.00     0.392 C 
HETATM   24  C   UNK N   1      30.488  21.896  -3.685  0.00  0.00     0.286 C 
HETATM   25  C   UNK N   1      31.866  21.306  -3.289  0.00  0.00     0.079 C 
HETATM   26  N   UNK N   1      30.492  22.462  -5.041  0.00  0.00     0.104 N 
HETATM   27  C   UNK N   1      30.679  21.440  -6.067  0.00  0.00     0.311 C 
ENDROOT
BRANCH  21  28
HETATM   28  C   UNK N   1      28.188  23.947  -4.825  0.00  0.00     0.164 C 
BRANCH  28  29
HETATM   29  N   UNK N   1      26.743  23.995  -4.958  0.00  0.00    -0.355 N 
HETATM   30  C   UNK N   1      26.026  23.387  -5.939  0.00  0.00     0.241 C 
HETATM   31  O   UNK N   1      24.812  23.495  -5.943  0.00  0.00    -0.269 OA
HETATM   32  H   UNK N   1      26.243  24.510  -4.283  0.00  0.00     0.162 HD
BRANCH  30  33
HETATM   33  C   UNK N   1      26.668  22.437  -6.871  0.00  0.00     0.075 C 
HETATM   34  C   UNK N   1      27.246  22.762  -8.031  0.00  0.00     0.017 C 
BRANCH  34  35
HETATM   35  C   UNK N   1      27.025  24.014  -8.756  0.00  0.00    -0.035 A 
HETATM   36  C   UNK N   1      25.873  24.230  -9.518  0.00  0.00     0.011 A 
HETATM   37  C   UNK N   1      25.609  25.498 -10.048  0.00  0.00     0.002 A 
HETATM   38  C   UNK N   1      26.469  26.565  -9.762  0.00  0.00     0.016 A 
HETATM   39  C   UNK N   1      27.611  26.354  -8.975  0.00  0.00     0.048 A 
HETATM   40  C   UNK N   1      27.881  25.076  -8.483  0.00  0.00     0.027 A 
BRANCH  39  41
HETATM   41  C   UNK N   1      28.499  27.499  -8.600  0.00  0.00     0.417 C 
HETATM   42  F   UNK N   1      28.934  28.130  -9.752  0.00  0.00    -0.166 F 
HETATM   43  F   UNK N   1      27.816  28.422  -7.823  0.00  0.00    -0.166 F 
HETATM   44  F   UNK N   1      29.591  27.037  -7.890  0.00  0.00    -0.166 F 
ENDBRANCH  39  41
ENDBRANCH  34  35
ENDBRANCH  30  33
ENDBRANCH  28  29
ENDBRANCH  21  28
BRANCH  23  45
HETATM   45  O   UNK N   1      30.439  22.813  -1.409  0.00  0.00    -0.366 OA
HETATM   46  H   UNK N   1      30.506  22.557  -0.475  0.00  0.00     0.212 HD
ENDBRANCH  23  45
BRANCH  16  47
HETATM   47  O   UNK N   1      31.630  28.640  -5.262  0.00  0.00    -0.278 OA
BRANCH  47  48
HETATM   48  C   UNK N   1      32.238  28.468  -6.464  0.00  0.00     0.260 C 
HETATM   49  O   UNK N   1      33.117  27.632  -6.614  0.00  0.00    -0.265 OA
HETATM   50  C   UNK N   1      31.914  29.395  -7.581  0.00  0.00     0.126 C 
ENDBRANCH  47  48
ENDBRANCH  16  47
BRANCH   6  51
HETATM   51  O   UNK N   1      33.811  24.462  -6.512  0.00  0.00    -0.357 OA
HETATM   52  H   UNK N   1      34.453  25.098  -6.758  0.00  0.00     0.217 HD
ENDBRANCH   6  51
BRANCH   7  53
HETATM   53  O   UNK N   1      36.261  23.354  -6.262  0.00  0.00    -0.353 OA
HETATM   54  C   UNK N   1      37.273  24.170  -5.815  0.00  0.00     0.210 C 
ENDBRANCH   7  53
TORSDOF 10
ENDMDL
MODEL 4
REMARK VINA RESULT:      -8.4      3.718      8.309
REMARK  10 active torsions:
REMARK  status: ('A' for Active; 'I' for Inactive)
REMARK    1  A    between atoms: C_6  and  O_10 
REMARK    2  A    between atoms: C_7  and  O_8 
REMARK    3  A    between atoms: C_19  and  O_20 
REMARK    4  A    between atoms: O_20  and  C_21 
REMARK    5  A    between atoms: C_28  and  C_36 
REMARK    6  A    between atoms: C_30  and  O_35 
REMARK    7  A    between atoms: C_36  and  N_37 
REMARK       I    between atoms: N_37  and  C_38 
REMARK    8  A    between atoms: C_38  and  C_40 
REMARK    9  A    between atoms: C_41  and  C_42 
REMARK   10  A    between atoms: C_46  and  C_48 
ROOT
HETATM    1  C   UNK N   1      23.222   8.525   5.676  0.00  0.00     0.051 C 
HETATM    2  C   UNK N   1      23.344  10.010   5.638  0.00  0.00    -0.025 A 
HETATM    3  C   UNK N   1      24.603  10.534   5.344  0.00  0.00     0.017 A 
HETATM    4  C   UNK N   1      24.818  11.910   5.311  0.00  0.00    -0.044 A 
HETATM    5  C   UNK N   1      23.757  12.788   5.583  0.00  0.00     0.019 A 
HETATM    6  C   UNK N   1      22.482  12.281   5.868  0.00  0.00     0.108 A 
HETATM    7  C   UNK N   1      22.254  10.892   5.900  0.00  0.00     0.107 A 
HETATM    8  C   UNK N   1      24.029  14.272   5.598  0.00  0.00     0.293 C 
HETATM    9  C   UNK N   1      23.958  14.771   4.142  0.00  0.00     0.269 C 
HETATM   10  C   UNK N   1      22.636  15.430   3.776  0.00  0.00     0.081 C 
HETATM   11  C   UNK N   1      22.693  16.925   3.595  0.00  0.00    -0.010 A 
HETATM   12  C   UNK N   1      23.911  17.643   3.718  0.00  0.00     0.022 A 
HETATM   13  C   UNK N   1      23.868  19.024   3.496  0.00  0.00     0.114 A 
HETATM   14  C   UNK N   1      22.738  19.669   3.187  0.00  0.00     0.114 A 
HETATM   15  C   UNK N   1      21.513  19.016   3.076  0.00  0.00     0.009 A 
HETATM   16  C   UNK N   1      21.489  17.612   3.297  0.00  0.00     0.095 A 
HETATM   17  C   UNK N   1      20.297  19.794   2.697  0.00  0.00     0.054 C 
HETATM   18  O   UNK N   1      22.998  20.964   3.012  0.00  0.00    -0.322 OA
HETATM   19  C   UNK N   1      24.364  21.173   3.216  0.00  0.00     0.352 A 
HETATM   20  O   UNK N   1      24.869  19.906   3.520  0.00  0.00    -0.322 OA
HETATM   21  C   UNK N   1      25.199  16.926   4.042  0.00  0.00     0.281 C 
HETATM   22  N   UNK N   1      25.142  15.496   3.653  0.00  0.00     0.137 N 
HETATM   23  C   UNK N   1      26.397  14.777   3.941  0.00  0.00     0.392 C 
HETATM   24  C   UNK N   1      26.385  13.952   5.257  0.00  0.00     0.286 C 
HETATM   25  C   UNK N   1      26.211  12.425   5.059  0.00  0.00     0.079 C 
HETATM   26  N   UNK N   1      25.371  14.519   6.157  0.00  0.00     0.104 N 
HETATM   27  C   UNK N   1      25.510  14.028   7.525  0.00  0.00     0.311 C 
ENDROOT
BRANCH  21  28
HETATM   28  C   UNK N   1      25.716  17.161   5.483  0.00  0.00     0.164 C 
BRANCH  28  29
HETATM   29  N   UNK N   1      26.412  18.412   5.726  0.00  0.00    -0.355 N 
HETATM   30  C   UNK N   1      27.695  18.677   5.363  0.00  0.00     0.241 C 
HETATM   31  O   UNK N   1      28.171  19.771   5.616  0.00  0.00    -0.269 OA
HETATM   32  H   UNK N   1      25.915  19.125   6.190  0.00  0.00     0.162 HD
BRANCH  30  33
HETATM   33  C   UNK N   1      28.445  17.749   4.492  0.00  0.00     0.075 C 
HETATM   34  C   UNK N   1      29.413  16.922   4.896  0.00  0.00     0.017 C 
BRANCH  34  35
HETATM   35  C   UNK N   1      30.153  17.047   6.153  0.00  0.00    -0.035 A 
HETATM   36  C   UNK N   1      31.541  17.211   6.178  0.00  0.00     0.011 A 
HETATM   37  C   UNK N   1      32.192  17.508   7.380  0.00  0.00     0.002 A 
HETATM   38  C   UNK N   1      31.444  17.700   8.547  0.00  0.00     0.016 A 
HETATM   39  C   UNK N   1      30.049  17.562   8.517  0.00  0.00     0.048 A 
HETATM   40  C   UNK N   1      29.416  17.231   7.318  0.00  0.00     0.027 A 
BRANCH  39  41
HETATM   41  C   UNK N   1      29.229  17.838   9.740  0.00  0.00     0.417 C 
HETATM   42  F   UNK N   1      29.715  18.975  10.362  0.00  0.00    -0.166 F 
HETATM   43  F   UNK N   1      27.900  18.052   9.406  0.00  0.00    -0.166 F 
HETATM   44  F   UNK N   1      29.306  16.769  10.611  0.00  0.00    -0.166 F 
ENDBRANCH  39  41
ENDBRANCH  34  35
ENDBRANCH  30  33
ENDBRANCH  28  29
ENDBRANCH  21  28
BRANCH  23  45
HETATM   45  O   UNK N   1      26.812  14.025   2.841  0.00  0.00    -0.366 OA
HETATM   46  H   UNK N   1      27.225  13.788   1.995  0.00  0.00     0.212 HD
ENDBRANCH  23  45
BRANCH  16  47
HETATM   47  O   UNK N   1      20.341  16.887   3.225  0.00  0.00    -0.278 OA
BRANCH  47  48
HETATM   48  C   UNK N   1      19.969  16.119   2.169  0.00  0.00     0.260 C 
HETATM   49  O   UNK N   1      19.577  14.972   2.329  0.00  0.00    -0.265 OA
HETATM   50  C   UNK N   1      20.158  16.641   0.789  0.00  0.00     0.126 C 
ENDBRANCH  47  48
ENDBRANCH  16  47
BRANCH   6  51
HETATM   51  O   UNK N   1      21.466  13.128   6.120  0.00  0.00    -0.357 OA
HETATM   52  H   UNK N   1      21.478  13.872   6.690  0.00  0.00     0.217 HD
ENDBRANCH   6  51
BRANCH   7  53
HETATM   53  O   UNK N   1      20.990  10.472   6.192  0.00  0.00    -0.353 OA
HETATM   54  C   UNK N   1      19.995  10.179   5.289  0.00  0.00     0.210 C 
ENDBRANCH   7  53
TORSDOF 10
ENDMDL
MODEL 5
REMARK VINA RESULT:      -8.4      2.044      2.508
REMARK  10 active torsions:
REMARK  status: ('A' for Active; 'I' for Inactive)
REMARK    1  A    between atoms: C_6  and  O_10 
REMARK    2  A    between atoms: C_7  and  O_8 
REMARK    3  A    between atoms: C_19  and  O_20 
REMARK    4  A    between atoms: O_20  and  C_21 
REMARK    5  A    between atoms: C_28  and  C_36 
REMARK    6  A    between atoms: C_30  and  O_35 
REMARK    7  A    between atoms: C_36  and  N_37 
REMARK       I    between atoms: N_37  and  C_38 
REMARK    8  A    between atoms: C_38  and  C_40 
REMARK    9  A    between atoms: C_41  and  C_42 
REMARK   10  A    between atoms: C_46  and  C_48 
ROOT
HETATM    1  C   UNK N   1      26.327  21.191   2.931  0.00  0.00     0.051 C 
HETATM    2  C   UNK N   1      25.405  20.058   3.234  0.00  0.00    -0.025 A 
HETATM    3  C   UNK N   1      24.036  20.316   3.143  0.00  0.00     0.017 A 
HETATM    4  C   UNK N   1      23.100  19.327   3.432  0.00  0.00    -0.044 A 
HETATM    5  C   UNK N   1      23.532  18.052   3.827  0.00  0.00     0.019 A 
HETATM    6  C   UNK N   1      24.903  17.770   3.911  0.00  0.00     0.108 A 
HETATM    7  C   UNK N   1      25.857  18.762   3.618  0.00  0.00     0.107 A 
HETATM    8  C   UNK N   1      22.498  17.015   4.190  0.00  0.00     0.293 C 
HETATM    9  C   UNK N   1      22.023  16.356   2.881  0.00  0.00     0.269 C 
HETATM   10  C   UNK N   1      22.675  15.012   2.590  0.00  0.00     0.081 C 
HETATM   11  C   UNK N   1      21.775  13.814   2.752  0.00  0.00    -0.010 A 
HETATM   12  C   UNK N   1      20.408  13.953   3.108  0.00  0.00     0.022 A 
HETATM   13  C   UNK N   1      19.645  12.783   3.198  0.00  0.00     0.114 A 
HETATM   14  C   UNK N   1      20.158  11.569   2.972  0.00  0.00     0.114 A 
HETATM   15  C   UNK N   1      21.497  11.375   2.641  0.00  0.00     0.009 A 
HETATM   16  C   UNK N   1      22.327  12.525   2.540  0.00  0.00     0.095 A 
HETATM   17  C   UNK N   1      21.995   9.995   2.371  0.00  0.00     0.054 C 
HETATM   18  O   UNK N   1      19.204  10.650   3.106  0.00  0.00    -0.322 OA
HETATM   19  C   UNK N   1      18.010  11.296   3.437  0.00  0.00     0.352 A 
HETATM   20  O   UNK N   1      18.348  12.651   3.481  0.00  0.00    -0.322 OA
HETATM   21  C   UNK N   1      19.808  15.318   3.342  0.00  0.00     0.281 C 
HETATM   22  N   UNK N   1      20.570  16.379   2.642  0.00  0.00     0.137 N 
HETATM   23  C   UNK N   1      19.992  17.722   2.839  0.00  0.00     0.392 C 
HETATM   24  C   UNK N   1      20.689  18.573   3.934  0.00  0.00     0.286 C 
HETATM   25  C   UNK N   1      21.635  19.674   3.389  0.00  0.00     0.079 C 
HETATM   26  N   UNK N   1      21.367  17.669   4.872  0.00  0.00     0.104 N 
HETATM   27  C   UNK N   1      21.767  18.347   6.102  0.00  0.00     0.311 C 
ENDROOT
BRANCH  21  28
HETATM   28  C   UNK N   1      19.514  15.639   4.829  0.00  0.00     0.164 C 
BRANCH  28  29
HETATM   29  N   UNK N   1      19.468  14.508   5.740  0.00  0.00    -0.355 N 
HETATM   30  C   UNK N   1      20.440  14.181   6.631  0.00  0.00     0.241 C 
HETATM   31  O   UNK N   1      20.286  13.208   7.350  0.00  0.00    -0.269 OA
HETATM   32  H   UNK N   1      18.669  13.933   5.708  0.00  0.00     0.162 HD
BRANCH  30  33
HETATM   33  C   UNK N   1      21.574  15.092   6.887  0.00  0.00     0.075 C 
HETATM   34  C   UNK N   1      22.833  14.714   7.125  0.00  0.00     0.017 C 
BRANCH  34  35
HETATM   35  C   UNK N   1      23.240  13.371   7.544  0.00  0.00    -0.035 A 
HETATM   36  C   UNK N   1      23.187  12.969   8.882  0.00  0.00     0.011 A 
HETATM   37  C   UNK N   1      23.409  11.631   9.222  0.00  0.00     0.002 A 
HETATM   38  C   UNK N   1      23.623  10.683   8.215  0.00  0.00     0.016 A 
HETATM   39  C   UNK N   1      23.649  11.081   6.870  0.00  0.00     0.048 A 
HETATM   40  C   UNK N   1      23.462  12.426   6.548  0.00  0.00     0.027 A 
BRANCH  39  41
HETATM   41  C   UNK N   1      23.803  10.068   5.778  0.00  0.00     0.417 C 
HETATM   42  F   UNK N   1      22.563   9.528   5.486  0.00  0.00    -0.166 F 
HETATM   43  F   UNK N   1      24.310  10.654   4.629  0.00  0.00    -0.166 F 
HETATM   44  F   UNK N   1      24.659   9.062   6.183  0.00  0.00    -0.166 F 
ENDBRANCH  39  41
ENDBRANCH  34  35
ENDBRANCH  30  33
ENDBRANCH  28  29
ENDBRANCH  21  28
BRANCH  23  45
HETATM   45  O   UNK N   1      19.870  18.402   1.626  0.00  0.00    -0.366 OA
HETATM   46  H   UNK N   1      19.949  18.617   0.683  0.00  0.00     0.212 HD
ENDBRANCH  23  45
BRANCH  16  47
HETATM   47  O   UNK N   1      23.650  12.439   2.237  0.00  0.00    -0.278 OA
BRANCH  47  48
HETATM   48  C   UNK N   1      24.152  12.212   0.996  0.00  0.00     0.260 C 
HETATM   49  O   UNK N   1      23.671  12.752   0.011  0.00  0.00    -0.265 OA
HETATM   50  C   UNK N   1      25.224  11.195   0.822  0.00  0.00     0.126 C 
ENDBRANCH  47  48
ENDBRANCH  16  47
BRANCH   6  51
HETATM   51  O   UNK N   1      25.312  16.542   4.283  0.00  0.00    -0.357 OA
HETATM   52  H   UNK N   1      24.772  15.811   4.513  0.00  0.00     0.217 HD
ENDBRANCH   6  51
BRANCH   7  53
HETATM   53  O   UNK N   1      27.172  18.418   3.729  0.00  0.00    -0.353 OA
HETATM   54  C   UNK N   1      27.986  18.632   4.816  0.00  0.00     0.210 C 
ENDBRANCH   7  53
TORSDOF 10
ENDMDL
MODEL 6
REMARK VINA RESULT:      -8.3      3.778      8.128
REMARK  10 active torsions:
REMARK  status: ('A' for Active; 'I' for Inactive)
REMARK    1  A    between atoms: C_6  and  O_10 
REMARK    2  A    between atoms: C_7  and  O_8 
REMARK    3  A    between atoms: C_19  and  O_20 
REMARK    4  A    between atoms: O_20  and  C_21 
REMARK    5  A    between atoms: C_28  and  C_36 
REMARK    6  A    between atoms: C_30  and  O_35 
REMARK    7  A    between atoms: C_36  and  N_37 
REMARK       I    between atoms: N_37  and  C_38 
REMARK    8  A    between atoms: C_38  and  C_40 
REMARK    9  A    between atoms: C_41  and  C_42 
REMARK   10  A    between atoms: C_46  and  C_48 
ROOT
HETATM    1  C   UNK N   1      27.511   8.953  -0.035  0.00  0.00     0.051 C 
HETATM    2  C   UNK N   1      27.557  10.232   0.731  0.00  0.00    -0.025 A 
HETATM    3  C   UNK N   1      26.451  10.531   1.528  0.00  0.00     0.017 A 
HETATM    4  C   UNK N   1      26.392  11.715   2.259  0.00  0.00    -0.044 A 
HETATM    5  C   UNK N   1      27.456  12.629   2.191  0.00  0.00     0.019 A 
HETATM    6  C   UNK N   1      28.581  12.341   1.406  0.00  0.00     0.108 A 
HETATM    7  C   UNK N   1      28.651  11.145   0.666  0.00  0.00     0.107 A 
HETATM    8  C   UNK N   1      27.344  13.930   2.947  0.00  0.00     0.293 C 
HETATM    9  C   UNK N   1      27.777  13.662   4.400  0.00  0.00     0.269 C 
HETATM   10  C   UNK N   1      29.209  14.078   4.708  0.00  0.00     0.081 C 
HETATM   11  C   UNK N   1      29.347  15.297   5.583  0.00  0.00    -0.010 A 
HETATM   12  C   UNK N   1      28.213  15.968   6.110  0.00  0.00     0.022 A 
HETATM   13  C   UNK N   1      28.446  17.069   6.942  0.00  0.00     0.114 A 
HETATM   14  C   UNK N   1      29.678  17.498   7.240  0.00  0.00     0.114 A 
HETATM   15  C   UNK N   1      30.823  16.890   6.733  0.00  0.00     0.009 A 
HETATM   16  C   UNK N   1      30.653  15.769   5.875  0.00  0.00     0.095 A 
HETATM   17  C   UNK N   1      32.166  17.402   7.133  0.00  0.00     0.054 C 
HETATM   18  O   UNK N   1      29.598  18.542   8.064  0.00  0.00    -0.322 OA
HETATM   19  C   UNK N   1      28.249  18.806   8.315  0.00  0.00     0.352 A 
HETATM   20  O   UNK N   1      27.562  17.839   7.578  0.00  0.00    -0.322 OA
HETATM   21  C   UNK N   1      26.818  15.481   5.802  0.00  0.00     0.281 C 
HETATM   22  N   UNK N   1      26.808  14.043   5.440  0.00  0.00     0.137 N 
HETATM   23  C   UNK N   1      25.452  13.537   5.154  0.00  0.00     0.392 C 
HETATM   24  C   UNK N   1      25.096  13.454   3.645  0.00  0.00     0.286 C 
HETATM   25  C   UNK N   1      25.148  12.025   3.048  0.00  0.00     0.079 C 
HETATM   26  N   UNK N   1      25.947  14.399   2.909  0.00  0.00     0.104 N 
HETATM   27  C   UNK N   1      25.466  14.632   1.550  0.00  0.00     0.311 C 
ENDROOT
BRANCH  21  28
HETATM   28  C   UNK N   1      26.032  16.379   4.814  0.00  0.00     0.164 C 
BRANCH  28  29
HETATM   29  N   UNK N   1      25.129  17.353   5.402  0.00  0.00    -0.355 N 
HETATM   30  C   UNK N   1      23.782  17.380   5.222  0.00  0.00     0.241 C 
HETATM   31  O   UNK N   1      23.125  18.247   5.774  0.00  0.00    -0.269 OA
HETATM   32  H   UNK N   1      25.524  18.048   5.977  0.00  0.00     0.162 HD
BRANCH  30  33
HETATM   33  C   UNK N   1      23.084  16.269   4.546  0.00  0.00     0.075 C 
HETATM   34  C   UNK N   1      22.110  15.527   5.080  0.00  0.00     0.017 C 
BRANCH  34  35
HETATM   35  C   UNK N   1      21.824  15.425   6.513  0.00  0.00    -0.035 A 
HETATM   36  C   UNK N   1      20.754  16.106   7.101  0.00  0.00     0.011 A 
HETATM   37  C   UNK N   1      20.401  15.845   8.429  0.00  0.00     0.002 A 
HETATM   38  C   UNK N   1      21.082  14.857   9.150  0.00  0.00     0.016 A 
HETATM   39  C   UNK N   1      22.138  14.154   8.551  0.00  0.00     0.048 A 
HETATM   40  C   UNK N   1      22.503  14.450   7.236  0.00  0.00     0.027 A 
BRANCH  39  41
HETATM   41  C   UNK N   1      22.826  13.043   9.282  0.00  0.00     0.417 C 
HETATM   42  F   UNK N   1      24.179  13.082   8.992  0.00  0.00    -0.166 F 
HETATM   43  F   UNK N   1      22.665  13.179  10.652  0.00  0.00    -0.166 F 
HETATM   44  F   UNK N   1      22.307  11.825   8.888  0.00  0.00    -0.166 F 
ENDBRANCH  39  41
ENDBRANCH  34  35
ENDBRANCH  30  33
ENDBRANCH  28  29
ENDBRANCH  21  28
BRANCH  23  45
HETATM   45  O   UNK N   1      25.207  12.341   5.830  0.00  0.00    -0.366 OA
HETATM   46  H   UNK N   1      25.354  11.482   6.259  0.00  0.00     0.212 HD
ENDBRANCH  23  45
BRANCH  16  47
HETATM   47  O   UNK N   1      31.707  15.116   5.319  0.00  0.00    -0.278 OA
BRANCH  47  48
HETATM   48  C   UNK N   1      32.152  15.294   4.048  0.00  0.00     0.260 C 
HETATM   49  O   UNK N   1      32.435  14.340   3.338  0.00  0.00    -0.265 OA
HETATM   50  C   UNK N   1      32.415  16.673   3.557  0.00  0.00     0.126 C 
ENDBRANCH  47  48
ENDBRANCH  16  47
BRANCH   6  51
HETATM   51  O   UNK N   1      29.601  13.217   1.352  0.00  0.00    -0.357 OA
HETATM   52  H   UNK N   1      30.430  13.148   1.784  0.00  0.00     0.217 HD
ENDBRANCH   6  51
BRANCH   7  53
HETATM   53  O   UNK N   1      29.771  10.935  -0.081  0.00  0.00    -0.353 OA
HETATM   54  C   UNK N   1      29.971  11.323  -1.385  0.00  0.00     0.210 C 
ENDBRANCH   7  53
TORSDOF 10
ENDMDL
MODEL 7
REMARK VINA RESULT:      -8.2     11.278     14.591
REMARK  10 active torsions:
REMARK  status: ('A' for Active; 'I' for Inactive)
REMARK    1  A    between atoms: C_6  and  O_10 
REMARK    2  A    between atoms: C_7  and  O_8 
REMARK    3  A    between atoms: C_19  and  O_20 
REMARK    4  A    between atoms: O_20  and  C_21 
REMARK    5  A    between atoms: C_28  and  C_36 
REMARK    6  A    between atoms: C_30  and  O_35 
REMARK    7  A    between atoms: C_36  and  N_37 
REMARK       I    between atoms: N_37  and  C_38 
REMARK    8  A    between atoms: C_38  and  C_40 
REMARK    9  A    between atoms: C_41  and  C_42 
REMARK   10  A    between atoms: C_46  and  C_48 
ROOT
HETATM    1  C   UNK N   1      33.249   5.645   5.664  0.00  0.00     0.051 C 
HETATM    2  C   UNK N   1      33.209   7.076   6.082  0.00  0.00    -0.025 A 
HETATM    3  C   UNK N   1      34.196   7.501   6.972  0.00  0.00     0.017 A 
HETATM    4  C   UNK N   1      34.224   8.813   7.438  0.00  0.00    -0.044 A 
HETATM    5  C   UNK N   1      33.245   9.725   7.014  0.00  0.00     0.019 A 
HETATM    6  C   UNK N   1      32.253   9.319   6.110  0.00  0.00     0.108 A 
HETATM    7  C   UNK N   1      32.218   7.997   5.630  0.00  0.00     0.107 A 
HETATM    8  C   UNK N   1      33.263  11.124   7.577  0.00  0.00     0.293 C 
HETATM    9  C   UNK N   1      34.267  11.946   6.746  0.00  0.00     0.269 C 
HETATM   10  C   UNK N   1      33.622  12.821   5.681  0.00  0.00     0.081 C 
HETATM   11  C   UNK N   1      33.648  14.300   5.965  0.00  0.00    -0.010 A 
HETATM   12  C   UNK N   1      34.273  14.825   7.126  0.00  0.00     0.022 A 
HETATM   13  C   UNK N   1      34.277  16.215   7.283  0.00  0.00     0.114 A 
HETATM   14  C   UNK N   1      33.714  17.041   6.395  0.00  0.00     0.114 A 
HETATM   15  C   UNK N   1      33.069  16.579   5.251  0.00  0.00     0.009 A 
HETATM   16  C   UNK N   1      33.025  15.174   5.037  0.00  0.00     0.095 A 
HETATM   17  C   UNK N   1      32.490  17.559   4.286  0.00  0.00     0.054 C 
HETATM   18  O   UNK N   1      33.887  18.302   6.788  0.00  0.00    -0.322 OA
HETATM   19  C   UNK N   1      34.597  18.298   7.991  0.00  0.00     0.352 A 
HETATM   20  O   UNK N   1      34.820  16.945   8.259  0.00  0.00    -0.322 OA
HETATM   21  C   UNK N   1      34.934  13.907   8.126  0.00  0.00     0.281 C 
HETATM   22  N   UNK N   1      35.332  12.619   7.507  0.00  0.00     0.137 N 
HETATM   23  C   UNK N   1      35.999  11.711   8.460  0.00  0.00     0.392 C 
HETATM   24  C   UNK N   1      35.078  10.617   9.065  0.00  0.00     0.286 C 
HETATM   25  C   UNK N   1      35.266   9.205   8.453  0.00  0.00     0.079 C 
HETATM   26  N   UNK N   1      33.686  11.079   8.988  0.00  0.00     0.104 N 
HETATM   27  C   UNK N   1      32.791  10.277   9.819  0.00  0.00     0.311 C 
ENDROOT
BRANCH  21  28
HETATM   28  C   UNK N   1      34.157  13.746   9.456  0.00  0.00     0.164 C 
BRANCH  28  29
HETATM   29  N   UNK N   1      34.349  14.789  10.449  0.00  0.00    -0.355 N 
HETATM   30  C   UNK N   1      35.322  14.797  11.398  0.00  0.00     0.241 C 
HETATM   31  O   UNK N   1      35.387  15.734  12.176  0.00  0.00    -0.269 OA
HETATM   32  H   UNK N   1      33.724  15.551  10.432  0.00  0.00     0.162 HD
BRANCH  30  33
HETATM   33  C   UNK N   1      36.416  13.806  11.372  0.00  0.00     0.075 C 
HETATM   34  C   UNK N   1      36.396  12.615  11.977  0.00  0.00     0.017 C 
BRANCH  34  35
HETATM   35  C   UNK N   1      35.481  12.239  13.057  0.00  0.00    -0.035 A 
HETATM   36  C   UNK N   1      34.589  11.170  12.928  0.00  0.00     0.011 A 
HETATM   37  C   UNK N   1      33.861  10.726  14.037  0.00  0.00     0.002 A 
HETATM   38  C   UNK N   1      34.073  11.312  15.290  0.00  0.00     0.016 A 
HETATM   39  C   UNK N   1      34.988  12.366  15.425  0.00  0.00     0.048 A 
HETATM   40  C   UNK N   1      35.681  12.824  14.303  0.00  0.00     0.027 A 
BRANCH  39  41
HETATM   41  C   UNK N   1      35.281  12.954  16.771  0.00  0.00     0.417 C 
HETATM   42  F   UNK N   1      34.147  13.596  17.239  0.00  0.00    -0.166 F 
HETATM   43  F   UNK N   1      35.633  11.965  17.677  0.00  0.00    -0.166 F 
HETATM   44  F   UNK N   1      36.316  13.863  16.675  0.00  0.00    -0.166 F 
ENDBRANCH  39  41
ENDBRANCH  34  35
ENDBRANCH  30  33
ENDBRANCH  28  29
ENDBRANCH  21  28
BRANCH  23  45
HETATM   45  O   UNK N   1      37.173  11.186   7.918  0.00  0.00    -0.366 OA
HETATM   46  H   UNK N   1      37.780  10.599   7.439  0.00  0.00     0.212 HD
ENDBRANCH  23  45
BRANCH  16  47
HETATM   47  O   UNK N   1      32.407  14.624   3.958  0.00  0.00    -0.278 OA
BRANCH  47  48
HETATM   48  C   UNK N   1      33.017  14.311   2.786  0.00  0.00     0.260 C 
HETATM   49  O   UNK N   1      33.800  15.085   2.256  0.00  0.00    -0.265 OA
HETATM   50  C   UNK N   1      32.632  13.061   2.078  0.00  0.00     0.126 C 
ENDBRANCH  47  48
ENDBRANCH  16  47
BRANCH   6  51
HETATM   51  O   UNK N   1      31.321  10.201   5.700  0.00  0.00    -0.357 OA
HETATM   52  H   UNK N   1      31.403  11.134   5.660  0.00  0.00     0.217 HD
ENDBRANCH   6  51
BRANCH   7  53
HETATM   53  O   UNK N   1      31.221   7.672   4.760  0.00  0.00    -0.353 OA
HETATM   54  C   UNK N   1      31.303   7.660   3.387  0.00  0.00     0.210 C 
ENDBRANCH   7  53
TORSDOF 10
ENDMDL
MODEL 8
REMARK VINA RESULT:      -8.2     12.549     17.195
REMARK  10 active torsions:
REMARK  status: ('A' for Active; 'I' for Inactive)
REMARK    1  A    between atoms: C_6  and  O_10 
REMARK    2  A    between atoms: C_7  and  O_8 
REMARK    3  A    between atoms: C_19  and  O_20 
REMARK    4  A    between atoms: O_20  and  C_21 
REMARK    5  A    between atoms: C_28  and  C_36 
REMARK    6  A    between atoms: C_30  and  O_35 
REMARK    7  A    between atoms: C_36  and  N_37 
REMARK       I    between atoms: N_37  and  C_38 
REMARK    8  A    between atoms: C_38  and  C_40 
REMARK    9  A    between atoms: C_41  and  C_42 
REMARK   10  A    between atoms: C_46  and  C_48 
ROOT
HETATM    1  C   UNK N   1      36.074  11.623  16.475  0.00  0.00     0.051 C 
HETATM    2  C   UNK N   1      36.312  11.703  15.006  0.00  0.00    -0.025 A 
HETATM    3  C   UNK N   1      35.817  12.829  14.346  0.00  0.00     0.017 A 
HETATM    4  C   UNK N   1      35.969  12.978  12.970  0.00  0.00    -0.044 A 
HETATM    5  C   UNK N   1      36.622  11.981  12.228  0.00  0.00     0.019 A 
HETATM    6  C   UNK N   1      37.137  10.849  12.875  0.00  0.00     0.108 A 
HETATM    7  C   UNK N   1      36.992  10.691  14.266  0.00  0.00     0.107 A 
HETATM    8  C   UNK N   1      36.723  12.139  10.731  0.00  0.00     0.293 C 
HETATM    9  C   UNK N   1      37.941  13.036  10.440  0.00  0.00     0.269 C 
HETATM   10  C   UNK N   1      39.193  12.271  10.034  0.00  0.00     0.081 C 
HETATM   11  C   UNK N   1      39.578  12.396   8.583  0.00  0.00    -0.010 A 
HETATM   12  C   UNK N   1      38.841  13.211   7.684  0.00  0.00     0.022 A 
HETATM   13  C   UNK N   1      39.299  13.292   6.365  0.00  0.00     0.114 A 
HETATM   14  C   UNK N   1      40.381  12.632   5.937  0.00  0.00     0.114 A 
HETATM   15  C   UNK N   1      41.128  11.804   6.771  0.00  0.00     0.009 A 
HETATM   16  C   UNK N   1      40.709  11.674   8.123  0.00  0.00     0.095 A 
HETATM   17  C   UNK N   1      42.343  11.123   6.235  0.00  0.00     0.054 C 
HETATM   18  O   UNK N   1      40.594  12.912   4.652  0.00  0.00    -0.322 OA
HETATM   19  C   UNK N   1      39.601  13.795   4.222  0.00  0.00     0.352 A 
HETATM   20  O   UNK N   1      38.807  14.004   5.350  0.00  0.00    -0.322 OA
HETATM   21  C   UNK N   1      37.631  13.980   8.158  0.00  0.00     0.281 C 
HETATM   22  N   UNK N   1      37.679  14.229   9.619  0.00  0.00     0.137 N 
HETATM   23  C   UNK N   1      36.517  14.998  10.104  0.00  0.00     0.392 C 
HETATM   24  C   UNK N   1      35.393  14.138  10.745  0.00  0.00     0.286 C 
HETATM   25  C   UNK N   1      35.356  14.176  12.294  0.00  0.00     0.079 C 
HETATM   26  N   UNK N   1      35.492  12.770  10.221  0.00  0.00     0.104 N 
HETATM   27  C   UNK N   1      34.296  11.981  10.505  0.00  0.00     0.311 C 
ENDROOT
BRANCH  21  28
HETATM   28  C   UNK N   1      36.278  13.409   7.666  0.00  0.00     0.164 C 
BRANCH  28  29
HETATM   29  N   UNK N   1      36.206  13.027   6.266  0.00  0.00    -0.355 N 
HETATM   30  C   UNK N   1      35.109  12.514   5.650  0.00  0.00     0.241 C 
HETATM   31  O   UNK N   1      35.168  12.237   4.464  0.00  0.00    -0.269 OA
HETATM   32  H   UNK N   1      37.017  13.151   5.721  0.00  0.00     0.162 HD
BRANCH  30  33
HETATM   33  C   UNK N   1      33.800  12.482   6.333  0.00  0.00     0.075 C 
HETATM   34  C   UNK N   1      32.921  13.487   6.370  0.00  0.00     0.017 C 
BRANCH  34  35
HETATM   35  C   UNK N   1      33.236  14.887   6.081  0.00  0.00    -0.035 A 
HETATM   36  C   UNK N   1      33.031  15.442   4.814  0.00  0.00     0.011 A 
HETATM   37  C   UNK N   1      33.170  16.820   4.620  0.00  0.00     0.002 A 
HETATM   38  C   UNK N   1      33.456  17.651   5.709  0.00  0.00     0.016 A 
HETATM   39  C   UNK N   1      33.635  17.098   6.986  0.00  0.00     0.048 A 
HETATM   40  C   UNK N   1      33.529  15.717   7.158  0.00  0.00     0.027 A 
BRANCH  39  41
HETATM   41  C   UNK N   1      33.867  17.981   8.173  0.00  0.00     0.417 C 
HETATM   42  F   UNK N   1      32.767  18.803   8.346  0.00  0.00    -0.166 F 
HETATM   43  F   UNK N   1      34.039  17.227   9.323  0.00  0.00    -0.166 F 
HETATM   44  F   UNK N   1      34.993  18.756   7.973  0.00  0.00    -0.166 F 
ENDBRANCH  39  41
ENDBRANCH  34  35
ENDBRANCH  30  33
ENDBRANCH  28  29
ENDBRANCH  21  28
BRANCH  23  45
HETATM   45  O   UNK N   1      36.917  16.055  10.923  0.00  0.00    -0.366 OA
HETATM   46  H   UNK N   1      36.959  16.935  11.329  0.00  0.00     0.212 HD
ENDBRANCH  23  45
BRANCH  16  47
HETATM   47  O   UNK N   1      41.362  10.878   9.011  0.00  0.00    -0.278 OA
BRANCH  47  48
HETATM   48  C   UNK N   1      41.196   9.535   9.123  0.00  0.00     0.260 C 
HETATM   49  O   UNK N   1      42.037   8.838   9.672  0.00  0.00    -0.265 OA
HETATM   50  C   UNK N   1      40.031   8.889   8.459  0.00  0.00     0.126 C 
ENDBRANCH  47  48
ENDBRANCH  16  47
BRANCH   6  51
HETATM   51  O   UNK N   1      37.770   9.900  12.159  0.00  0.00    -0.357 OA
HETATM   52  H   UNK N   1      38.036   9.052  12.455  0.00  0.00     0.217 HD
ENDBRANCH   6  51
BRANCH   7  53
HETATM   53  O   UNK N   1      37.510   9.561  14.825  0.00  0.00    -0.353 OA
HETATM   54  C   UNK N   1      36.846   8.378  15.050  0.00  0.00     0.210 C 
ENDBRANCH   7  53
TORSDOF 10
ENDMDL
MODEL 9
REMARK VINA RESULT:      -8.1      8.925     13.184
REMARK  10 active torsions:
REMARK  status: ('A' for Active; 'I' for Inactive)
REMARK    1  A    between atoms: C_6  and  O_10 
REMARK    2  A    between atoms: C_7  and  O_8 
REMARK    3  A    between atoms: C_19  and  O_20 
REMARK    4  A    between atoms: O_20  and  C_21 
REMARK    5  A    between atoms: C_28  and  C_36 
REMARK    6  A    between atoms: C_30  and  O_35 
REMARK    7  A    between atoms: C_36  and  N_37 
REMARK       I    between atoms: N_37  and  C_38 
REMARK    8  A    between atoms: C_38  and  C_40 
REMARK    9  A    between atoms: C_41  and  C_42 
REMARK   10  A    between atoms: C_46  and  C_48 
ROOT
HETATM    1  C   UNK N   1      35.360   8.692   2.998  0.00  0.00     0.051 C 
HETATM    2  C   UNK N   1      34.740   9.707   3.898  0.00  0.00    -0.025 A 
HETATM    3  C   UNK N   1      35.600  10.626   4.501  0.00  0.00     0.017 A 
HETATM    4  C   UNK N   1      35.114  11.594   5.376  0.00  0.00    -0.044 A 
HETATM    5  C   UNK N   1      33.742  11.647   5.666  0.00  0.00     0.019 A 
HETATM    6  C   UNK N   1      32.861  10.741   5.060  0.00  0.00     0.108 A 
HETATM    7  C   UNK N   1      33.341   9.761   4.171  0.00  0.00     0.107 A 
HETATM    8  C   UNK N   1      33.249  12.668   6.661  0.00  0.00     0.293 C 
HETATM    9  C   UNK N   1      33.056  13.997   5.906  0.00  0.00     0.269 C 
HETATM   10  C   UNK N   1      31.613  14.284   5.514  0.00  0.00     0.081 C 
HETATM   11  C   UNK N   1      30.944  15.386   6.294  0.00  0.00    -0.010 A 
HETATM   12  C   UNK N   1      31.640  16.123   7.288  0.00  0.00     0.022 A 
HETATM   13  C   UNK N   1      30.943  17.151   7.932  0.00  0.00     0.114 A 
HETATM   14  C   UNK N   1      29.670  17.446   7.648  0.00  0.00     0.114 A 
HETATM   15  C   UNK N   1      28.935  16.741   6.698  0.00  0.00     0.009 A 
HETATM   16  C   UNK N   1      29.585  15.679   6.013  0.00  0.00     0.095 A 
HETATM   17  C   UNK N   1      27.528  17.145   6.409  0.00  0.00     0.054 C 
HETATM   18  O   UNK N   1      29.275  18.476   8.393  0.00  0.00    -0.322 OA
HETATM   19  C   UNK N   1      30.342  18.873   9.203  0.00  0.00     0.352 A 
HETATM   20  O   UNK N   1      31.377  17.998   8.867  0.00  0.00    -0.322 OA
HETATM   21  C   UNK N   1      33.085  15.818   7.602  0.00  0.00     0.281 C 
HETATM   22  N   UNK N   1      33.766  15.160   6.462  0.00  0.00     0.137 N 
HETATM   23  C   UNK N   1      35.186  14.870   6.736  0.00  0.00     0.392 C 
HETATM   24  C   UNK N   1      35.477  13.407   7.168  0.00  0.00     0.286 C 
HETATM   25  C   UNK N   1      36.090  12.517   6.057  0.00  0.00     0.079 C 
HETATM   26  N   UNK N   1      34.249  12.831   7.732  0.00  0.00     0.104 N 
HETATM   27  C   UNK N   1      34.504  11.589   8.458  0.00  0.00     0.311 C 
ENDROOT
BRANCH  21  28
HETATM   28  C   UNK N   1      33.305  15.102   8.958  0.00  0.00     0.164 C 
BRANCH  28  29
HETATM   29  N   UNK N   1      33.699  15.941  10.077  0.00  0.00    -0.355 N 
HETATM   30  C   UNK N   1      34.895  15.878  10.720  0.00  0.00     0.241 C 
HETATM   31  O   UNK N   1      35.114  16.640  11.646  0.00  0.00    -0.269 OA
HETATM   32  H   UNK N   1      33.047  16.608  10.395  0.00  0.00     0.162 HD
BRANCH  30  33
HETATM   33  C   UNK N   1      35.999  15.054  10.190  0.00  0.00     0.075 C 
HETATM   34  C   UNK N   1      36.402  13.883  10.692  0.00  0.00     0.017 C 
BRANCH  34  35
HETATM   35  C   UNK N   1      36.093  13.398  12.039  0.00  0.00    -0.035 A 
HETATM   36  C   UNK N   1      36.318  14.183  13.174  0.00  0.00     0.011 A 
HETATM   37  C   UNK N   1      35.846  13.763  14.422  0.00  0.00     0.002 A 
HETATM   38  C   UNK N   1      35.096  12.586  14.523  0.00  0.00     0.016 A 
HETATM   39  C   UNK N   1      34.848  11.812  13.380  0.00  0.00     0.048 A 
HETATM   40  C   UNK N   1      35.355  12.224  12.147  0.00  0.00     0.027 A 
BRANCH  39  41
HETATM   41  C   UNK N   1      33.985  10.591  13.459  0.00  0.00     0.417 C 
HETATM   42  F   UNK N   1      33.365  10.396  12.237  0.00  0.00    -0.166 F 
HETATM   43  F   UNK N   1      34.742   9.468  13.753  0.00  0.00    -0.166 F 
HETATM   44  F   UNK N   1      33.025  10.753  14.440  0.00  0.00    -0.166 F 
ENDBRANCH  39  41
ENDBRANCH  34  35
ENDBRANCH  30  33
ENDBRANCH  28  29
ENDBRANCH  21  28
BRANCH  23  45
HETATM   45  O   UNK N   1      36.000  15.291   5.684  0.00  0.00    -0.366 OA
HETATM   46  H   UNK N   1      36.431  15.865   5.031  0.00  0.00     0.212 HD
ENDBRANCH  23  45
BRANCH  16  47
HETATM   47  O   UNK N   1      28.950  14.923   5.078  0.00  0.00    -0.278 OA
BRANCH  47  48
HETATM   48  C   UNK N   1      28.749  15.287   3.786  0.00  0.00     0.260 C 
HETATM   49  O   UNK N   1      29.404  16.184   3.273  0.00  0.00    -0.265 OA
HETATM   50  C   UNK N   1      27.633  14.669   3.021  0.00  0.00     0.126 C 
ENDBRANCH  47  48
ENDBRANCH  16  47
BRANCH   6  51
HETATM   51  O   UNK N   1      31.544  10.802   5.335  0.00  0.00    -0.357 OA
HETATM   52  H   UNK N   1      30.916  11.392   4.966  0.00  0.00     0.217 HD
ENDBRANCH   6  51
BRANCH   7  53
HETATM   53  O   UNK N   1      32.428   8.909   3.625  0.00  0.00    -0.353 OA
HETATM   54  C   UNK N   1      31.787   9.057   2.418  0.00  0.00     0.210 C 
ENDBRANCH   7  53
TORSDOF 10
ENDMDL
