MODEL 1
REMARK VINA RESULT:      -5.6      0.000      0.000
REMARK  6 active torsions:
REMARK  status: ('A' for Active; 'I' for Inactive)
REMARK    1  A    between atoms: C_8  and  C_6 
REMARK    2  A    between atoms: O_18  and  C_7 
REMARK    3  A    between atoms: N_15  and  C_9 
REMARK    4  A    between atoms: N_17  and  C_10 
REMARK    5  A    between atoms: S_19  and  C_10 
REMARK    6  A    between atoms: N_17  and  N_13 
ROOT
HETATM    1  C   UNK N   1      35.188  12.761  19.025  0.00  0.00     0.015 A 
HETATM    2  C   UNK N   1      35.868  10.682  17.995  0.00  0.00     0.015 A 
HETATM    3  C   UNK N   1      35.180  13.369  17.756  0.00  0.00     0.030 A 
HETATM    4  C   UNK N   1      35.858  11.278  16.750  0.00  0.00     0.030 A 
HETATM    5  C   UNK N   1      35.516  11.403  19.138  0.00  0.00    -0.019 A 
HETATM    6  C   UNK N   1      35.487  12.618  16.607  0.00  0.00     0.033 A 
ENDROOT
BRANCH   5   7
HETATM    7  C   UNK N   1      35.393  10.662  20.405  0.00  0.00     0.118 C 
HETATM    8  N   UNK N   1      34.348  10.899  21.112  0.00  0.00    -0.309 N 
ATOM      9  HN  UNK N   1      33.626  11.502  20.718  1.00  0.00     0.186 HD
BRANCH   8  10
HETATM   10  N   UNK N   1      34.149  10.389  22.368  0.00  0.00    -0.281 N 
HETATM   11  H   UNK N   1      34.884  10.350  23.022  0.00  0.00     0.189 HD
BRANCH  10  12
HETATM   12  C   UNK N   1      32.853   9.920  22.698  0.00  0.00     0.149 C 
HETATM   13  N   UNK N   1      32.216  10.438  23.681  0.00  0.00    -0.379 N 
HETATM   14  H   UNK N   1      31.268  10.221  23.833  0.00  0.00     0.158 HD
ATOM     15  HN  UNK N   1      32.696  11.080  24.312  1.00  0.00     0.158 HD
BRANCH  12  16
HETATM   16  S   UNK N   1      32.050   8.670  21.681  0.00  0.00    -0.106 SA
HETATM   17  H   UNK N   1      32.709   7.526  21.354  0.00  0.00     0.110 HD
ENDBRANCH  12  16
ENDBRANCH  10  12
ENDBRANCH   8  10
ENDBRANCH   5   7
BRANCH   6  18
HETATM   18  N   UNK N   1      35.380  13.217  15.318  0.00  0.00    -0.341 N 
HETATM   19  C   UNK N   1      36.336  13.849  14.707  0.00  0.00     0.111 C 
HETATM   20  C   UNK N   1      36.086  14.432  13.363  0.00  0.00     0.097 C 
ATOM     21  HN  UNK N   1      34.483  13.144  14.837  1.00  0.00     0.167 HD
BRANCH  19  22
HETATM   22  O   UNK N   1      37.571  13.963  15.243  0.00  0.00    -0.350 OA
HETATM   23  H   UNK N   1      38.154  14.634  14.947  0.00  0.00     0.219 HD
ENDBRANCH  19  22
ENDBRANCH   6  18
TORSDOF 6
ENDMDL
MODEL 2
REMARK VINA RESULT:      -5.4      2.716      3.318
REMARK  6 active torsions:
REMARK  status: ('A' for Active; 'I' for Inactive)
REMARK    1  A    between atoms: C_8  and  C_6 
REMARK    2  A    between atoms: O_18  and  C_7 
REMARK    3  A    between atoms: N_15  and  C_9 
REMARK    4  A    between atoms: N_17  and  C_10 
REMARK    5  A    between atoms: S_19  and  C_10 
REMARK    6  A    between atoms: N_17  and  N_13 
ROOT
HETATM    1  C   UNK N   1      35.625  10.658  17.759  0.00  0.00     0.015 A 
HETATM    2  C   UNK N   1      35.120  12.768  18.826  0.00  0.00     0.015 A 
HETATM    3  C   UNK N   1      35.561  11.294  16.506  0.00  0.00     0.030 A 
HETATM    4  C   UNK N   1      35.060  13.393  17.596  0.00  0.00     0.030 A 
HETATM    5  C   UNK N   1      35.421  11.407  18.925  0.00  0.00    -0.019 A 
HETATM    6  C   UNK N   1      35.307  12.675  16.423  0.00  0.00     0.033 A 
ENDROOT
BRANCH   5   7
HETATM    7  C   UNK N   1      35.627  10.848  20.272  0.00  0.00     0.118 C 
HETATM    8  N   UNK N   1      36.724  11.156  20.863  0.00  0.00    -0.309 N 
ATOM      9  HN  UNK N   1      37.336  11.840  20.416  1.00  0.00     0.186 HD
BRANCH   8  10
HETATM   10  N   UNK N   1      37.121  10.619  22.059  0.00  0.00    -0.281 N 
HETATM   11  H   UNK N   1      36.500  10.084  22.604  0.00  0.00     0.189 HD
BRANCH  10  12
HETATM   12  C   UNK N   1      38.450  10.856  22.487  0.00  0.00     0.149 C 
HETATM   13  N   UNK N   1      38.689  11.761  23.361  0.00  0.00    -0.379 N 
HETATM   14  H   UNK N   1      39.583  11.839  23.769  0.00  0.00     0.158 HD
ATOM     15  HN  UNK N   1      37.949  12.405  23.637  1.00  0.00     0.158 HD
BRANCH  12  16
HETATM   16  S   UNK N   1      39.798   9.821  21.890  0.00  0.00    -0.106 SA
HETATM   17  H   UNK N   1      39.531   8.687  21.188  0.00  0.00     0.110 HD
ENDBRANCH  12  16
ENDBRANCH  10  12
ENDBRANCH   8  10
ENDBRANCH   5   7
BRANCH   6  18
HETATM   18  N   UNK N   1      35.342  13.329  15.156  0.00  0.00    -0.341 N 
HETATM   19  C   UNK N   1      36.379  13.928  14.655  0.00  0.00     0.111 C 
HETATM   20  C   UNK N   1      36.277  14.576  13.321  0.00  0.00     0.097 C 
ATOM     21  HN  UNK N   1      34.487  13.326  14.600  1.00  0.00     0.167 HD
BRANCH  19  22
HETATM   22  O   UNK N   1      37.569  13.950  15.295  0.00  0.00    -0.350 OA
HETATM   23  H   UNK N   1      38.192  14.625  15.111  0.00  0.00     0.219 HD
ENDBRANCH  19  22
ENDBRANCH   6  18
TORSDOF 6
ENDMDL
MODEL 3
REMARK VINA RESULT:      -5.4      7.493     10.763
REMARK  6 active torsions:
REMARK  status: ('A' for Active; 'I' for Inactive)
REMARK    1  A    between atoms: C_8  and  C_6 
REMARK    2  A    between atoms: O_18  and  C_7 
REMARK    3  A    between atoms: N_15  and  C_9 
REMARK    4  A    between atoms: N_17  and  C_10 
REMARK    5  A    between atoms: S_19  and  C_10 
REMARK    6  A    between atoms: N_17  and  N_13 
ROOT
HETATM    1  C   UNK N   1      34.089  17.584   8.701  0.00  0.00     0.015 A 
HETATM    2  C   UNK N   1      33.071  15.481   9.328  0.00  0.00     0.015 A 
HETATM    3  C   UNK N   1      32.840  18.031   8.233  0.00  0.00     0.030 A 
HETATM    4  C   UNK N   1      31.845  15.922   8.870  0.00  0.00     0.030 A 
HETATM    5  C   UNK N   1      34.197  16.307   9.269  0.00  0.00    -0.019 A 
HETATM    6  C   UNK N   1      31.704  17.208   8.344  0.00  0.00     0.033 A 
ENDROOT
BRANCH   5   7
HETATM    7  C   UNK N   1      35.429  15.833   9.922  0.00  0.00     0.118 C 
HETATM    8  N   UNK N   1      35.373  15.641  11.190  0.00  0.00    -0.309 N 
ATOM      9  HN  UNK N   1      34.467  15.731  11.651  1.00  0.00     0.186 HD
BRANCH   8  10
HETATM   10  N   UNK N   1      36.461  15.325  11.960  0.00  0.00    -0.281 N 
HETATM   11  H   UNK N   1      37.344  15.719  11.776  0.00  0.00     0.189 HD
BRANCH  10  12
HETATM   12  C   UNK N   1      36.278  14.413  13.029  0.00  0.00     0.149 C 
HETATM   13  N   UNK N   1      36.804  14.652  14.171  0.00  0.00    -0.379 N 
HETATM   14  H   UNK N   1      36.570  14.104  14.955  0.00  0.00     0.158 HD
ATOM     15  HN  UNK N   1      37.472  15.417  14.270  1.00  0.00     0.158 HD
BRANCH  12  16
HETATM   16  S   UNK N   1      35.221  12.969  12.824  0.00  0.00    -0.106 SA
HETATM   17  H   UNK N   1      34.190  12.996  11.937  0.00  0.00     0.110 HD
ENDBRANCH  12  16
ENDBRANCH  10  12
ENDBRANCH   8  10
ENDBRANCH   5   7
BRANCH   6  18
HETATM   18  N   UNK N   1      30.425  17.708   7.958  0.00  0.00    -0.341 N 
HETATM   19  C   UNK N   1      29.598  18.328   8.743  0.00  0.00     0.111 C 
HETATM   20  C   UNK N   1      28.292  18.793   8.211  0.00  0.00     0.097 C 
ATOM     21  HN  UNK N   1      30.137  17.567   6.990  1.00  0.00     0.167 HD
BRANCH  19  22
HETATM   22  O   UNK N   1      29.906  18.599  10.031  0.00  0.00    -0.350 OA
HETATM   23  H   UNK N   1      30.736  18.342  10.383  0.00  0.00     0.219 HD
ENDBRANCH  19  22
ENDBRANCH   6  18
TORSDOF 6
ENDMDL
MODEL 4
REMARK VINA RESULT:      -5.3      9.834     13.255
REMARK  6 active torsions:
REMARK  status: ('A' for Active; 'I' for Inactive)
REMARK    1  A    between atoms: C_8  and  C_6 
REMARK    2  A    between atoms: O_18  and  C_7 
REMARK    3  A    between atoms: N_15  and  C_9 
REMARK    4  A    between atoms: N_17  and  C_10 
REMARK    5  A    between atoms: S_19  and  C_10 
REMARK    6  A    between atoms: N_17  and  N_13 
ROOT
HETATM    1  C   UNK N   1      31.981  17.412   7.588  0.00  0.00     0.015 A 
HETATM    2  C   UNK N   1      33.731  17.541   5.924  0.00  0.00     0.015 A 
HETATM    3  C   UNK N   1      31.027  17.343   6.557  0.00  0.00     0.030 A 
HETATM    4  C   UNK N   1      32.794  17.471   4.912  0.00  0.00     0.030 A 
HETATM    5  C   UNK N   1      33.343  17.492   7.265  0.00  0.00    -0.019 A 
HETATM    6  C   UNK N   1      31.435  17.343   5.211  0.00  0.00     0.033 A 
ENDROOT
BRANCH   5   7
HETATM    7  C   UNK N   1      34.404  17.408   8.282  0.00  0.00     0.118 C 
HETATM    8  N   UNK N   1      34.034  17.136   9.481  0.00  0.00    -0.309 N 
ATOM      9  HN  UNK N   1      33.054  16.900   9.641  1.00  0.00     0.186 HD
BRANCH   8  10
HETATM   10  N   UNK N   1      34.879  17.147  10.559  0.00  0.00    -0.281 N 
HETATM   11  H   UNK N   1      35.086  17.985  11.032  0.00  0.00     0.189 HD
BRANCH  10  12
HETATM   12  C   UNK N   1      35.447  15.917  10.973  0.00  0.00     0.149 C 
HETATM   13  N   UNK N   1      36.683  15.861  11.303  0.00  0.00    -0.379 N 
HETATM   14  H   UNK N   1      37.052  15.051  11.724  0.00  0.00     0.158 HD
ATOM     15  HN  UNK N   1      37.289  16.662  11.128  1.00  0.00     0.158 HD
BRANCH  12  16
HETATM   16  S   UNK N   1      34.417  14.449  11.141  0.00  0.00    -0.106 SA
HETATM   17  H   UNK N   1      34.850  13.389  11.875  0.00  0.00     0.110 HD
ENDBRANCH  12  16
ENDBRANCH  10  12
ENDBRANCH   8  10
ENDBRANCH   5   7
BRANCH   6  18
HETATM   18  N   UNK N   1      30.468  17.173   4.176  0.00  0.00    -0.341 N 
HETATM   19  C   UNK N   1      30.030  16.029   3.745  0.00  0.00     0.111 C 
HETATM   20  C   UNK N   1      29.023  15.995   2.654  0.00  0.00     0.097 C 
ATOM     21  HN  UNK N   1      30.091  18.015   3.741  1.00  0.00     0.167 HD
BRANCH  19  22
HETATM   22  O   UNK N   1      30.438  14.860   4.286  0.00  0.00    -0.350 OA
HETATM   23  H   UNK N   1      29.821  14.174   4.447  0.00  0.00     0.219 HD
ENDBRANCH  19  22
ENDBRANCH   6  18
TORSDOF 6
ENDMDL
MODEL 5
REMARK VINA RESULT:      -5.3      4.747      8.561
REMARK  6 active torsions:
REMARK  status: ('A' for Active; 'I' for Inactive)
REMARK    1  A    between atoms: C_8  and  C_6 
REMARK    2  A    between atoms: O_18  and  C_7 
REMARK    3  A    between atoms: N_15  and  C_9 
REMARK    4  A    between atoms: N_17  and  C_10 
REMARK    5  A    between atoms: S_19  and  C_10 
REMARK    6  A    between atoms: N_17  and  N_13 
ROOT
HETATM    1  C   UNK N   1      36.611  14.084  14.783  0.00  0.00     0.015 A 
HETATM    2  C   UNK N   1      34.795  12.678  14.026  0.00  0.00     0.015 A 
HETATM    3  C   UNK N   1      36.451  13.566  16.081  0.00  0.00     0.030 A 
HETATM    4  C   UNK N   1      34.639  12.168  15.300  0.00  0.00     0.030 A 
HETATM    5  C   UNK N   1      35.788  13.620  13.747  0.00  0.00    -0.019 A 
HETATM    6  C   UNK N   1      35.480  12.580  16.337  0.00  0.00     0.033 A 
ENDROOT
BRANCH   5   7
HETATM    7  C   UNK N   1      36.000  13.996  12.339  0.00  0.00     0.118 C 
HETATM    8  N   UNK N   1      36.543  15.138  12.123  0.00  0.00    -0.309 N 
ATOM      9  HN  UNK N   1      36.883  15.670  12.924  1.00  0.00     0.186 HD
BRANCH   8  10
HETATM   10  N   UNK N   1      36.692  15.685  10.876  0.00  0.00    -0.281 N 
HETATM   11  H   UNK N   1      37.585  15.811  10.481  0.00  0.00     0.189 HD
BRANCH  10  12
HETATM   12  C   UNK N   1      35.522  16.064  10.170  0.00  0.00     0.149 C 
HETATM   13  N   UNK N   1      34.905  17.141  10.486  0.00  0.00    -0.379 N 
HETATM   14  H   UNK N   1      34.179  17.486   9.917  0.00  0.00     0.158 HD
ATOM     15  HN  UNK N   1      35.168  17.644  11.333  1.00  0.00     0.158 HD
BRANCH  12  16
HETATM   16  S   UNK N   1      34.955  15.097   8.761  0.00  0.00    -0.106 SA
HETATM   17  H   UNK N   1      35.677  15.078   7.609  0.00  0.00     0.110 HD
ENDBRANCH  12  16
ENDBRANCH  10  12
ENDBRANCH   8  10
ENDBRANCH   5   7
BRANCH   6  18
HETATM   18  N   UNK N   1      35.392  11.991  17.633  0.00  0.00    -0.341 N 
HETATM   19  C   UNK N   1      35.275  12.649  18.745  0.00  0.00     0.111 C 
HETATM   20  C   UNK N   1      35.199  11.907  20.030  0.00  0.00     0.097 C 
ATOM     21  HN  UNK N   1      35.423  10.973  17.690  1.00  0.00     0.167 HD
BRANCH  19  22
HETATM   22  O   UNK N   1      35.183  13.997  18.770  0.00  0.00    -0.350 OA
HETATM   23  H   UNK N   1      34.506  14.415  19.263  0.00  0.00     0.219 HD
ENDBRANCH  19  22
ENDBRANCH   6  18
TORSDOF 6
ENDMDL
MODEL 6
REMARK VINA RESULT:      -5.2     10.563     13.541
REMARK  6 active torsions:
REMARK  status: ('A' for Active; 'I' for Inactive)
REMARK    1  A    between atoms: C_8  and  C_6 
REMARK    2  A    between atoms: O_18  and  C_7 
REMARK    3  A    between atoms: N_15  and  C_9 
REMARK    4  A    between atoms: N_17  and  C_10 
REMARK    5  A    between atoms: S_19  and  C_10 
REMARK    6  A    between atoms: N_17  and  N_13 
ROOT
HETATM    1  C   UNK N   1      30.420  17.883   8.746  0.00  0.00     0.015 A 
HETATM    2  C   UNK N   1      30.361  16.481   6.777  0.00  0.00     0.015 A 
HETATM    3  C   UNK N   1      29.261  18.539   8.294  0.00  0.00     0.030 A 
HETATM    4  C   UNK N   1      29.222  17.124   6.335  0.00  0.00     0.030 A 
HETATM    5  C   UNK N   1      30.960  16.834   7.989  0.00  0.00    -0.019 A 
HETATM    6  C   UNK N   1      28.639  18.139   7.097  0.00  0.00     0.033 A 
ENDROOT
BRANCH   5   7
HETATM    7  C   UNK N   1      32.072  16.000   8.472  0.00  0.00     0.118 C 
HETATM    8  N   UNK N   1      32.132  15.795   9.738  0.00  0.00    -0.309 N 
ATOM      9  HN  UNK N   1      31.363  16.133  10.317  1.00  0.00     0.186 HD
BRANCH   8  10
HETATM   10  N   UNK N   1      33.171  15.150  10.356  0.00  0.00    -0.281 N 
HETATM   11  H   UNK N   1      33.013  14.349  10.907  0.00  0.00     0.189 HD
BRANCH  10  12
HETATM   12  C   UNK N   1      34.478  15.667  10.177  0.00  0.00     0.149 C 
HETATM   13  N   UNK N   1      34.794  16.797  10.689  0.00  0.00    -0.379 N 
HETATM   14  H   UNK N   1      35.731  17.100  10.692  0.00  0.00     0.158 HD
ATOM     15  HN  UNK N   1      34.069  17.389  11.095  1.00  0.00     0.158 HD
BRANCH  12  16
HETATM   16  S   UNK N   1      35.732  14.697   9.324  0.00  0.00    -0.106 SA
HETATM   17  H   UNK N   1      35.404  13.970   8.222  0.00  0.00     0.110 HD
ENDBRANCH  12  16
ENDBRANCH  10  12
ENDBRANCH   8  10
ENDBRANCH   5   7
BRANCH   6  18
HETATM   18  N   UNK N   1      27.410  18.744   6.699  0.00  0.00    -0.341 N 
HETATM   19  C   UNK N   1      27.278  19.594   5.727  0.00  0.00     0.111 C 
HETATM   20  C   UNK N   1      25.936  20.153   5.421  0.00  0.00     0.097 C 
ATOM     21  HN  UNK N   1      26.570  18.489   7.218  1.00  0.00     0.167 HD
BRANCH  19  22
HETATM   22  O   UNK N   1      28.324  19.962   4.955  0.00  0.00    -0.350 OA
HETATM   23  H   UNK N   1      29.086  20.345   5.344  0.00  0.00     0.219 HD
ENDBRANCH  19  22
ENDBRANCH   6  18
TORSDOF 6
ENDMDL
MODEL 7
REMARK VINA RESULT:      -5.2     16.035     19.508
REMARK  6 active torsions:
REMARK  status: ('A' for Active; 'I' for Inactive)
REMARK    1  A    between atoms: C_8  and  C_6 
REMARK    2  A    between atoms: O_18  and  C_7 
REMARK    3  A    between atoms: N_15  and  C_9 
REMARK    4  A    between atoms: N_17  and  C_10 
REMARK    5  A    between atoms: S_19  and  C_10 
REMARK    6  A    between atoms: N_17  and  N_13 
ROOT
HETATM    1  C   UNK N   1      25.317  18.564   4.303  0.00  0.00     0.015 A 
HETATM    2  C   UNK N   1      26.612  20.577   3.960  0.00  0.00     0.015 A 
HETATM    3  C   UNK N   1      26.318  18.086   5.167  0.00  0.00     0.030 A 
HETATM    4  C   UNK N   1      27.594  20.108   4.809  0.00  0.00     0.030 A 
HETATM    5  C   UNK N   1      25.459  19.827   3.712  0.00  0.00    -0.019 A 
HETATM    6  C   UNK N   1      27.450  18.873   5.446  0.00  0.00     0.033 A 
ENDROOT
BRANCH   5   7
HETATM    7  C   UNK N   1      24.386  20.459   2.927  0.00  0.00     0.118 C 
HETATM    8  N   UNK N   1      23.185  20.094   3.193  0.00  0.00    -0.309 N 
ATOM      9  HN  UNK N   1      23.035  19.471   3.988  1.00  0.00     0.186 HD
BRANCH   8  10
HETATM   10  N   UNK N   1      22.091  20.492   2.471  0.00  0.00    -0.281 N 
HETATM   11  H   UNK N   1      22.062  21.378   2.043  0.00  0.00     0.189 HD
BRANCH  10  12
HETATM   12  C   UNK N   1      21.004  19.591   2.356  0.00  0.00     0.149 C 
HETATM   13  N   UNK N   1      20.250  19.626   1.322  0.00  0.00    -0.379 N 
HETATM   14  H   UNK N   1      19.583  18.918   1.165  0.00  0.00     0.158 HD
ATOM     15  HN  UNK N   1      20.341  20.392   0.655  1.00  0.00     0.158 HD
BRANCH  12  16
HETATM   16  S   UNK N   1      20.735  18.324   3.607  0.00  0.00    -0.106 SA
HETATM   17  H   UNK N   1      20.538  18.676   4.907  0.00  0.00     0.110 HD
ENDBRANCH  12  16
ENDBRANCH  10  12
ENDBRANCH   8  10
ENDBRANCH   5   7
BRANCH   6  18
HETATM   18  N   UNK N   1      28.411  18.422   6.399  0.00  0.00    -0.341 N 
HETATM   19  C   UNK N   1      28.374  18.674   7.672  0.00  0.00     0.111 C 
HETATM   20  C   UNK N   1      29.445  18.144   8.555  0.00  0.00     0.097 C 
ATOM     21  HN  UNK N   1      29.187  17.857   6.054  1.00  0.00     0.167 HD
BRANCH  19  22
HETATM   22  O   UNK N   1      27.364  19.377   8.231  0.00  0.00    -0.350 OA
HETATM   23  H   UNK N   1      27.067  20.172   7.835  0.00  0.00     0.219 HD
ENDBRANCH  19  22
ENDBRANCH   6  18
TORSDOF 6
ENDMDL
MODEL 8
REMARK VINA RESULT:      -5.2     16.693     20.171
REMARK  6 active torsions:
REMARK  status: ('A' for Active; 'I' for Inactive)
REMARK    1  A    between atoms: C_8  and  C_6 
REMARK    2  A    between atoms: O_18  and  C_7 
REMARK    3  A    between atoms: N_15  and  C_9 
REMARK    4  A    between atoms: N_17  and  C_10 
REMARK    5  A    between atoms: S_19  and  C_10 
REMARK    6  A    between atoms: N_17  and  N_13 
ROOT
HETATM    1  C   UNK N   1      25.101  18.458   3.504  0.00  0.00     0.015 A 
HETATM    2  C   UNK N   1      26.332  20.538   3.416  0.00  0.00     0.015 A 
HETATM    3  C   UNK N   1      26.225  17.835   4.075  0.00  0.00     0.030 A 
HETATM    4  C   UNK N   1      27.434  19.926   3.978  0.00  0.00     0.030 A 
HETATM    5  C   UNK N   1      25.152  19.823   3.192  0.00  0.00    -0.019 A 
HETATM    6  C   UNK N   1      27.389  18.577   4.342  0.00  0.00     0.033 A 
ENDROOT
BRANCH   5   7
HETATM    7  C   UNK N   1      23.970  20.577   2.742  0.00  0.00     0.118 C 
HETATM    8  N   UNK N   1      22.829  20.166   3.162  0.00  0.00    -0.309 N 
ATOM      9  HN  UNK N   1      22.812  19.414   3.851  1.00  0.00     0.186 HD
BRANCH   8  10
HETATM   10  N   UNK N   1      21.632  20.678   2.736  0.00  0.00    -0.281 N 
HETATM   11  H   UNK N   1      21.293  21.532   3.088  0.00  0.00     0.189 HD
BRANCH  10  12
HETATM   12  C   UNK N   1      20.897  19.943   1.773  0.00  0.00     0.149 C 
HETATM   13  N   UNK N   1      20.681  20.443   0.614  0.00  0.00    -0.379 N 
HETATM   14  H   UNK N   1      20.298  19.891  -0.106  0.00  0.00     0.158 HD
ATOM     15  HN  UNK N   1      20.909  21.421   0.435  1.00  0.00     0.158 HD
BRANCH  12  16
HETATM   16  S   UNK N   1      20.352  18.264   2.130  0.00  0.00    -0.106 SA
HETATM   17  H   UNK N   1      20.979  17.203   1.553  0.00  0.00     0.110 HD
ENDBRANCH  12  16
ENDBRANCH  10  12
ENDBRANCH   8  10
ENDBRANCH   5   7
BRANCH   6  18
HETATM   18  N   UNK N   1      28.487  17.960   5.011  0.00  0.00    -0.341 N 
HETATM   19  C   UNK N   1      29.443  17.303   4.427  0.00  0.00     0.111 C 
HETATM   20  C   UNK N   1      30.527  16.704   5.247  0.00  0.00     0.097 C 
ATOM     21  HN  UNK N   1      28.525  18.040   6.027  1.00  0.00     0.167 HD
BRANCH  19  22
HETATM   22  O   UNK N   1      29.504  17.178   3.083  0.00  0.00    -0.350 OA
HETATM   23  H   UNK N   1      30.330  17.062   2.657  0.00  0.00     0.219 HD
ENDBRANCH  19  22
ENDBRANCH   6  18
TORSDOF 6
ENDMDL
MODEL 9
REMARK VINA RESULT:      -5.2     27.767     28.851
REMARK  6 active torsions:
REMARK  status: ('A' for Active; 'I' for Inactive)
REMARK    1  A    between atoms: C_8  and  C_6 
REMARK    2  A    between atoms: O_18  and  C_7 
REMARK    3  A    between atoms: N_15  and  C_9 
REMARK    4  A    between atoms: N_17  and  C_10 
REMARK    5  A    between atoms: S_19  and  C_10 
REMARK    6  A    between atoms: N_17  and  N_13 
ROOT
HETATM    1  C   UNK N   1      26.747  26.179  -3.567  0.00  0.00     0.015 A 
HETATM    2  C   UNK N   1      25.608  27.407  -5.311  0.00  0.00     0.015 A 
HETATM    3  C   UNK N   1      26.309  24.976  -4.149  0.00  0.00     0.030 A 
HETATM    4  C   UNK N   1      25.180  26.226  -5.883  0.00  0.00     0.030 A 
HETATM    5  C   UNK N   1      26.408  27.400  -4.166  0.00  0.00    -0.019 A 
HETATM    6  C   UNK N   1      25.546  24.996  -5.330  0.00  0.00     0.033 A 
ENDROOT
BRANCH   5   7
HETATM    7  C   UNK N   1      26.959  28.687  -3.708  0.00  0.00     0.118 C 
HETATM    8  N   UNK N   1      27.118  28.828  -2.442  0.00  0.00    -0.309 N 
ATOM      9  HN  UNK N   1      26.951  28.020  -1.842  1.00  0.00     0.186 HD
BRANCH   8  10
HETATM   10  N   UNK N   1      27.499  30.004  -1.850  0.00  0.00    -0.281 N 
HETATM   11  H   UNK N   1      27.031  30.846  -2.050  0.00  0.00     0.189 HD
BRANCH  10  12
HETATM   12  C   UNK N   1      28.586  29.971  -0.941  0.00  0.00     0.149 C 
HETATM   13  N   UNK N   1      29.768  29.723  -1.366  0.00  0.00    -0.379 N 
HETATM   14  H   UNK N   1      30.546  29.836  -0.773  0.00  0.00     0.158 HD
ATOM     15  HN  UNK N   1      29.904  29.408  -2.326  1.00  0.00     0.158 HD
BRANCH  12  16
HETATM   16  S   UNK N   1      28.334  30.378   0.795  0.00  0.00    -0.106 SA
HETATM   17  H   UNK N   1      27.176  30.031   1.418  0.00  0.00     0.110 HD
ENDBRANCH  12  16
ENDBRANCH  10  12
ENDBRANCH   8  10
ENDBRANCH   5   7
BRANCH   6  18
HETATM   18  N   UNK N   1      25.191  23.770  -5.966  0.00  0.00    -0.341 N 
HETATM   19  C   UNK N   1      25.900  23.166  -6.871  0.00  0.00     0.111 C 
HETATM   20  C   UNK N   1      25.409  21.893  -7.457  0.00  0.00     0.097 C 
ATOM     21  HN  UNK N   1      24.312  23.332  -5.689  1.00  0.00     0.167 HD
BRANCH  19  22
HETATM   22  O   UNK N   1      27.098  23.645  -7.275  0.00  0.00    -0.350 OA
HETATM   23  H   UNK N   1      27.877  23.427  -6.802  0.00  0.00     0.219 HD
ENDBRANCH  19  22
ENDBRANCH   6  18
TORSDOF 6
ENDMDL
