MODEL 1
REMARK VINA RESULT:      -7.4      0.000      0.000
REMARK  10 active torsions:
REMARK  status: ('A' for Active; 'I' for Inactive)
REMARK    1  A    between atoms: C_2  and  C_3 
REMARK    2  A    between atoms: C_2  and  C_11 
REMARK    3  A    between atoms: C_3  and  N_4 
REMARK    4  A    between atoms: N_4  and  S_5 
REMARK    5  A    between atoms: S_5  and  C_8 
REMARK    6  A    between atoms: C_14  and  C_17 
REMARK    7  A    between atoms: C_20  and  C_23 
REMARK    8  A    between atoms: C_23  and  C_24 
REMARK    9  A    between atoms: C_24  and  N_25 
REMARK   10  A    between atoms: N_25  and  S_26 
ROOT
HETATM    1  C   UNK N   1      35.630  13.791  12.602  0.00  0.00    -0.053 A 
HETATM    2  C   UNK N   1      36.404  14.391  13.612  0.00  0.00     0.008 A 
HETATM    3  C   UNK N   1      36.404  13.856  14.904  0.00  0.00     0.013 A 
HETATM    4  C   UNK N   1      35.641  12.727  15.210  0.00  0.00    -0.026 A 
HETATM    5  C   UNK N   1      34.885  12.115  14.192  0.00  0.00     0.013 A 
HETATM    6  C   UNK N   1      34.889  12.647  12.904  0.00  0.00     0.008 A 
ENDROOT
BRANCH   4   7
HETATM    7  C   UNK N   1      35.617  12.169  16.581  0.00  0.00    -0.026 A 
HETATM    8  C   UNK N   1      35.200  12.982  17.653  0.00  0.00     0.013 A 
HETATM    9  C   UNK N   1      35.180  12.474  18.949  0.00  0.00     0.008 A 
HETATM   10  C   UNK N   1      35.585  11.164  19.201  0.00  0.00    -0.057 A 
HETATM   11  C   UNK N   1      35.992  10.342  18.142  0.00  0.00     0.008 A 
HETATM   12  C   UNK N   1      36.002  10.848  16.837  0.00  0.00     0.013 A 
BRANCH  10  13
HETATM   13  C   UNK N   1      35.581  10.657  20.601  0.00  0.00     0.058 C 
BRANCH  13  14
HETATM   14  C   UNK N   1      34.170  10.306  21.073  0.00  0.00     0.136 C 
BRANCH  14  15
HETATM   15  N   UNK N   1      33.743   8.975  20.622  0.00  0.00    -0.320 N 
HETATM   16  H   UNK N   1      34.221   8.418  19.914  0.00  0.00     0.172 HD
BRANCH  15  17
HETATM   17  S   UNK N   1      32.275   8.474  21.489  0.00  0.00     0.222 S 
HETATM   18  O   UNK N   1      31.072   8.759  20.579  0.00  0.00    -0.206 OA
HETATM   19  O   UNK N   1      32.183   9.998  21.659  0.00  0.00    -0.206 OA
HETATM   20  C   UNK N   1      32.445   7.890  19.777  0.00  0.00     0.185 C 
ENDBRANCH  15  17
ENDBRANCH  14  15
ENDBRANCH  13  14
ENDBRANCH  10  13
ENDBRANCH   4   7
BRANCH   1  21
HETATM   21  C   UNK N   1      35.558  14.366  11.210  0.00  0.00     0.033 C 
HETATM   22  C   UNK N   1      36.908  14.417  10.505  0.00  0.00     0.017 C 
BRANCH  21  23
HETATM   23  C   UNK N   1      34.948  15.770  11.259  0.00  0.00     0.141 C 
BRANCH  23  24
HETATM   24  N   UNK N   1      33.803  15.846  10.360  0.00  0.00    -0.319 N 
HETATM   25  H   UNK N   1      32.894  15.423  10.548  0.00  0.00     0.172 HD
BRANCH  24  26
HETATM   26  S   UNK N   1      34.198  16.772   8.890  0.00  0.00     0.230 S 
HETATM   27  O   UNK N   1      35.101  15.905   7.998  0.00  0.00    -0.206 OA
HETATM   28  O   UNK N   1      35.253  17.729   9.456  0.00  0.00    -0.206 OA
BRANCH  26  29
HETATM   29  C   UNK N   1      33.012  17.851   8.019  0.00  0.00     0.121 C 
HETATM   30  C   UNK N   1      31.614  17.727   8.583  0.00  0.00     0.027 C 
HETATM   31  C   UNK N   1      32.999  17.511   6.540  0.00  0.00     0.027 C 
ENDBRANCH  26  29
ENDBRANCH  24  26
ENDBRANCH  23  24
ENDBRANCH  21  23
ENDBRANCH   1  21
TORSDOF 10
ENDMDL
MODEL 2
REMARK VINA RESULT:      -7.3      0.980      1.547
REMARK  10 active torsions:
REMARK  status: ('A' for Active; 'I' for Inactive)
REMARK    1  A    between atoms: C_2  and  C_3 
REMARK    2  A    between atoms: C_2  and  C_11 
REMARK    3  A    between atoms: C_3  and  N_4 
REMARK    4  A    between atoms: N_4  and  S_5 
REMARK    5  A    between atoms: S_5  and  C_8 
REMARK    6  A    between atoms: C_14  and  C_17 
REMARK    7  A    between atoms: C_20  and  C_23 
REMARK    8  A    between atoms: C_23  and  C_24 
REMARK    9  A    between atoms: C_24  and  N_25 
REMARK   10  A    between atoms: N_25  and  S_26 
ROOT
HETATM    1  C   UNK N   1      35.653  14.007  12.370  0.00  0.00    -0.053 A 
HETATM    2  C   UNK N   1      36.391  14.671  13.368  0.00  0.00     0.008 A 
HETATM    3  C   UNK N   1      36.394  14.180  14.677  0.00  0.00     0.013 A 
HETATM    4  C   UNK N   1      35.671  13.033  15.014  0.00  0.00    -0.026 A 
HETATM    5  C   UNK N   1      34.952  12.358  14.009  0.00  0.00     0.013 A 
HETATM    6  C   UNK N   1      34.953  12.845  12.703  0.00  0.00     0.008 A 
ENDROOT
BRANCH   4   7
HETATM    7  C   UNK N   1      35.651  12.522  16.403  0.00  0.00    -0.026 A 
HETATM    8  C   UNK N   1      36.044  11.193  16.657  0.00  0.00     0.013 A 
HETATM    9  C   UNK N   1      36.023  10.694  17.957  0.00  0.00     0.008 A 
HETATM   10  C   UNK N   1      35.601  11.498  19.015  0.00  0.00    -0.057 A 
HETATM   11  C   UNK N   1      35.218  12.824  18.777  0.00  0.00     0.008 A 
HETATM   12  C   UNK N   1      35.249  13.330  17.472  0.00  0.00     0.013 A 
BRANCH  10  13
HETATM   13  C   UNK N   1      35.561  10.929  20.391  0.00  0.00     0.058 C 
BRANCH  13  14
HETATM   14  C   UNK N   1      34.244  10.204  20.667  0.00  0.00     0.136 C 
BRANCH  14  15
HETATM   15  N   UNK N   1      33.860  10.260  22.083  0.00  0.00    -0.320 N 
HETATM   16  H   UNK N   1      34.437  10.647  22.829  0.00  0.00     0.172 HD
BRANCH  15  17
HETATM   17  S   UNK N   1      32.244   9.557  22.310  0.00  0.00     0.222 S 
HETATM   18  O   UNK N   1      32.223   8.860  23.678  0.00  0.00    -0.206 OA
HETATM   19  O   UNK N   1      33.044   8.291  21.964  0.00  0.00    -0.206 OA
HETATM   20  C   UNK N   1      32.901  10.540  23.689  0.00  0.00     0.185 C 
ENDBRANCH  15  17
ENDBRANCH  14  15
ENDBRANCH  13  14
ENDBRANCH  10  13
ENDBRANCH   4   7
BRANCH   1  21
HETATM   21  C   UNK N   1      35.577  14.530  10.958  0.00  0.00     0.033 C 
HETATM   22  C   UNK N   1      36.902  14.451  10.211  0.00  0.00     0.017 C 
BRANCH  21  23
HETATM   23  C   UNK N   1      35.076  15.978  10.968  0.00  0.00     0.141 C 
BRANCH  23  24
HETATM   24  N   UNK N   1      33.848  16.084  10.190  0.00  0.00    -0.319 N 
HETATM   25  H   UNK N   1      32.950  15.692  10.475  0.00  0.00     0.172 HD
BRANCH  24  26
HETATM   26  S   UNK N   1      34.118  16.985   8.678  0.00  0.00     0.230 S 
HETATM   27  O   UNK N   1      35.045  16.152   7.776  0.00  0.00    -0.206 OA
HETATM   28  O   UNK N   1      35.125  18.031   9.169  0.00  0.00    -0.206 OA
BRANCH  26  29
HETATM   29  C   UNK N   1      32.826  17.950   7.823  0.00  0.00     0.121 C 
HETATM   30  C   UNK N   1      31.522  17.951   8.589  0.00  0.00     0.027 C 
HETATM   31  C   UNK N   1      32.603  17.389   6.432  0.00  0.00     0.027 C 
ENDBRANCH  26  29
ENDBRANCH  24  26
ENDBRANCH  23  24
ENDBRANCH  21  23
ENDBRANCH   1  21
TORSDOF 10
ENDMDL
MODEL 3
REMARK VINA RESULT:      -7.0     19.768     23.334
REMARK  10 active torsions:
REMARK  status: ('A' for Active; 'I' for Inactive)
REMARK    1  A    between atoms: C_2  and  C_3 
REMARK    2  A    between atoms: C_2  and  C_11 
REMARK    3  A    between atoms: C_3  and  N_4 
REMARK    4  A    between atoms: N_4  and  S_5 
REMARK    5  A    between atoms: S_5  and  C_8 
REMARK    6  A    between atoms: C_14  and  C_17 
REMARK    7  A    between atoms: C_20  and  C_23 
REMARK    8  A    between atoms: C_23  and  C_24 
REMARK    9  A    between atoms: C_24  and  N_25 
REMARK   10  A    between atoms: N_25  and  S_26 
ROOT
HETATM    1  C   UNK N   1      26.668  25.331  -4.587  0.00  0.00    -0.053 A 
HETATM    2  C   UNK N   1      27.511  25.034  -5.674  0.00  0.00     0.008 A 
HETATM    3  C   UNK N   1      28.610  24.189  -5.494  0.00  0.00     0.013 A 
HETATM    4  C   UNK N   1      28.887  23.630  -4.244  0.00  0.00    -0.026 A 
HETATM    5  C   UNK N   1      28.029  23.912  -3.164  0.00  0.00     0.013 A 
HETATM    6  C   UNK N   1      26.931  24.751  -3.345  0.00  0.00     0.008 A 
ENDROOT
BRANCH   4   7
HETATM    7  C   UNK N   1      30.062  22.753  -4.042  0.00  0.00    -0.026 A 
HETATM    8  C   UNK N   1      30.938  23.006  -2.968  0.00  0.00     0.013 A 
HETATM    9  C   UNK N   1      32.053  22.195  -2.768  0.00  0.00     0.008 A 
HETATM   10  C   UNK N   1      32.319  21.137  -3.635  0.00  0.00    -0.057 A 
HETATM   11  C   UNK N   1      31.450  20.868  -4.701  0.00  0.00     0.008 A 
HETATM   12  C   UNK N   1      30.324  21.676  -4.895  0.00  0.00     0.013 A 
BRANCH  10  13
HETATM   13  C   UNK N   1      33.535  20.303  -3.415  0.00  0.00     0.058 C 
BRANCH  13  14
HETATM   14  C   UNK N   1      33.632  19.164  -4.430  0.00  0.00     0.136 C 
BRANCH  14  15
HETATM   15  N   UNK N   1      34.205  17.944  -3.848  0.00  0.00    -0.320 N 
HETATM   16  H   UNK N   1      33.974  17.572  -2.928  0.00  0.00     0.172 HD
BRANCH  15  17
HETATM   17  S   UNK N   1      35.361  17.208  -4.981  0.00  0.00     0.222 S 
HETATM   18  O   UNK N   1      36.540  16.665  -4.160  0.00  0.00    -0.206 OA
HETATM   19  O   UNK N   1      36.086  18.526  -4.673  0.00  0.00    -0.206 OA
HETATM   20  C   UNK N   1      34.903  16.214  -3.529  0.00  0.00     0.185 C 
ENDBRANCH  15  17
ENDBRANCH  14  15
ENDBRANCH  13  14
ENDBRANCH  10  13
ENDBRANCH   4   7
BRANCH   1  21
HETATM   21  C   UNK N   1      25.504  26.280  -4.722  0.00  0.00     0.033 C 
HETATM   22  C   UNK N   1      25.437  26.967  -6.081  0.00  0.00     0.017 C 
BRANCH  21  23
HETATM   23  C   UNK N   1      25.563  27.335  -3.613  0.00  0.00     0.141 C 
BRANCH  23  24
HETATM   24  N   UNK N   1      25.501  28.671  -4.194  0.00  0.00    -0.319 N 
HETATM   25  H   UNK N   1      24.702  29.038  -4.711  0.00  0.00     0.172 HD
BRANCH  24  26
HETATM   26  S   UNK N   1      27.003  29.577  -3.887  0.00  0.00     0.230 S 
HETATM   27  O   UNK N   1      27.180  29.723  -2.367  0.00  0.00    -0.206 OA
HETATM   28  O   UNK N   1      26.528  30.996  -4.218  0.00  0.00    -0.206 OA
BRANCH  26  29
HETATM   29  C   UNK N   1      28.536  29.364  -4.854  0.00  0.00     0.121 C 
HETATM   30  C   UNK N   1      28.263  29.301  -6.340  0.00  0.00     0.027 C 
HETATM   31  C   UNK N   1      29.250  28.101  -4.410  0.00  0.00     0.027 C 
ENDBRANCH  26  29
ENDBRANCH  24  26
ENDBRANCH  23  24
ENDBRANCH  21  23
ENDBRANCH   1  21
TORSDOF 10
ENDMDL
MODEL 4
REMARK VINA RESULT:      -7.0      1.437     11.073
REMARK  10 active torsions:
REMARK  status: ('A' for Active; 'I' for Inactive)
REMARK    1  A    between atoms: C_2  and  C_3 
REMARK    2  A    between atoms: C_2  and  C_11 
REMARK    3  A    between atoms: C_3  and  N_4 
REMARK    4  A    between atoms: N_4  and  S_5 
REMARK    5  A    between atoms: S_5  and  C_8 
REMARK    6  A    between atoms: C_14  and  C_17 
REMARK    7  A    between atoms: C_20  and  C_23 
REMARK    8  A    between atoms: C_23  and  C_24 
REMARK    9  A    between atoms: C_24  and  N_25 
REMARK   10  A    between atoms: N_25  and  S_26 
ROOT
HETATM    1  C   UNK N   1      35.621  11.576  18.817  0.00  0.00    -0.053 A 
HETATM    2  C   UNK N   1      36.032  10.701  17.793  0.00  0.00     0.008 A 
HETATM    3  C   UNK N   1      36.037  11.134  16.464  0.00  0.00     0.013 A 
HETATM    4  C   UNK N   1      35.638  12.431  16.133  0.00  0.00    -0.026 A 
HETATM    5  C   UNK N   1      35.249  13.312  17.161  0.00  0.00     0.013 A 
HETATM    6  C   UNK N   1      35.248  12.880  18.486  0.00  0.00     0.008 A 
ENDROOT
BRANCH   4   7
HETATM    7  C   UNK N   1      35.618  12.889  14.725  0.00  0.00    -0.026 A 
HETATM    8  C   UNK N   1      35.061  12.057  13.734  0.00  0.00     0.013 A 
HETATM    9  C   UNK N   1      35.043  12.470  12.404  0.00  0.00     0.008 A 
HETATM   10  C   UNK N   1      35.587  13.701  12.039  0.00  0.00    -0.057 A 
HETATM   11  C   UNK N   1      36.134  14.541  13.017  0.00  0.00     0.008 A 
HETATM   12  C   UNK N   1      36.143  14.133  14.355  0.00  0.00     0.013 A 
BRANCH  10  13
HETATM   13  C   UNK N   1      35.580  14.104  10.605  0.00  0.00     0.058 C 
BRANCH  13  14
HETATM   14  C   UNK N   1      34.968  15.492  10.409  0.00  0.00     0.136 C 
BRANCH  14  15
HETATM   15  N   UNK N   1      34.585  15.743   9.014  0.00  0.00    -0.320 N 
HETATM   16  H   UNK N   1      34.662  15.064   8.257  0.00  0.00     0.172 HD
BRANCH  15  17
HETATM   17  S   UNK N   1      33.967  17.400   8.835  0.00  0.00     0.222 S 
HETATM   18  O   UNK N   1      34.844  18.118   7.800  0.00  0.00    -0.206 OA
HETATM   19  O   UNK N   1      35.212  17.666   9.696  0.00  0.00    -0.206 OA
HETATM   20  C   UNK N   1      34.266  16.475   7.300  0.00  0.00     0.185 C 
ENDBRANCH  15  17
ENDBRANCH  14  15
ENDBRANCH  13  14
ENDBRANCH  10  13
ENDBRANCH   4   7
BRANCH   1  21
HETATM   21  C   UNK N   1      35.548  11.135  20.257  0.00  0.00     0.033 C 
HETATM   22  C   UNK N   1      36.680  10.199  20.661  0.00  0.00     0.017 C 
BRANCH  21  23
HETATM   23  C   UNK N   1      34.199  10.459  20.525  0.00  0.00     0.141 C 
BRANCH  23  24
HETATM   24  N   UNK N   1      34.411   9.097  20.998  0.00  0.00    -0.319 N 
HETATM   25  H   UNK N   1      34.951   8.853  21.828  0.00  0.00     0.172 HD
BRANCH  24  26
HETATM   26  S   UNK N   1      33.608   7.914  19.936  0.00  0.00     0.230 S 
HETATM   27  O   UNK N   1      34.674   6.948  19.392  0.00  0.00    -0.206 OA
HETATM   28  O   UNK N   1      33.397   8.779  18.688  0.00  0.00    -0.206 OA
BRANCH  26  29
HETATM   29  C   UNK N   1      31.970   7.187  20.279  0.00  0.00     0.121 C 
HETATM   30  C   UNK N   1      31.691   5.983  19.407  0.00  0.00     0.027 C 
HETATM   31  C   UNK N   1      30.891   8.232  20.069  0.00  0.00     0.027 C 
ENDBRANCH  26  29
ENDBRANCH  24  26
ENDBRANCH  23  24
ENDBRANCH  21  23
ENDBRANCH   1  21
TORSDOF 10
ENDMDL
MODEL 5
REMARK VINA RESULT:      -6.9      9.853     14.045
REMARK  10 active torsions:
REMARK  status: ('A' for Active; 'I' for Inactive)
REMARK    1  A    between atoms: C_2  and  C_3 
REMARK    2  A    between atoms: C_2  and  C_11 
REMARK    3  A    between atoms: C_3  and  N_4 
REMARK    4  A    between atoms: N_4  and  S_5 
REMARK    5  A    between atoms: S_5  and  C_8 
REMARK    6  A    between atoms: C_14  and  C_17 
REMARK    7  A    between atoms: C_20  and  C_23 
REMARK    8  A    between atoms: C_23  and  C_24 
REMARK    9  A    between atoms: C_24  and  N_25 
REMARK   10  A    between atoms: N_25  and  S_26 
ROOT
HETATM    1  C   UNK N   1      26.438  18.433   3.896  0.00  0.00    -0.053 A 
HETATM    2  C   UNK N   1      26.781  17.123   3.514  0.00  0.00     0.008 A 
HETATM    3  C   UNK N   1      28.063  16.631   3.774  0.00  0.00     0.013 A 
HETATM    4  C   UNK N   1      29.017  17.426   4.414  0.00  0.00    -0.026 A 
HETATM    5  C   UNK N   1      28.665  18.729   4.816  0.00  0.00     0.013 A 
HETATM    6  C   UNK N   1      27.385  19.216   4.559  0.00  0.00     0.008 A 
ENDROOT
BRANCH   4   7
HETATM    7  C   UNK N   1      30.385  16.920   4.673  0.00  0.00    -0.026 A 
HETATM    8  C   UNK N   1      31.491  17.612   4.142  0.00  0.00     0.013 A 
HETATM    9  C   UNK N   1      32.783  17.145   4.370  0.00  0.00     0.008 A 
HETATM   10  C   UNK N   1      32.993  15.983   5.111  0.00  0.00    -0.057 A 
HETATM   11  C   UNK N   1      31.901  15.291   5.653  0.00  0.00     0.008 A 
HETATM   12  C   UNK N   1      30.603  15.766   5.434  0.00  0.00     0.013 A 
BRANCH  10  13
HETATM   13  C   UNK N   1      34.384  15.490   5.315  0.00  0.00     0.058 C 
BRANCH  13  14
HETATM   14  C   UNK N   1      34.815  15.596   6.778  0.00  0.00     0.136 C 
BRANCH  14  15
HETATM   15  N   UNK N   1      34.664  16.956   7.309  0.00  0.00    -0.320 N 
HETATM   16  H   UNK N   1      34.807  17.812   6.772  0.00  0.00     0.172 HD
BRANCH  15  17
HETATM   17  S   UNK N   1      34.194  16.899   9.022  0.00  0.00     0.222 S 
HETATM   18  O   UNK N   1      35.283  17.617   9.831  0.00  0.00    -0.206 OA
HETATM   19  O   UNK N   1      35.283  15.815   9.003  0.00  0.00    -0.206 OA
HETATM   20  C   UNK N   1      34.698  18.520   8.373  0.00  0.00     0.185 C 
ENDBRANCH  15  17
ENDBRANCH  14  15
ENDBRANCH  13  14
ENDBRANCH  10  13
ENDBRANCH   4   7
BRANCH   1  21
HETATM   21  C   UNK N   1      25.085  19.023   3.586  0.00  0.00     0.033 C 
HETATM   22  C   UNK N   1      25.158  20.331   2.809  0.00  0.00     0.017 C 
BRANCH  21  23
HETATM   23  C   UNK N   1      24.303  19.237   4.886  0.00  0.00     0.141 C 
BRANCH  23  24
HETATM   24  N   UNK N   1      23.777  17.964   5.365  0.00  0.00    -0.319 N 
HETATM   25  H   UNK N   1      24.354  17.173   5.649  0.00  0.00     0.172 HD
BRANCH  24  26
HETATM   26  S   UNK N   1      21.996  17.971   5.386  0.00  0.00     0.230 S 
HETATM   27  O   UNK N   1      21.529  18.612   6.703  0.00  0.00    -0.206 OA
HETATM   28  O   UNK N   1      21.730  16.498   5.720  0.00  0.00    -0.206 OA
BRANCH  26  29
HETATM   29  C   UNK N   1      20.962  18.308   3.921  0.00  0.00     0.121 C 
HETATM   30  C   UNK N   1      21.119  17.242   2.860  0.00  0.00     0.027 C 
HETATM   31  C   UNK N   1      21.321  19.664   3.341  0.00  0.00     0.027 C 
ENDBRANCH  26  29
ENDBRANCH  24  26
ENDBRANCH  23  24
ENDBRANCH  21  23
ENDBRANCH   1  21
TORSDOF 10
ENDMDL
MODEL 6
REMARK VINA RESULT:      -6.9      7.332     14.843
REMARK  10 active torsions:
REMARK  status: ('A' for Active; 'I' for Inactive)
REMARK    1  A    between atoms: C_2  and  C_3 
REMARK    2  A    between atoms: C_2  and  C_11 
REMARK    3  A    between atoms: C_3  and  N_4 
REMARK    4  A    between atoms: N_4  and  S_5 
REMARK    5  A    between atoms: S_5  and  C_8 
REMARK    6  A    between atoms: C_14  and  C_17 
REMARK    7  A    between atoms: C_20  and  C_23 
REMARK    8  A    between atoms: C_23  and  C_24 
REMARK    9  A    between atoms: C_24  and  N_25 
REMARK   10  A    between atoms: N_25  and  S_26 
ROOT
HETATM    1  C   UNK N   1      31.295  17.416   7.864  0.00  0.00    -0.053 A 
HETATM    2  C   UNK N   1      31.112  16.861   6.583  0.00  0.00     0.008 A 
HETATM    3  C   UNK N   1      29.845  16.871   5.992  0.00  0.00     0.013 A 
HETATM    4  C   UNK N   1      28.750  17.429   6.657  0.00  0.00    -0.026 A 
HETATM    5  C   UNK N   1      28.941  18.003   7.928  0.00  0.00     0.013 A 
HETATM    6  C   UNK N   1      30.205  17.996   8.515  0.00  0.00     0.008 A 
ENDROOT
BRANCH   4   7
HETATM    7  C   UNK N   1      27.401  17.423   6.046  0.00  0.00    -0.026 A 
HETATM    8  C   UNK N   1      26.931  18.579   5.393  0.00  0.00     0.013 A 
HETATM    9  C   UNK N   1      25.662  18.592   4.821  0.00  0.00     0.008 A 
HETATM   10  C   UNK N   1      24.840  17.469   4.901  0.00  0.00    -0.057 A 
HETATM   11  C   UNK N   1      25.299  16.309   5.539  0.00  0.00     0.008 A 
HETATM   12  C   UNK N   1      26.579  16.291   6.105  0.00  0.00     0.013 A 
BRANCH  10  13
HETATM   13  C   UNK N   1      23.475  17.521   4.306  0.00  0.00     0.058 C 
BRANCH  13  14
HETATM   14  C   UNK N   1      23.080  18.946   3.917  0.00  0.00     0.136 C 
BRANCH  14  15
HETATM   15  N   UNK N   1      21.916  18.980   3.022  0.00  0.00    -0.320 N 
HETATM   16  H   UNK N   1      21.549  18.177   2.512  0.00  0.00     0.172 HD
BRANCH  15  17
HETATM   17  S   UNK N   1      21.239  20.622   2.957  0.00  0.00     0.222 S 
HETATM   18  O   UNK N   1      21.270  21.084   1.493  0.00  0.00    -0.206 OA
HETATM   19  O   UNK N   1      22.736  20.941   2.822  0.00  0.00    -0.206 OA
HETATM   20  C   UNK N   1      20.586  19.427   1.754  0.00  0.00     0.185 C 
ENDBRANCH  15  17
ENDBRANCH  14  15
ENDBRANCH  13  14
ENDBRANCH  10  13
ENDBRANCH   4   7
BRANCH   1  21
HETATM   21  C   UNK N   1      32.631  17.377   8.561  0.00  0.00     0.033 C 
HETATM   22  C   UNK N   1      33.662  18.318   7.949  0.00  0.00     0.017 C 
BRANCH  21  23
HETATM   23  C   UNK N   1      33.176  15.945   8.562  0.00  0.00     0.141 C 
BRANCH  23  24
HETATM   24  N   UNK N   1      34.626  15.965   8.709  0.00  0.00    -0.319 N 
HETATM   25  H   UNK N   1      35.278  16.184   7.956  0.00  0.00     0.172 HD
BRANCH  24  26
HETATM   26  S   UNK N   1      35.110  15.558  10.374  0.00  0.00     0.230 S 
HETATM   27  O   UNK N   1      33.867  15.070  11.135  0.00  0.00    -0.206 OA
HETATM   28  O   UNK N   1      35.228  16.966  10.967  0.00  0.00    -0.206 OA
BRANCH  26  29
HETATM   29  C   UNK N   1      36.683  14.739  10.804  0.00  0.00     0.121 C 
HETATM   30  C   UNK N   1      37.195  13.870   9.677  0.00  0.00     0.027 C 
HETATM   31  C   UNK N   1      36.500  13.901  12.055  0.00  0.00     0.027 C 
ENDBRANCH  26  29
ENDBRANCH  24  26
ENDBRANCH  23  24
ENDBRANCH  21  23
ENDBRANCH   1  21
TORSDOF 10
ENDMDL
MODEL 7
REMARK VINA RESULT:      -6.8      5.828      9.892
REMARK  10 active torsions:
REMARK  status: ('A' for Active; 'I' for Inactive)
REMARK    1  A    between atoms: C_2  and  C_3 
REMARK    2  A    between atoms: C_2  and  C_11 
REMARK    3  A    between atoms: C_3  and  N_4 
REMARK    4  A    between atoms: N_4  and  S_5 
REMARK    5  A    between atoms: S_5  and  C_8 
REMARK    6  A    between atoms: C_14  and  C_17 
REMARK    7  A    between atoms: C_20  and  C_23 
REMARK    8  A    between atoms: C_23  and  C_24 
REMARK    9  A    between atoms: C_24  and  N_25 
REMARK   10  A    between atoms: N_25  and  S_26 
ROOT
HETATM    1  C   UNK N   1      29.537  17.423   6.011  0.00  0.00    -0.053 A 
HETATM    2  C   UNK N   1      29.471  17.697   7.390  0.00  0.00     0.008 A 
HETATM    3  C   UNK N   1      30.559  17.397   8.216  0.00  0.00     0.013 A 
HETATM    4  C   UNK N   1      31.720  16.825   7.689  0.00  0.00    -0.026 A 
HETATM    5  C   UNK N   1      31.793  16.573   6.306  0.00  0.00     0.013 A 
HETATM    6  C   UNK N   1      30.709  16.876   5.483  0.00  0.00     0.008 A 
ENDROOT
BRANCH   4   7
HETATM    7  C   UNK N   1      32.867  16.484   8.561  0.00  0.00    -0.026 A 
HETATM    8  C   UNK N   1      33.881  17.438   8.777  0.00  0.00     0.013 A 
HETATM    9  C   UNK N   1      34.970  17.129   9.588  0.00  0.00     0.008 A 
HETATM   10  C   UNK N   1      35.076  15.871  10.180  0.00  0.00    -0.057 A 
HETATM   11  C   UNK N   1      34.069  14.917   9.980  0.00  0.00     0.008 A 
HETATM   12  C   UNK N   1      32.968  15.231   9.175  0.00  0.00     0.013 A 
BRANCH  10  13
HETATM   13  C   UNK N   1      36.267  15.558  11.018  0.00  0.00     0.058 C 
BRANCH  13  14
HETATM   14  C   UNK N   1      35.867  15.046  12.402  0.00  0.00     0.136 C 
BRANCH  14  15
HETATM   15  N   UNK N   1      36.746  13.971  12.877  0.00  0.00    -0.320 N 
HETATM   16  H   UNK N   1      37.692  13.798  12.537  0.00  0.00     0.172 HD
BRANCH  15  17
HETATM   17  S   UNK N   1      35.925  13.013  14.129  0.00  0.00     0.222 S 
HETATM   18  O   UNK N   1      35.486  11.687  13.492  0.00  0.00    -0.206 OA
HETATM   19  O   UNK N   1      34.712  13.505  13.325  0.00  0.00    -0.206 OA
HETATM   20  C   UNK N   1      37.204  12.157  13.161  0.00  0.00     0.185 C 
ENDBRANCH  15  17
ENDBRANCH  14  15
ENDBRANCH  13  14
ENDBRANCH  10  13
ENDBRANCH   4   7
BRANCH   1  21
HETATM   21  C   UNK N   1      28.369  17.680   5.094  0.00  0.00     0.033 C 
HETATM   22  C   UNK N   1      28.551  17.090   3.701  0.00  0.00     0.017 C 
BRANCH  21  23
HETATM   23  C   UNK N   1      28.114  19.187   4.987  0.00  0.00     0.141 C 
BRANCH  23  24
HETATM   24  N   UNK N   1      27.618  19.513   3.656  0.00  0.00    -0.319 N 
HETATM   25  H   UNK N   1      28.198  19.546   2.817  0.00  0.00     0.172 HD
BRANCH  24  26
HETATM   26  S   UNK N   1      25.869  19.848   3.684  0.00  0.00     0.230 S 
HETATM   27  O   UNK N   1      25.516  20.688   2.446  0.00  0.00    -0.206 OA
HETATM   28  O   UNK N   1      25.828  20.947   4.751  0.00  0.00    -0.206 OA
BRANCH  26  29
HETATM   29  C   UNK N   1      24.611  18.638   4.215  0.00  0.00     0.121 C 
HETATM   30  C   UNK N   1      24.872  17.262   3.645  0.00  0.00     0.027 C 
HETATM   31  C   UNK N   1      23.233  19.113   3.795  0.00  0.00     0.027 C 
ENDBRANCH  26  29
ENDBRANCH  24  26
ENDBRANCH  23  24
ENDBRANCH  21  23
ENDBRANCH   1  21
TORSDOF 10
ENDMDL
MODEL 8
REMARK VINA RESULT:      -6.8      7.628     13.683
REMARK  10 active torsions:
REMARK  status: ('A' for Active; 'I' for Inactive)
REMARK    1  A    between atoms: C_2  and  C_3 
REMARK    2  A    between atoms: C_2  and  C_11 
REMARK    3  A    between atoms: C_3  and  N_4 
REMARK    4  A    between atoms: N_4  and  S_5 
REMARK    5  A    between atoms: S_5  and  C_8 
REMARK    6  A    between atoms: C_14  and  C_17 
REMARK    7  A    between atoms: C_20  and  C_23 
REMARK    8  A    between atoms: C_23  and  C_24 
REMARK    9  A    between atoms: C_24  and  N_25 
REMARK   10  A    between atoms: N_25  and  S_26 
ROOT
HETATM    1  C   UNK N   1      26.204  18.639   3.830  0.00  0.00    -0.053 A 
HETATM    2  C   UNK N   1      26.624  17.296   3.854  0.00  0.00     0.008 A 
HETATM    3  C   UNK N   1      27.870  16.962   4.393  0.00  0.00     0.013 A 
HETATM    4  C   UNK N   1      28.712  17.948   4.913  0.00  0.00    -0.026 A 
HETATM    5  C   UNK N   1      28.280  19.288   4.909  0.00  0.00     0.013 A 
HETATM    6  C   UNK N   1      27.037  19.619   4.374  0.00  0.00     0.008 A 
ENDROOT
BRANCH   4   7
HETATM    7  C   UNK N   1      30.042  17.604   5.465  0.00  0.00    -0.026 A 
HETATM    8  C   UNK N   1      30.172  17.335   6.841  0.00  0.00     0.013 A 
HETATM    9  C   UNK N   1      31.418  17.018   7.377  0.00  0.00     0.008 A 
HETATM   10  C   UNK N   1      32.548  16.979   6.562  0.00  0.00    -0.057 A 
HETATM   11  C   UNK N   1      32.430  17.235   5.189  0.00  0.00     0.008 A 
HETATM   12  C   UNK N   1      31.176  17.542   4.648  0.00  0.00     0.013 A 
BRANCH  10  13
HETATM   13  C   UNK N   1      33.872  16.666   7.167  0.00  0.00     0.058 C 
BRANCH  13  14
HETATM   14  C   UNK N   1      34.037  17.318   8.540  0.00  0.00     0.136 C 
BRANCH  14  15
HETATM   15  N   UNK N   1      33.948  16.345   9.636  0.00  0.00    -0.320 N 
HETATM   16  H   UNK N   1      33.079  15.988  10.031  0.00  0.00     0.172 HD
BRANCH  15  17
HETATM   17  S   UNK N   1      35.576  15.877  10.175  0.00  0.00     0.222 S 
HETATM   18  O   UNK N   1      35.586  15.898  11.711  0.00  0.00    -0.206 OA
HETATM   19  O   UNK N   1      35.638  17.394  10.409  0.00  0.00    -0.206 OA
HETATM   20  C   UNK N   1      34.182  15.024  10.969  0.00  0.00     0.185 C 
ENDBRANCH  15  17
ENDBRANCH  14  15
ENDBRANCH  13  14
ENDBRANCH  10  13
ENDBRANCH   4   7
BRANCH   1  21
HETATM   21  C   UNK N   1      24.894  19.050   3.209  0.00  0.00     0.033 C 
HETATM   22  C   UNK N   1      24.903  20.472   2.662  0.00  0.00     0.017 C 
BRANCH  21  23
HETATM   23  C   UNK N   1      23.764  18.898   4.233  0.00  0.00     0.141 C 
BRANCH  23  24
HETATM   24  N   UNK N   1      22.474  18.908   3.554  0.00  0.00    -0.319 N 
HETATM   25  H   UNK N   1      22.111  19.695   3.017  0.00  0.00     0.172 HD
BRANCH  24  26
HETATM   26  S   UNK N   1      21.613  17.366   3.785  0.00  0.00     0.230 S 
HETATM   27  O   UNK N   1      22.486  16.233   3.221  0.00  0.00    -0.206 OA
HETATM   28  O   UNK N   1      20.580  17.468   2.657  0.00  0.00    -0.206 OA
BRANCH  26  29
HETATM   29  C   UNK N   1      20.637  16.958   5.273  0.00  0.00     0.121 C 
HETATM   30  C   UNK N   1      21.189  17.627   6.511  0.00  0.00     0.027 C 
HETATM   31  C   UNK N   1      20.609  15.455   5.472  0.00  0.00     0.027 C 
ENDBRANCH  26  29
ENDBRANCH  24  26
ENDBRANCH  23  24
ENDBRANCH  21  23
ENDBRANCH   1  21
TORSDOF 10
ENDMDL
MODEL 9
REMARK VINA RESULT:      -6.7      4.872     12.278
REMARK  10 active torsions:
REMARK  status: ('A' for Active; 'I' for Inactive)
REMARK    1  A    between atoms: C_2  and  C_3 
REMARK    2  A    between atoms: C_2  and  C_11 
REMARK    3  A    between atoms: C_3  and  N_4 
REMARK    4  A    between atoms: N_4  and  S_5 
REMARK    5  A    between atoms: S_5  and  C_8 
REMARK    6  A    between atoms: C_14  and  C_17 
REMARK    7  A    between atoms: C_20  and  C_23 
REMARK    8  A    between atoms: C_23  and  C_24 
REMARK    9  A    between atoms: C_24  and  N_25 
REMARK   10  A    between atoms: N_25  and  S_26 
ROOT
HETATM    1  C   UNK N   1      36.311  14.607   9.471  0.00  0.00    -0.053 A 
HETATM    2  C   UNK N   1      36.067  14.127   8.171  0.00  0.00     0.008 A 
HETATM    3  C   UNK N   1      35.004  14.643   7.423  0.00  0.00     0.013 A 
HETATM    4  C   UNK N   1      34.175  15.636   7.950  0.00  0.00    -0.026 A 
HETATM    5  C   UNK N   1      34.434  16.130   9.243  0.00  0.00     0.013 A 
HETATM    6  C   UNK N   1      35.496  15.617   9.986  0.00  0.00     0.008 A 
ENDROOT
BRANCH   4   7
HETATM    7  C   UNK N   1      33.034  16.171   7.173  0.00  0.00    -0.026 A 
HETATM    8  C   UNK N   1      33.273  16.799   5.935  0.00  0.00     0.013 A 
HETATM    9  C   UNK N   1      32.211  17.315   5.196  0.00  0.00     0.008 A 
HETATM   10  C   UNK N   1      30.907  17.227   5.679  0.00  0.00    -0.057 A 
HETATM   11  C   UNK N   1      30.654  16.596   6.904  0.00  0.00     0.008 A 
HETATM   12  C   UNK N   1      31.719  16.067   7.642  0.00  0.00     0.013 A 
BRANCH  10  13
HETATM   13  C   UNK N   1      29.793  17.813   4.881  0.00  0.00     0.058 C 
BRANCH  13  14
HETATM   14  C   UNK N   1      28.475  17.803   5.654  0.00  0.00     0.136 C 
BRANCH  14  15
HETATM   15  N   UNK N   1      28.017  19.156   5.997  0.00  0.00    -0.320 N 
HETATM   16  H   UNK N   1      28.124  19.594   6.911  0.00  0.00     0.172 HD
BRANCH  15  17
HETATM   17  S   UNK N   1      27.249  19.920   4.588  0.00  0.00     0.222 S 
HETATM   18  O   UNK N   1      26.020  20.694   5.086  0.00  0.00    -0.206 OA
HETATM   19  O   UNK N   1      26.285  18.747   4.819  0.00  0.00    -0.206 OA
HETATM   20  C   UNK N   1      27.538  20.986   6.031  0.00  0.00     0.185 C 
ENDBRANCH  15  17
ENDBRANCH  14  15
ENDBRANCH  13  14
ENDBRANCH  10  13
ENDBRANCH   4   7
BRANCH   1  21
HETATM   21  C   UNK N   1      37.411  14.041  10.333  0.00  0.00     0.033 C 
HETATM   22  C   UNK N   1      38.573  13.468   9.532  0.00  0.00     0.017 C 
BRANCH  21  23
HETATM   23  C   UNK N   1      36.841  12.961  11.259  0.00  0.00     0.141 C 
BRANCH  23  24
HETATM   24  N   UNK N   1      37.416  13.096  12.592  0.00  0.00    -0.319 N 
HETATM   25  H   UNK N   1      38.399  12.940  12.813  0.00  0.00     0.172 HD
BRANCH  24  26
HETATM   26  S   UNK N   1      36.178  13.566  13.783  0.00  0.00     0.230 S 
HETATM   27  O   UNK N   1      34.830  13.696  13.057  0.00  0.00    -0.206 OA
HETATM   28  O   UNK N   1      36.518  15.052  13.944  0.00  0.00    -0.206 OA
BRANCH  26  29
HETATM   29  C   UNK N   1      36.110  12.919  15.488  0.00  0.00     0.121 C 
HETATM   30  C   UNK N   1      36.595  11.489  15.570  0.00  0.00     0.027 C 
HETATM   31  C   UNK N   1      34.689  13.009  16.014  0.00  0.00     0.027 C 
ENDBRANCH  26  29
ENDBRANCH  24  26
ENDBRANCH  23  24
ENDBRANCH  21  23
ENDBRANCH   1  21
TORSDOF 10
ENDMDL
