MODEL 1
REMARK VINA RESULT:      -7.6      0.000      0.000
REMARK  22 active torsions:
REMARK  status: ('A' for Active; 'I' for Inactive)
REMARK    1  A    between atoms: C_2  and  C_3 
REMARK    2  A    between atoms: C_5  and  C_3 
REMARK    3  A    between atoms: C_9  and  C_67 
REMARK    4  A    between atoms: C_13  and  C_63 
REMARK    5  A    between atoms: C_17  and  C_38 
REMARK    6  A    between atoms: C_22  and  N_37 
REMARK    7  A    between atoms: C_26  and  C_30 
REMARK    8  A    between atoms: C_30  and  C_31 
REMARK       I    between atoms: C_38  and  N_40 
REMARK    9  A    between atoms: C_44  and  C_45 
REMARK       I    between atoms: C_45  and  N_47 
REMARK   10  A    between atoms: C_48  and  N_47 
REMARK   11  A    between atoms: C_48  and  C_49 
REMARK   12  A    between atoms: C_48  and  C_56 
REMARK   13  A    between atoms: C_49  and  C_50 
REMARK   14  A    between atoms: C_50  and  C_51 
REMARK   15  A    between atoms: C_51  and  N_52 
REMARK   16  A    between atoms: N_52  and  C_53 
REMARK       I    between atoms: C_56  and  N_58 
REMARK   17  A    between atoms: N_58  and  C_59 
REMARK   18  A    between atoms: C_59  and  C_60 
REMARK       I    between atoms: C_60  and  N_62 
REMARK   19  A    between atoms: C_63  and  C_64 
REMARK       I    between atoms: C_64  and  N_66 
REMARK   20  A    between atoms: C_67  and  C_68 
REMARK   21  A    between atoms: C_68  and  C_69 
REMARK   22  A    between atoms: C_69  and  C_70 
REMARK       I    between atoms: C_70  and  N_72 
ROOT
HETATM    1  C   UNK N   1      24.931  16.135   4.227  0.00  0.00     0.180 C 
HETATM    2  C   UNK N   1      25.320  17.440   4.899  0.00  0.00     0.241 C 
HETATM    3  O   UNK N   1      24.727  18.469   4.604  0.00  0.00    -0.271 OA
HETATM    4  N   UNK N   1      26.297  17.505   5.830  0.00  0.00    -0.346 N 
HETATM    5  C   UNK N   1      27.269  16.458   6.049  0.00  0.00     0.176 C 
HETATM    6  C   UNK N   1      28.211  16.419   4.861  0.00  0.00     0.241 C 
HETATM    7  O   UNK N   1      28.003  17.152   3.903  0.00  0.00    -0.271 OA
HETATM    8  N   UNK N   1      29.272  15.572   4.840  0.00  0.00    -0.346 N 
HETATM    9  C   UNK N   1      30.123  15.443   3.667  0.00  0.00     0.185 C 
HETATM   10  C   UNK N   1      31.189  14.406   3.874  0.00  0.00     0.241 C 
HETATM   11  O   UNK N   1      32.365  14.685   3.686  0.00  0.00    -0.271 OA
HETATM   12  N   UNK N   1      30.831  13.147   4.239  0.00  0.00    -0.345 N 
HETATM   13  C   UNK N   1      31.776  12.070   4.438  0.00  0.00     0.186 C 
HETATM   14  C   UNK N   1      31.042  10.786   4.787  0.00  0.00     0.120 C 
HETATM   15  S   UNK N   1      30.863   9.701   3.318  0.00  0.00    -0.095 SA
HETATM   16  S   UNK N   1      30.535  11.270   1.880  0.00  0.00    -0.095 SA
HETATM   17  C   UNK N   1      28.705  11.397   1.933  0.00  0.00     0.120 C 
HETATM   18  C   UNK N   1      28.002  11.401   3.296  0.00  0.00     0.177 C 
HETATM   19  C   UNK N   1      27.877  12.603   4.213  0.00  0.00     0.241 C 
HETATM   20  O   UNK N   1      28.465  12.588   5.282  0.00  0.00    -0.271 OA
HETATM   21  N   UNK N   1      27.041  13.645   3.946  0.00  0.00    -0.346 N 
HETATM   22  C   UNK N   1      26.205  13.722   2.770  0.00  0.00     0.180 C 
HETATM   23  C   UNK N   1      26.069  15.133   2.219  0.00  0.00     0.241 C 
HETATM   24  O   UNK N   1      26.508  15.339   1.100  0.00  0.00    -0.271 OA
HETATM   25  N   UNK N   1      25.427  16.157   2.863  0.00  0.00    -0.346 N 
HETATM   26  H   UNK N   1      26.351  18.312   6.391  0.00  0.00     0.163 HD
HETATM   27  H   UNK N   1      29.471  15.033   5.639  0.00  0.00     0.163 HD
HETATM   28  H   UNK N   1      29.874  12.958   4.377  0.00  0.00     0.163 HD
HETATM   29  H   UNK N   1      27.004  14.389   4.590  0.00  0.00     0.163 HD
HETATM   30  H   UNK N   1      25.288  16.987   2.353  0.00  0.00     0.163 HD
ENDROOT
BRANCH  13  31
HETATM   31  C   UNK N   1      32.759  12.480   5.460  0.00  0.00     0.244 C 
HETATM   32  O   UNK N   1      32.355  13.006   6.490  0.00  0.00    -0.271 OA
HETATM   33  N   UNK N   1      34.093  12.361   5.193  0.00  0.00    -0.337 N 
HETATM   34  C   UNK N   1      34.576  11.487   4.169  0.00  0.00     0.127 C 
HETATM   35  C   UNK N   1      35.174  12.861   5.979  0.00  0.00     0.179 C 
HETATM   36  C   UNK N   1      35.840  10.900   4.819  0.00  0.00     0.022 C 
HETATM   37  C   UNK N   1      36.032  11.639   6.169  0.00  0.00     0.037 C 
BRANCH  35  38
HETATM   38  C   UNK N   1      34.808  13.800   7.089  0.00  0.00     0.241 C 
HETATM   39  O   UNK N   1      34.634  14.990   6.883  0.00  0.00    -0.271 OA
HETATM   40  N   UNK N   1      34.691  13.276   8.335  0.00  0.00    -0.346 N 
HETATM   41  H   UNK N   1      34.804  12.303   8.434  0.00  0.00     0.163 HD
BRANCH  40  42
HETATM   42  C   UNK N   1      34.411  14.042   9.527  0.00  0.00     0.176 C 
BRANCH  42  43
HETATM   43  C   UNK N   1      35.686  14.713  10.036  0.00  0.00     0.036 C 
BRANCH  43  44
HETATM   44  C   UNK N   1      36.837  13.731  10.229  0.00  0.00     0.022 C 
BRANCH  44  45
HETATM   45  C   UNK N   1      36.563  12.853  11.440  0.00  0.00     0.114 C 
BRANCH  45  46
HETATM   46  N   UNK N   1      37.202  13.384  12.645  0.00  0.00    -0.418 N 
HETATM   47  H   UNK N   1      38.209  13.413  12.805  0.00  0.00     0.153 HD
BRANCH  46  48
HETATM   48  C   UNK N   1      36.193  13.870  13.587  0.00  0.00     0.068 C 
HETATM   49  C   UNK N   1      35.175  12.778  13.842  0.00  0.00     0.031 C 
HETATM   50  C   UNK N   1      36.815  14.279  14.912  0.00  0.00     0.031 C 
ENDBRANCH  46  48
ENDBRANCH  45  46
ENDBRANCH  44  45
ENDBRANCH  43  44
ENDBRANCH  42  43
BRANCH  42  51
HETATM   51  C   UNK N   1      33.186  14.922   9.294  0.00  0.00     0.240 C 
HETATM   52  O   UNK N   1      32.115  14.365   9.125  0.00  0.00    -0.271 OA
HETATM   53  N   UNK N   1      33.205  16.282   9.271  0.00  0.00    -0.351 N 
HETATM   54  H   UNK N   1      32.341  16.736   9.146  0.00  0.00     0.163 HD
BRANCH  53  55
HETATM   55  C   UNK N   1      34.368  17.126   9.410  0.00  0.00     0.225 C 
BRANCH  55  56
HETATM   56  C   UNK N   1      34.450  18.144   8.316  0.00  0.00     0.233 C 
HETATM   57  O   UNK N   1      35.230  19.081   8.387  0.00  0.00    -0.272 OA
HETATM   58  N   UNK N   1      33.651  18.022   7.239  0.00  0.00    -0.369 N 
HETATM   59  H   UNK N   1      33.521  17.224   6.678  0.00  0.00     0.159 HD
HETATM   60  H   UNK N   1      33.137  18.823   6.984  0.00  0.00     0.159 HD
ENDBRANCH  55  56
ENDBRANCH  53  55
ENDBRANCH  42  51
ENDBRANCH  40  42
ENDBRANCH  35  38
ENDBRANCH  13  31
BRANCH   9  61
HETATM   61  C   UNK N   1      30.674  16.791   3.152  0.00  0.00     0.137 C 
BRANCH  61  62
HETATM   62  C   UNK N   1      31.604  17.502   4.090  0.00  0.00     0.217 C 
HETATM   63  O   UNK N   1      31.208  17.879   5.179  0.00  0.00    -0.274 OA
HETATM   64  N   UNK N   1      32.854  17.801   3.694  0.00  0.00    -0.370 N 
HETATM   65  H   UNK N   1      33.336  17.411   2.929  0.00  0.00     0.159 HD
HETATM   66  H   UNK N   1      33.337  18.477   4.223  0.00  0.00     0.159 HD
ENDBRANCH  61  62
ENDBRANCH   9  61
BRANCH  18  67
HETATM   67  N   UNK N   1      27.993  10.119   3.980  0.00  0.00    -0.418 N 
HETATM   68  H   UNK N   1      28.416   9.545   4.710  0.00  0.00     0.150 HD
HETATM   69  H   UNK N   1      27.256   9.559   3.552  0.00  0.00     0.150 HD
ENDBRANCH  18  67
BRANCH   5  70
HETATM   70  C   UNK N   1      28.015  16.731   7.356  0.00  0.00     0.035 C 
BRANCH  70  71
HETATM   71  C   UNK N   1      28.336  18.207   7.548  0.00  0.00     0.012 C 
BRANCH  71  72
HETATM   72  C   UNK N   1      28.618  18.494   9.011  0.00  0.00     0.103 C 
BRANCH  72  73
HETATM   73  C   UNK N   1      29.873  17.809   9.440  0.00  0.00     0.215 C 
HETATM   74  O   UNK N   1      30.927  18.077   8.892  0.00  0.00    -0.274 OA
HETATM   75  N   UNK N   1      29.845  16.903  10.438  0.00  0.00    -0.370 N 
HETATM   76  H   UNK N   1      29.392  16.066  10.688  0.00  0.00     0.159 HD
HETATM   77  H   UNK N   1      30.483  17.161  11.142  0.00  0.00     0.159 HD
ENDBRANCH  72  73
ENDBRANCH  71  72
ENDBRANCH  70  71
ENDBRANCH   5  70
BRANCH  22  78
HETATM   78  C   UNK N   1      24.840  13.119   3.050  0.00  0.00     0.073 C 
BRANCH  78  79
HETATM   79  C   UNK N   1      24.295  12.367   1.890  0.00  0.00    -0.056 A 
HETATM   80  C   UNK N   1      24.791  11.098   1.578  0.00  0.00     0.007 A 
HETATM   81  C   UNK N   1      24.274  10.395   0.486  0.00  0.00     0.001 A 
HETATM   82  C   UNK N   1      23.247  10.953  -0.281  0.00  0.00     0.000 A 
HETATM   83  C   UNK N   1      22.732  12.211   0.048  0.00  0.00     0.001 A 
HETATM   84  C   UNK N   1      23.258  12.919   1.133  0.00  0.00     0.007 A 
ENDBRANCH  78  79
ENDBRANCH  22  78
BRANCH   1  85
HETATM   85  C   UNK N   1      23.382  16.086   4.303  0.00  0.00     0.013 C 
HETATM   86  C   UNK N   1      22.935  14.964   5.227  0.00  0.00     0.012 C 
BRANCH  85  87
HETATM   87  C   UNK N   1      22.638  15.950   2.989  0.00  0.00     0.002 C 
HETATM   88  C   UNK N   1      21.299  15.268   3.194  0.00  0.00     0.005 C 
ENDBRANCH  85  87
ENDBRANCH   1  85
TORSDOF 22
ENDMDL
MODEL 2
REMARK VINA RESULT:      -7.5      1.377      2.842
REMARK  22 active torsions:
REMARK  status: ('A' for Active; 'I' for Inactive)
REMARK    1  A    between atoms: C_2  and  C_3 
REMARK    2  A    between atoms: C_5  and  C_3 
REMARK    3  A    between atoms: C_9  and  C_67 
REMARK    4  A    between atoms: C_13  and  C_63 
REMARK    5  A    between atoms: C_17  and  C_38 
REMARK    6  A    between atoms: C_22  and  N_37 
REMARK    7  A    between atoms: C_26  and  C_30 
REMARK    8  A    between atoms: C_30  and  C_31 
REMARK       I    between atoms: C_38  and  N_40 
REMARK    9  A    between atoms: C_44  and  C_45 
REMARK       I    between atoms: C_45  and  N_47 
REMARK   10  A    between atoms: C_48  and  N_47 
REMARK   11  A    between atoms: C_48  and  C_49 
REMARK   12  A    between atoms: C_48  and  C_56 
REMARK   13  A    between atoms: C_49  and  C_50 
REMARK   14  A    between atoms: C_50  and  C_51 
REMARK   15  A    between atoms: C_51  and  N_52 
REMARK   16  A    between atoms: N_52  and  C_53 
REMARK       I    between atoms: C_56  and  N_58 
REMARK   17  A    between atoms: N_58  and  C_59 
REMARK   18  A    between atoms: C_59  and  C_60 
REMARK       I    between atoms: C_60  and  N_62 
REMARK   19  A    between atoms: C_63  and  C_64 
REMARK       I    between atoms: C_64  and  N_66 
REMARK   20  A    between atoms: C_67  and  C_68 
REMARK   21  A    between atoms: C_68  and  C_69 
REMARK   22  A    between atoms: C_69  and  C_70 
REMARK       I    between atoms: C_70  and  N_72 
ROOT
HETATM    1  C   UNK N   1      24.972  16.782   4.419  0.00  0.00     0.180 C 
HETATM    2  C   UNK N   1      25.668  18.008   4.987  0.00  0.00     0.241 C 
HETATM    3  O   UNK N   1      25.233  19.121   4.725  0.00  0.00    -0.271 OA
HETATM    4  N   UNK N   1      26.751  17.911   5.788  0.00  0.00    -0.346 N 
HETATM    5  C   UNK N   1      27.542  16.710   5.929  0.00  0.00     0.176 C 
HETATM    6  C   UNK N   1      28.304  16.481   4.638  0.00  0.00     0.241 C 
HETATM    7  O   UNK N   1      28.109  17.223   3.683  0.00  0.00    -0.271 OA
HETATM    8  N   UNK N   1      29.187  15.457   4.521  0.00  0.00    -0.346 N 
HETATM    9  C   UNK N   1      29.846  15.155   3.259  0.00  0.00     0.185 C 
HETATM   10  C   UNK N   1      30.729  13.947   3.376  0.00  0.00     0.241 C 
HETATM   11  O   UNK N   1      31.902  14.006   3.035  0.00  0.00    -0.271 OA
HETATM   12  N   UNK N   1      30.204  12.780   3.833  0.00  0.00    -0.345 N 
HETATM   13  C   UNK N   1      30.961  11.554   3.958  0.00  0.00     0.186 C 
HETATM   14  C   UNK N   1      30.062  10.429   4.444  0.00  0.00     0.120 C 
HETATM   15  S   UNK N   1      29.510   9.369   3.053  0.00  0.00    -0.095 SA
HETATM   16  S   UNK N   1      29.284  10.945   1.604  0.00  0.00    -0.095 SA
HETATM   17  C   UNK N   1      27.526  11.402   1.874  0.00  0.00     0.120 C 
HETATM   18  C   UNK N   1      27.014  11.556   3.312  0.00  0.00     0.177 C 
HETATM   19  C   UNK N   1      27.221  12.777   4.188  0.00  0.00     0.241 C 
HETATM   20  O   UNK N   1      27.929  12.675   5.177  0.00  0.00    -0.271 OA
HETATM   21  N   UNK N   1      26.555  13.949   3.983  0.00  0.00    -0.346 N 
HETATM   22  C   UNK N   1      25.604  14.154   2.916  0.00  0.00     0.180 C 
HETATM   23  C   UNK N   1      25.650  15.556   2.329  0.00  0.00     0.241 C 
HETATM   24  O   UNK N   1      25.973  15.661   1.158  0.00  0.00    -0.271 OA
HETATM   25  N   UNK N   1      25.287  16.690   3.006  0.00  0.00    -0.346 N 
HETATM   26  H   UNK N   1      27.017  18.705   6.306  0.00  0.00     0.163 HD
HETATM   27  H   UNK N   1      29.388  14.904   5.311  0.00  0.00     0.163 HD
HETATM   28  H   UNK N   1      29.254  12.769   4.093  0.00  0.00     0.163 HD
HETATM   29  H   UNK N   1      26.733  14.697   4.597  0.00  0.00     0.163 HD
HETATM   30  H   UNK N   1      25.233  17.523   2.483  0.00  0.00     0.163 HD
ENDROOT
BRANCH  13  31
HETATM   31  C   UNK N   1      32.123  11.797   4.835  0.00  0.00     0.244 C 
HETATM   32  O   UNK N   1      31.938  12.316   5.929  0.00  0.00    -0.271 OA
HETATM   33  N   UNK N   1      33.380  11.539   4.370  0.00  0.00    -0.337 N 
HETATM   34  C   UNK N   1      33.603  10.666   3.258  0.00  0.00     0.127 C 
HETATM   35  C   UNK N   1      34.616  11.872   5.002  0.00  0.00     0.179 C 
HETATM   36  C   UNK N   1      34.866   9.906   3.696  0.00  0.00     0.022 C 
HETATM   37  C   UNK N   1      35.338  10.551   5.024  0.00  0.00     0.037 C 
BRANCH  35  38
HETATM   38  C   UNK N   1      34.529  12.792   6.183  0.00  0.00     0.241 C 
HETATM   39  O   UNK N   1      34.587  14.004   6.049  0.00  0.00    -0.271 OA
HETATM   40  N   UNK N   1      34.398  12.223   7.407  0.00  0.00    -0.346 N 
HETATM   41  H   UNK N   1      34.317  11.243   7.450  0.00  0.00     0.163 HD
BRANCH  40  42
HETATM   42  C   UNK N   1      34.366  12.952   8.654  0.00  0.00     0.176 C 
BRANCH  42  43
HETATM   43  C   UNK N   1      33.039  13.694   8.800  0.00  0.00     0.036 C 
BRANCH  43  44
HETATM   44  C   UNK N   1      33.150  14.944   9.667  0.00  0.00     0.022 C 
BRANCH  44  45
HETATM   45  C   UNK N   1      34.211  15.871   9.096  0.00  0.00     0.114 C 
BRANCH  45  46
HETATM   46  N   UNK N   1      33.923  17.273   9.405  0.00  0.00    -0.418 N 
HETATM   47  H   UNK N   1      33.986  17.688  10.335  0.00  0.00     0.153 HD
BRANCH  46  48
HETATM   48  C   UNK N   1      33.535  17.994   8.193  0.00  0.00     0.068 C 
HETATM   49  C   UNK N   1      34.252  17.399   7.000  0.00  0.00     0.031 C 
HETATM   50  C   UNK N   1      32.036  17.918   7.953  0.00  0.00     0.031 C 
ENDBRANCH  46  48
ENDBRANCH  45  46
ENDBRANCH  44  45
ENDBRANCH  43  44
ENDBRANCH  42  43
BRANCH  42  51
HETATM   51  C   UNK N   1      34.800  12.034   9.794  0.00  0.00     0.240 C 
HETATM   52  O   UNK N   1      34.220  10.968   9.913  0.00  0.00    -0.271 OA
HETATM   53  N   UNK N   1      35.792  12.319  10.681  0.00  0.00    -0.351 N 
HETATM   54  H   UNK N   1      36.001  11.629  11.350  0.00  0.00     0.163 HD
BRANCH  53  55
HETATM   55  C   UNK N   1      36.568  13.535  10.736  0.00  0.00     0.225 C 
BRANCH  55  56
HETATM   56  C   UNK N   1      36.402  14.240  12.047  0.00  0.00     0.233 C 
HETATM   57  O   UNK N   1      35.771  15.282  12.123  0.00  0.00    -0.272 OA
HETATM   58  N   UNK N   1      36.957  13.714  13.154  0.00  0.00    -0.369 N 
HETATM   59  H   UNK N   1      36.878  12.789  13.482  0.00  0.00     0.159 HD
HETATM   60  H   UNK N   1      37.506  14.325  13.699  0.00  0.00     0.159 HD
ENDBRANCH  55  56
ENDBRANCH  53  55
ENDBRANCH  42  51
ENDBRANCH  40  42
ENDBRANCH  35  38
ENDBRANCH  13  31
BRANCH   9  61
HETATM   61  C   UNK N   1      30.557  16.373   2.627  0.00  0.00     0.137 C 
BRANCH  61  62
HETATM   62  C   UNK N   1      31.695  16.935   3.427  0.00  0.00     0.217 C 
HETATM   63  O   UNK N   1      31.475  17.589   4.432  0.00  0.00    -0.274 OA
HETATM   64  N   UNK N   1      32.958  16.790   2.987  0.00  0.00    -0.370 N 
HETATM   65  H   UNK N   1      33.271  16.154   2.303  0.00  0.00     0.159 HD
HETATM   66  H   UNK N   1      33.638  17.379   3.389  0.00  0.00     0.159 HD
ENDBRANCH  61  62
ENDBRANCH   9  61
BRANCH  18  67
HETATM   67  N   UNK N   1      26.866  10.309   4.042  0.00  0.00    -0.418 N 
HETATM   68  H   UNK N   1      26.223   9.579   4.349  0.00  0.00     0.150 HD
HETATM   69  H   UNK N   1      27.790  10.059   4.394  0.00  0.00     0.150 HD
ENDBRANCH  18  67
BRANCH   5  70
HETATM   70  C   UNK N   1      28.485  16.867   7.124  0.00  0.00     0.035 C 
BRANCH  70  71
HETATM   71  C   UNK N   1      28.284  18.187   7.857  0.00  0.00     0.012 C 
BRANCH  71  72
HETATM   72  C   UNK N   1      27.957  17.928   9.315  0.00  0.00     0.103 C 
BRANCH  72  73
HETATM   73  C   UNK N   1      29.207  17.904  10.130  0.00  0.00     0.215 C 
HETATM   74  O   UNK N   1      29.792  18.945  10.373  0.00  0.00    -0.274 OA
HETATM   75  N   UNK N   1      29.686  16.737  10.606  0.00  0.00    -0.370 N 
HETATM   76  H   UNK N   1      29.966  15.848  10.290  0.00  0.00     0.159 HD
HETATM   77  H   UNK N   1      29.791  16.793  11.584  0.00  0.00     0.159 HD
ENDBRANCH  72  73
ENDBRANCH  71  72
ENDBRANCH  70  71
ENDBRANCH   5  70
BRANCH  22  78
HETATM   78  C   UNK N   1      24.200  13.812   3.384  0.00  0.00     0.073 C 
BRANCH  78  79
HETATM   79  C   UNK N   1      23.345  13.281   2.292  0.00  0.00    -0.056 A 
HETATM   80  C   UNK N   1      21.957  13.439   2.346  0.00  0.00     0.007 A 
HETATM   81  C   UNK N   1      21.157  12.938   1.315  0.00  0.00     0.001 A 
HETATM   82  C   UNK N   1      21.747  12.298   0.221  0.00  0.00     0.000 A 
HETATM   83  C   UNK N   1      23.137  12.165   0.154  0.00  0.00     0.001 A 
HETATM   84  C   UNK N   1      23.936  12.655   1.191  0.00  0.00     0.007 A 
ENDBRANCH  78  79
ENDBRANCH  22  78
BRANCH   1  85
HETATM   85  C   UNK N   1      23.461  17.015   4.685  0.00  0.00     0.013 C 
HETATM   86  C   UNK N   1      22.969  16.082   5.781  0.00  0.00     0.012 C 
BRANCH  85  87
HETATM   87  C   UNK N   1      22.531  16.889   3.495  0.00  0.00     0.002 C 
HETATM   88  C   UNK N   1      21.097  16.695   3.948  0.00  0.00     0.005 C 
ENDBRANCH  85  87
ENDBRANCH   1  85
TORSDOF 22
ENDMDL
MODEL 3
REMARK VINA RESULT:      -7.3      1.486      1.956
REMARK  22 active torsions:
REMARK  status: ('A' for Active; 'I' for Inactive)
REMARK    1  A    between atoms: C_2  and  C_3 
REMARK    2  A    between atoms: C_5  and  C_3 
REMARK    3  A    between atoms: C_9  and  C_67 
REMARK    4  A    between atoms: C_13  and  C_63 
REMARK    5  A    between atoms: C_17  and  C_38 
REMARK    6  A    between atoms: C_22  and  N_37 
REMARK    7  A    between atoms: C_26  and  C_30 
REMARK    8  A    between atoms: C_30  and  C_31 
REMARK       I    between atoms: C_38  and  N_40 
REMARK    9  A    between atoms: C_44  and  C_45 
REMARK       I    between atoms: C_45  and  N_47 
REMARK   10  A    between atoms: C_48  and  N_47 
REMARK   11  A    between atoms: C_48  and  C_49 
REMARK   12  A    between atoms: C_48  and  C_56 
REMARK   13  A    between atoms: C_49  and  C_50 
REMARK   14  A    between atoms: C_50  and  C_51 
REMARK   15  A    between atoms: C_51  and  N_52 
REMARK   16  A    between atoms: N_52  and  C_53 
REMARK       I    between atoms: C_56  and  N_58 
REMARK   17  A    between atoms: N_58  and  C_59 
REMARK   18  A    between atoms: C_59  and  C_60 
REMARK       I    between atoms: C_60  and  N_62 
REMARK   19  A    between atoms: C_63  and  C_64 
REMARK       I    between atoms: C_64  and  N_66 
REMARK   20  A    between atoms: C_67  and  C_68 
REMARK   21  A    between atoms: C_68  and  C_69 
REMARK   22  A    between atoms: C_69  and  C_70 
REMARK       I    between atoms: C_70  and  N_72 
ROOT
HETATM    1  C   UNK N   1      24.867  16.914   4.475  0.00  0.00     0.180 C 
HETATM    2  C   UNK N   1      25.679  18.087   4.995  0.00  0.00     0.241 C 
HETATM    3  O   UNK N   1      25.309  19.228   4.754  0.00  0.00    -0.271 OA
HETATM    4  N   UNK N   1      26.798  17.915   5.732  0.00  0.00    -0.346 N 
HETATM    5  C   UNK N   1      27.509  16.661   5.833  0.00  0.00     0.176 C 
HETATM    6  C   UNK N   1      28.177  16.377   4.501  0.00  0.00     0.241 C 
HETATM    7  O   UNK N   1      27.980  17.131   3.556  0.00  0.00    -0.271 OA
HETATM    8  N   UNK N   1      28.977  15.293   4.339  0.00  0.00    -0.346 N 
HETATM    9  C   UNK N   1      29.539  14.945   3.042  0.00  0.00     0.185 C 
HETATM   10  C   UNK N   1      30.340  13.677   3.113  0.00  0.00     0.241 C 
HETATM   11  O   UNK N   1      31.492  13.653   2.705  0.00  0.00    -0.271 OA
HETATM   12  N   UNK N   1      29.761  12.551   3.605  0.00  0.00    -0.345 N 
HETATM   13  C   UNK N   1      30.435  11.274   3.693  0.00  0.00     0.186 C 
HETATM   14  C   UNK N   1      29.490  10.217   4.236  0.00  0.00     0.120 C 
HETATM   15  S   UNK N   1      28.784   9.197   2.884  0.00  0.00    -0.095 SA
HETATM   16  S   UNK N   1      28.586  10.784   1.443  0.00  0.00    -0.095 SA
HETATM   17  C   UNK N   1      26.883  11.364   1.812  0.00  0.00     0.120 C 
HETATM   18  C   UNK N   1      26.468  11.555   3.276  0.00  0.00     0.177 C 
HETATM   19  C   UNK N   1      26.811  12.759   4.133  0.00  0.00     0.241 C 
HETATM   20  O   UNK N   1      27.566  12.608   5.080  0.00  0.00    -0.271 OA
HETATM   21  N   UNK N   1      26.219  13.975   3.961  0.00  0.00    -0.346 N 
HETATM   22  C   UNK N   1      25.224  14.246   2.950  0.00  0.00     0.180 C 
HETATM   23  C   UNK N   1      25.334  15.641   2.355  0.00  0.00     0.241 C 
HETATM   24  O   UNK N   1      25.596  15.721   1.166  0.00  0.00    -0.271 OA
HETATM   25  N   UNK N   1      25.092  16.799   3.046  0.00  0.00    -0.346 N 
HETATM   26  H   UNK N   1      27.149  18.688   6.230  0.00  0.00     0.163 HD
HETATM   27  H   UNK N   1      29.184  14.729   5.119  0.00  0.00     0.163 HD
HETATM   28  H   UNK N   1      28.830  12.608   3.920  0.00  0.00     0.163 HD
HETATM   29  H   UNK N   1      26.484  14.710   4.560  0.00  0.00     0.163 HD
HETATM   30  H   UNK N   1      25.067  17.632   2.523  0.00  0.00     0.163 HD
ENDROOT
BRANCH  13  31
HETATM   31  C   UNK N   1      31.660  11.436   4.500  0.00  0.00     0.244 C 
HETATM   32  O   UNK N   1      31.562  11.857   5.646  0.00  0.00    -0.271 OA
HETATM   33  N   UNK N   1      32.878  11.215   3.923  0.00  0.00    -0.337 N 
HETATM   34  C   UNK N   1      33.010  10.442   2.726  0.00  0.00     0.127 C 
HETATM   35  C   UNK N   1      34.160  11.487   4.489  0.00  0.00     0.179 C 
HETATM   36  C   UNK N   1      34.294   9.642   3.001  0.00  0.00     0.022 C 
HETATM   37  C   UNK N   1      34.869  10.167   4.343  0.00  0.00     0.037 C 
BRANCH  35  38
HETATM   38  C   UNK N   1      34.169  12.300   5.748  0.00  0.00     0.241 C 
HETATM   39  O   UNK N   1      34.401  11.790   6.832  0.00  0.00    -0.271 OA
HETATM   40  N   UNK N   1      33.896  13.624   5.636  0.00  0.00    -0.346 N 
HETATM   41  H   UNK N   1      33.755  13.987   4.732  0.00  0.00     0.163 HD
BRANCH  40  42
HETATM   42  C   UNK N   1      33.797  14.541   6.748  0.00  0.00     0.176 C 
BRANCH  42  43
HETATM   43  C   UNK N   1      35.156  15.176   7.033  0.00  0.00     0.036 C 
BRANCH  43  44
HETATM   44  C   UNK N   1      35.825  14.614   8.283  0.00  0.00     0.022 C 
BRANCH  44  45
HETATM   45  C   UNK N   1      35.010  14.986   9.510  0.00  0.00     0.114 C 
BRANCH  45  46
HETATM   46  N   UNK N   1      35.845  15.047  10.712  0.00  0.00    -0.418 N 
HETATM   47  H   UNK N   1      36.307  15.889  11.057  0.00  0.00     0.153 HD
BRANCH  46  48
HETATM   48  C   UNK N   1      35.922  13.732  11.348  0.00  0.00     0.068 C 
HETATM   49  C   UNK N   1      37.350  13.231  11.300  0.00  0.00     0.031 C 
HETATM   50  C   UNK N   1      35.469  13.784  12.798  0.00  0.00     0.031 C 
ENDBRANCH  46  48
ENDBRANCH  45  46
ENDBRANCH  44  45
ENDBRANCH  43  44
ENDBRANCH  42  43
BRANCH  42  51
HETATM   51  C   UNK N   1      32.604  15.470   6.541  0.00  0.00     0.240 C 
HETATM   52  O   UNK N   1      31.511  14.957   6.370  0.00  0.00    -0.271 OA
HETATM   53  N   UNK N   1      32.674  16.829   6.542  0.00  0.00    -0.351 N 
HETATM   54  H   UNK N   1      31.827  17.317   6.433  0.00  0.00     0.163 HD
BRANCH  53  55
HETATM   55  C   UNK N   1      33.869  17.625   6.689  0.00  0.00     0.225 C 
BRANCH  55  56
HETATM   56  C   UNK N   1      33.935  18.285   8.032  0.00  0.00     0.233 C 
HETATM   57  O   UNK N   1      34.845  19.050   8.311  0.00  0.00    -0.272 OA
HETATM   58  N   UNK N   1      32.977  18.028   8.941  0.00  0.00    -0.369 N 
HETATM   59  H   UNK N   1      32.001  18.072   8.812  0.00  0.00     0.159 HD
HETATM   60  H   UNK N   1      33.286  17.766   9.839  0.00  0.00     0.159 HD
ENDBRANCH  55  56
ENDBRANCH  53  55
ENDBRANCH  42  51
ENDBRANCH  40  42
ENDBRANCH  35  38
ENDBRANCH  13  31
BRANCH   9  61
HETATM   61  C   UNK N   1      30.296  16.109   2.364  0.00  0.00     0.137 C 
BRANCH  61  62
HETATM   62  C   UNK N   1      31.459  16.653   3.140  0.00  0.00     0.217 C 
HETATM   63  O   UNK N   1      31.273  17.421   4.068  0.00  0.00    -0.274 OA
HETATM   64  N   UNK N   1      32.714  16.361   2.755  0.00  0.00    -0.370 N 
HETATM   65  H   UNK N   1      32.988  15.636   2.148  0.00  0.00     0.159 HD
HETATM   66  H   UNK N   1      33.433  16.929   3.118  0.00  0.00     0.159 HD
ENDBRANCH  61  62
ENDBRANCH   9  61
BRANCH  18  67
HETATM   67  N   UNK N   1      26.275  10.323   4.020  0.00  0.00    -0.418 N 
HETATM   68  H   UNK N   1      26.111   9.317   3.965  0.00  0.00     0.150 HD
HETATM   69  H   UNK N   1      26.324  10.562   5.010  0.00  0.00     0.150 HD
ENDBRANCH  18  67
BRANCH   5  70
HETATM   70  C   UNK N   1      28.529  16.752   6.971  0.00  0.00     0.035 C 
BRANCH  70  71
HETATM   71  C   UNK N   1      28.544  18.124   7.632  0.00  0.00     0.012 C 
BRANCH  71  72
HETATM   72  C   UNK N   1      28.156  18.001   9.094  0.00  0.00     0.103 C 
BRANCH  72  73
HETATM   73  C   UNK N   1      29.377  17.968   9.953  0.00  0.00     0.215 C 
HETATM   74  O   UNK N   1      30.105  18.942  10.008  0.00  0.00    -0.274 OA
HETATM   75  N   UNK N   1      29.670  16.867  10.674  0.00  0.00    -0.370 N 
HETATM   76  H   UNK N   1      29.819  15.901  10.555  0.00  0.00     0.159 HD
HETATM   77  H   UNK N   1      29.767  17.106  11.624  0.00  0.00     0.159 HD
ENDBRANCH  72  73
ENDBRANCH  71  72
ENDBRANCH  70  71
ENDBRANCH   5  70
BRANCH  22  78
HETATM   78  C   UNK N   1      23.829  14.004   3.500  0.00  0.00     0.073 C 
BRANCH  78  79
HETATM   79  C   UNK N   1      22.916  13.393   2.501  0.00  0.00    -0.056 A 
HETATM   80  C   UNK N   1      22.098  14.202   1.707  0.00  0.00     0.007 A 
HETATM   81  C   UNK N   1      21.241  13.620   0.768  0.00  0.00     0.001 A 
HETATM   82  C   UNK N   1      21.219  12.231   0.609  0.00  0.00     0.000 A 
HETATM   83  C   UNK N   1      22.058  11.425   1.383  0.00  0.00     0.001 A 
HETATM   84  C   UNK N   1      22.905  12.005   2.331  0.00  0.00     0.007 A 
ENDBRANCH  78  79
ENDBRANCH  22  78
BRANCH   1  85
HETATM   85  C   UNK N   1      23.395  17.253   4.827  0.00  0.00     0.013 C 
HETATM   86  C   UNK N   1      22.868  16.287   5.877  0.00  0.00     0.012 C 
BRANCH  85  87
HETATM   87  C   UNK N   1      22.409  17.292   3.675  0.00  0.00     0.002 C 
HETATM   88  C   UNK N   1      21.042  16.806   4.117  0.00  0.00     0.005 C 
ENDBRANCH  85  87
ENDBRANCH   1  85
TORSDOF 22
ENDMDL
MODEL 4
REMARK VINA RESULT:      -7.2      5.089     11.920
REMARK  22 active torsions:
REMARK  status: ('A' for Active; 'I' for Inactive)
REMARK    1  A    between atoms: C_2  and  C_3 
REMARK    2  A    between atoms: C_5  and  C_3 
REMARK    3  A    between atoms: C_9  and  C_67 
REMARK    4  A    between atoms: C_13  and  C_63 
REMARK    5  A    between atoms: C_17  and  C_38 
REMARK    6  A    between atoms: C_22  and  N_37 
REMARK    7  A    between atoms: C_26  and  C_30 
REMARK    8  A    between atoms: C_30  and  C_31 
REMARK       I    between atoms: C_38  and  N_40 
REMARK    9  A    between atoms: C_44  and  C_45 
REMARK       I    between atoms: C_45  and  N_47 
REMARK   10  A    between atoms: C_48  and  N_47 
REMARK   11  A    between atoms: C_48  and  C_49 
REMARK   12  A    between atoms: C_48  and  C_56 
REMARK   13  A    between atoms: C_49  and  C_50 
REMARK   14  A    between atoms: C_50  and  C_51 
REMARK   15  A    between atoms: C_51  and  N_52 
REMARK   16  A    between atoms: N_52  and  C_53 
REMARK       I    between atoms: C_56  and  N_58 
REMARK   17  A    between atoms: N_58  and  C_59 
REMARK   18  A    between atoms: C_59  and  C_60 
REMARK       I    between atoms: C_60  and  N_62 
REMARK   19  A    between atoms: C_63  and  C_64 
REMARK       I    between atoms: C_64  and  N_66 
REMARK   20  A    between atoms: C_67  and  C_68 
REMARK   21  A    between atoms: C_68  and  C_69 
REMARK   22  A    between atoms: C_69  and  C_70 
REMARK       I    between atoms: C_70  and  N_72 
ROOT
HETATM    1  C   UNK N   1      36.805   9.767  11.306  0.00  0.00     0.180 C 
HETATM    2  C   UNK N   1      37.258   8.751  10.272  0.00  0.00     0.241 C 
HETATM    3  O   UNK N   1      38.204   8.018  10.523  0.00  0.00    -0.271 OA
HETATM    4  N   UNK N   1      36.638   8.617   9.079  0.00  0.00    -0.346 N 
HETATM    5  C   UNK N   1      35.726   9.596   8.532  0.00  0.00     0.176 C 
HETATM    6  C   UNK N   1      36.520  10.827   8.138  0.00  0.00     0.241 C 
HETATM    7  O   UNK N   1      37.718  10.876   8.388  0.00  0.00    -0.271 OA
HETATM    8  N   UNK N   1      35.919  11.878   7.525  0.00  0.00    -0.346 N 
HETATM    9  C   UNK N   1      36.640  13.109   7.237  0.00  0.00     0.185 C 
HETATM   10  C   UNK N   1      35.743  14.136   6.609  0.00  0.00     0.241 C 
HETATM   11  O   UNK N   1      36.058  14.667   5.554  0.00  0.00    -0.271 OA
HETATM   12  N   UNK N   1      34.594  14.492   7.242  0.00  0.00    -0.345 N 
HETATM   13  C   UNK N   1      33.675  15.489   6.736  0.00  0.00     0.186 C 
HETATM   14  C   UNK N   1      32.526  15.685   7.710  0.00  0.00     0.120 C 
HETATM   15  S   UNK N   1      32.787  17.168   8.758  0.00  0.00    -0.095 SA
HETATM   16  S   UNK N   1      34.917  16.952   8.982  0.00  0.00    -0.095 SA
HETATM   17  C   UNK N   1      34.994  15.935  10.508  0.00  0.00     0.120 C 
HETATM   18  C   UNK N   1      34.049  14.735  10.646  0.00  0.00     0.177 C 
HETATM   19  C   UNK N   1      34.263  13.374  10.010  0.00  0.00     0.241 C 
HETATM   20  O   UNK N   1      33.494  13.009   9.135  0.00  0.00    -0.271 OA
HETATM   21  N   UNK N   1      35.203  12.495  10.457  0.00  0.00    -0.346 N 
HETATM   22  C   UNK N   1      36.093  12.767  11.562  0.00  0.00     0.180 C 
HETATM   23  C   UNK N   1      37.487  12.189  11.368  0.00  0.00     0.241 C 
HETATM   24  O   UNK N   1      38.414  12.978  11.300  0.00  0.00    -0.271 OA
HETATM   25  N   UNK N   1      37.772  10.849  11.338  0.00  0.00    -0.346 N 
HETATM   26  H   UNK N   1      36.818   7.806   8.551  0.00  0.00     0.163 HD
HETATM   27  H   UNK N   1      34.971  11.805   7.268  0.00  0.00     0.163 HD
HETATM   28  H   UNK N   1      34.376  14.047   8.093  0.00  0.00     0.163 HD
HETATM   29  H   UNK N   1      35.281  11.626  10.002  0.00  0.00     0.163 HD
HETATM   30  H   UNK N   1      38.723  10.596  11.340  0.00  0.00     0.163 HD
ENDROOT
BRANCH  13  31
HETATM   31  C   UNK N   1      33.238  15.092   5.384  0.00  0.00     0.244 C 
HETATM   32  O   UNK N   1      33.002  13.911   5.163  0.00  0.00    -0.271 OA
HETATM   33  N   UNK N   1      33.205  16.026   4.388  0.00  0.00    -0.337 N 
HETATM   34  C   UNK N   1      33.167  17.426   4.676  0.00  0.00     0.127 C 
HETATM   35  C   UNK N   1      32.980  15.793   2.998  0.00  0.00     0.179 C 
HETATM   36  C   UNK N   1      32.192  17.947   3.607  0.00  0.00     0.022 C 
HETATM   37  C   UNK N   1      31.859  16.746   2.684  0.00  0.00     0.037 C 
BRANCH  35  38
HETATM   38  C   UNK N   1      33.002  14.360   2.554  0.00  0.00     0.241 C 
HETATM   39  O   UNK N   1      31.972  13.759   2.298  0.00  0.00    -0.271 OA
HETATM   40  N   UNK N   1      34.213  13.756   2.462  0.00  0.00    -0.346 N 
HETATM   41  H   UNK N   1      35.012  14.302   2.643  0.00  0.00     0.163 HD
BRANCH  40  42
HETATM   42  C   UNK N   1      34.416  12.368   2.116  0.00  0.00     0.176 C 
BRANCH  42  43
HETATM   43  C   UNK N   1      35.377  12.252   0.934  0.00  0.00     0.036 C 
BRANCH  43  44
HETATM   44  C   UNK N   1      35.262  10.918   0.204  0.00  0.00     0.022 C 
BRANCH  44  45
HETATM   45  C   UNK N   1      34.735  11.150  -1.203  0.00  0.00     0.114 C 
BRANCH  45  46
HETATM   46  N   UNK N   1      33.578  10.300  -1.491  0.00  0.00    -0.418 N 
HETATM   47  H   UNK N   1      33.539   9.294  -1.321  0.00  0.00     0.153 HD
BRANCH  46  48
HETATM   48  C   UNK N   1      32.487  11.095  -2.054  0.00  0.00     0.068 C 
HETATM   49  C   UNK N   1      31.850  11.924  -0.958  0.00  0.00     0.031 C 
HETATM   50  C   UNK N   1      32.980  12.025  -3.149  0.00  0.00     0.031 C 
ENDBRANCH  46  48
ENDBRANCH  45  46
ENDBRANCH  44  45
ENDBRANCH  43  44
ENDBRANCH  42  43
BRANCH  42  51
HETATM   51  C   UNK N   1      34.733  11.567   3.376  0.00  0.00     0.240 C 
HETATM   52  O   UNK N   1      35.873  11.619   3.806  0.00  0.00    -0.271 OA
HETATM   53  N   UNK N   1      33.832  10.808   4.056  0.00  0.00    -0.351 N 
HETATM   54  H   UNK N   1      34.151  10.367   4.876  0.00  0.00     0.163 HD
BRANCH  53  55
HETATM   55  C   UNK N   1      32.452  10.585   3.694  0.00  0.00     0.225 C 
BRANCH  55  56
HETATM   56  C   UNK N   1      31.520  10.954   4.806  0.00  0.00     0.233 C 
HETATM   57  O   UNK N   1      31.484  10.301   5.837  0.00  0.00    -0.272 OA
HETATM   58  N   UNK N   1      30.712  12.021   4.665  0.00  0.00    -0.369 N 
HETATM   59  H   UNK N   1      30.966  12.932   4.388  0.00  0.00     0.159 HD
HETATM   60  H   UNK N   1      29.758  11.875   4.860  0.00  0.00     0.159 HD
ENDBRANCH  55  56
ENDBRANCH  53  55
ENDBRANCH  42  51
ENDBRANCH  40  42
ENDBRANCH  35  38
ENDBRANCH  13  31
BRANCH   9  61
HETATM   61  C   UNK N   1      37.955  12.887   6.456  0.00  0.00     0.137 C 
BRANCH  61  62
HETATM   62  C   UNK N   1      39.165  13.550   7.043  0.00  0.00     0.217 C 
HETATM   63  O   UNK N   1      39.957  14.133   6.322  0.00  0.00    -0.274 OA
HETATM   64  N   UNK N   1      39.424  13.428   8.357  0.00  0.00    -0.370 N 
HETATM   65  H   UNK N   1      38.792  13.140   9.055  0.00  0.00     0.159 HD
HETATM   66  H   UNK N   1      40.338  13.650   8.652  0.00  0.00     0.159 HD
ENDBRANCH  61  62
ENDBRANCH   9  61
BRANCH  18  67
HETATM   67  N   UNK N   1      32.656  15.080  10.874  0.00  0.00    -0.418 N 
HETATM   68  H   UNK N   1      31.794  15.438  10.462  0.00  0.00     0.150 HD
HETATM   69  H   UNK N   1      32.457  14.880  11.854  0.00  0.00     0.150 HD
ENDBRANCH  18  67
BRANCH   5  70
HETATM   70  C   UNK N   1      34.994   8.986   7.335  0.00  0.00     0.035 C 
BRANCH  70  71
HETATM   71  C   UNK N   1      33.720   8.257   7.741  0.00  0.00     0.012 C 
BRANCH  71  72
HETATM   72  C   UNK N   1      33.376   8.572   9.185  0.00  0.00     0.103 C 
BRANCH  72  73
HETATM   73  C   UNK N   1      32.148   9.417   9.253  0.00  0.00     0.215 C 
HETATM   74  O   UNK N   1      31.101   9.003   8.788  0.00  0.00    -0.274 OA
HETATM   75  N   UNK N   1      32.192  10.633   9.835  0.00  0.00    -0.370 N 
HETATM   76  H   UNK N   1      32.683  11.484   9.776  0.00  0.00     0.159 HD
HETATM   77  H   UNK N   1      31.514  10.687  10.547  0.00  0.00     0.159 HD
ENDBRANCH  72  73
ENDBRANCH  71  72
ENDBRANCH  70  71
ENDBRANCH   5  70
BRANCH  22  78
HETATM   78  C   UNK N   1      35.485  12.281  12.865  0.00  0.00     0.073 C 
BRANCH  78  79
HETATM   79  C   UNK N   1      35.899  13.100  14.033  0.00  0.00    -0.056 A 
HETATM   80  C   UNK N   1      36.485  14.355  13.841  0.00  0.00     0.007 A 
HETATM   81  C   UNK N   1      36.872  15.121  14.943  0.00  0.00     0.001 A 
HETATM   82  C   UNK N   1      36.653  14.642  16.238  0.00  0.00     0.000 A 
HETATM   83  C   UNK N   1      36.042  13.400  16.431  0.00  0.00     0.001 A 
HETATM   84  C   UNK N   1      35.666  12.628  15.328  0.00  0.00     0.007 A 
ENDBRANCH  78  79
ENDBRANCH  22  78
BRANCH   1  85
HETATM   85  C   UNK N   1      36.737   8.982  12.642  0.00  0.00     0.013 C 
HETATM   86  C   UNK N   1      35.292   8.832  13.092  0.00  0.00     0.012 C 
BRANCH  85  87
HETATM   87  C   UNK N   1      37.545   9.533  13.801  0.00  0.00     0.002 C 
HETATM   88  C   UNK N   1      36.904   9.172  15.127  0.00  0.00     0.005 C 
ENDBRANCH  85  87
ENDBRANCH   1  85
TORSDOF 22
ENDMDL
MODEL 5
REMARK VINA RESULT:      -7.2      1.715      2.877
REMARK  22 active torsions:
REMARK  status: ('A' for Active; 'I' for Inactive)
REMARK    1  A    between atoms: C_2  and  C_3 
REMARK    2  A    between atoms: C_5  and  C_3 
REMARK    3  A    between atoms: C_9  and  C_67 
REMARK    4  A    between atoms: C_13  and  C_63 
REMARK    5  A    between atoms: C_17  and  C_38 
REMARK    6  A    between atoms: C_22  and  N_37 
REMARK    7  A    between atoms: C_26  and  C_30 
REMARK    8  A    between atoms: C_30  and  C_31 
REMARK       I    between atoms: C_38  and  N_40 
REMARK    9  A    between atoms: C_44  and  C_45 
REMARK       I    between atoms: C_45  and  N_47 
REMARK   10  A    between atoms: C_48  and  N_47 
REMARK   11  A    between atoms: C_48  and  C_49 
REMARK   12  A    between atoms: C_48  and  C_56 
REMARK   13  A    between atoms: C_49  and  C_50 
REMARK   14  A    between atoms: C_50  and  C_51 
REMARK   15  A    between atoms: C_51  and  N_52 
REMARK   16  A    between atoms: N_52  and  C_53 
REMARK       I    between atoms: C_56  and  N_58 
REMARK   17  A    between atoms: N_58  and  C_59 
REMARK   18  A    between atoms: C_59  and  C_60 
REMARK       I    between atoms: C_60  and  N_62 
REMARK   19  A    between atoms: C_63  and  C_64 
REMARK       I    between atoms: C_64  and  N_66 
REMARK   20  A    between atoms: C_67  and  C_68 
REMARK   21  A    between atoms: C_68  and  C_69 
REMARK   22  A    between atoms: C_69  and  C_70 
REMARK       I    between atoms: C_70  and  N_72 
ROOT
HETATM    1  C   UNK N   1      25.051  16.875   4.687  0.00  0.00     0.180 C 
HETATM    2  C   UNK N   1      25.761  18.083   5.273  0.00  0.00     0.241 C 
HETATM    3  O   UNK N   1      25.332  19.204   5.041  0.00  0.00    -0.271 OA
HETATM    4  N   UNK N   1      26.853  17.961   6.061  0.00  0.00    -0.346 N 
HETATM    5  C   UNK N   1      27.637  16.752   6.167  0.00  0.00     0.176 C 
HETATM    6  C   UNK N   1      28.383  16.545   4.863  0.00  0.00     0.241 C 
HETATM    7  O   UNK N   1      28.184  17.309   3.927  0.00  0.00    -0.271 OA
HETATM    8  N   UNK N   1      29.258  15.518   4.715  0.00  0.00    -0.346 N 
HETATM    9  C   UNK N   1      29.901  15.239   3.440  0.00  0.00     0.185 C 
HETATM   10  C   UNK N   1      30.777  14.022   3.521  0.00  0.00     0.241 C 
HETATM   11  O   UNK N   1      31.946  14.081   3.169  0.00  0.00    -0.271 OA
HETATM   12  N   UNK N   1      30.248  12.850   3.958  0.00  0.00    -0.345 N 
HETATM   13  C   UNK N   1      30.997  11.616   4.049  0.00  0.00     0.186 C 
HETATM   14  C   UNK N   1      30.096  10.487   4.521  0.00  0.00     0.120 C 
HETATM   15  S   UNK N   1      29.521   9.461   3.113  0.00  0.00    -0.095 SA
HETATM   16  S   UNK N   1      29.291  11.070   1.701  0.00  0.00    -0.095 SA
HETATM   17  C   UNK N   1      27.539  11.532   2.000  0.00  0.00     0.120 C 
HETATM   18  C   UNK N   1      27.044  11.660   3.446  0.00  0.00     0.177 C 
HETATM   19  C   UNK N   1      27.269  12.860   4.346  0.00  0.00     0.241 C 
HETATM   20  O   UNK N   1      27.986  12.732   5.325  0.00  0.00    -0.271 OA
HETATM   21  N   UNK N   1      26.609  14.040   4.173  0.00  0.00    -0.346 N 
HETATM   22  C   UNK N   1      25.648  14.275   3.122  0.00  0.00     0.180 C 
HETATM   23  C   UNK N   1      25.698  15.689   2.564  0.00  0.00     0.241 C 
HETATM   24  O   UNK N   1      26.010  15.816   1.392  0.00  0.00    -0.271 OA
HETATM   25  N   UNK N   1      25.350  16.811   3.269  0.00  0.00    -0.346 N 
HETATM   26  H   UNK N   1      27.130  18.742   6.592  0.00  0.00     0.163 HD
HETATM   27  H   UNK N   1      29.463  14.947   5.491  0.00  0.00     0.163 HD
HETATM   28  H   UNK N   1      29.301  12.840   4.229  0.00  0.00     0.163 HD
HETATM   29  H   UNK N   1      26.799  14.774   4.801  0.00  0.00     0.163 HD
HETATM   30  H   UNK N   1      25.297  17.655   2.765  0.00  0.00     0.163 HD
ENDROOT
BRANCH  13  31
HETATM   31  C   UNK N   1      32.170  11.832   4.918  0.00  0.00     0.244 C 
HETATM   32  O   UNK N   1      31.989  12.194   6.075  0.00  0.00    -0.271 OA
HETATM   33  N   UNK N   1      33.425  11.728   4.390  0.00  0.00    -0.337 N 
HETATM   34  C   UNK N   1      33.667  11.021   3.171  0.00  0.00     0.127 C 
HETATM   35  C   UNK N   1      34.656  12.069   5.026  0.00  0.00     0.179 C 
HETATM   36  C   UNK N   1      34.996  10.307   3.473  0.00  0.00     0.022 C 
HETATM   37  C   UNK N   1      35.469  10.814   4.860  0.00  0.00     0.037 C 
BRANCH  35  38
HETATM   38  C   UNK N   1      34.548  12.825   6.317  0.00  0.00     0.241 C 
HETATM   39  O   UNK N   1      34.458  14.042   6.335  0.00  0.00    -0.271 OA
HETATM   40  N   UNK N   1      34.568  12.102   7.465  0.00  0.00    -0.346 N 
HETATM   41  H   UNK N   1      34.603  11.121   7.387  0.00  0.00     0.163 HD
BRANCH  40  42
HETATM   42  C   UNK N   1      34.541  12.667   8.794  0.00  0.00     0.176 C 
BRANCH  42  43
HETATM   43  C   UNK N   1      33.884  11.694   9.770  0.00  0.00     0.036 C 
BRANCH  43  44
HETATM   44  C   UNK N   1      34.030  10.236   9.346  0.00  0.00     0.022 C 
BRANCH  44  45
HETATM   45  C   UNK N   1      32.661   9.576   9.303  0.00  0.00     0.114 C 
BRANCH  45  46
HETATM   46  N   UNK N   1      31.969   9.856   8.044  0.00  0.00    -0.418 N 
HETATM   47  H   UNK N   1      31.678  10.784   7.734  0.00  0.00     0.153 HD
BRANCH  46  48
HETATM   48  C   UNK N   1      31.754   8.619   7.293  0.00  0.00     0.068 C 
HETATM   49  C   UNK N   1      32.835   8.472   6.243  0.00  0.00     0.031 C 
HETATM   50  C   UNK N   1      31.782   7.401   8.201  0.00  0.00     0.031 C 
ENDBRANCH  46  48
ENDBRANCH  45  46
ENDBRANCH  44  45
ENDBRANCH  43  44
ENDBRANCH  42  43
BRANCH  42  51
HETATM   51  C   UNK N   1      35.924  13.208   9.148  0.00  0.00     0.240 C 
HETATM   52  O   UNK N   1      36.892  12.547   8.815  0.00  0.00    -0.271 OA
HETATM   53  N   UNK N   1      36.151  14.380   9.801  0.00  0.00    -0.351 N 
HETATM   54  H   UNK N   1      37.091  14.637   9.940  0.00  0.00     0.163 HD
BRANCH  53  55
HETATM   55  C   UNK N   1      35.148  15.285  10.312  0.00  0.00     0.225 C 
BRANCH  55  56
HETATM   56  C   UNK N   1      35.061  16.536   9.493  0.00  0.00     0.233 C 
HETATM   57  O   UNK N   1      35.349  17.621   9.972  0.00  0.00    -0.272 OA
HETATM   58  N   UNK N   1      34.660  16.458   8.210  0.00  0.00    -0.369 N 
HETATM   59  H   UNK N   1      35.004  15.857   7.510  0.00  0.00     0.159 HD
HETATM   60  H   UNK N   1      33.940  17.074   7.941  0.00  0.00     0.159 HD
ENDBRANCH  55  56
ENDBRANCH  53  55
ENDBRANCH  42  51
ENDBRANCH  40  42
ENDBRANCH  35  38
ENDBRANCH  13  31
BRANCH   9  61
HETATM   61  C   UNK N   1      30.614  16.465   2.826  0.00  0.00     0.137 C 
BRANCH  61  62
HETATM   62  C   UNK N   1      31.743  17.022   3.641  0.00  0.00     0.217 C 
HETATM   63  O   UNK N   1      31.514  17.649   4.661  0.00  0.00    -0.274 OA
HETATM   64  N   UNK N   1      33.008  16.903   3.200  0.00  0.00    -0.370 N 
HETATM   65  H   UNK N   1      33.330  16.288   2.502  0.00  0.00     0.159 HD
HETATM   66  H   UNK N   1      33.680  17.490   3.617  0.00  0.00     0.159 HD
ENDBRANCH  61  62
ENDBRANCH   9  61
BRANCH  18  67
HETATM   67  N   UNK N   1      26.894  10.398   4.151  0.00  0.00    -0.418 N 
HETATM   68  H   UNK N   1      27.327   9.506   4.392  0.00  0.00     0.150 HD
HETATM   69  H   UNK N   1      25.974  10.410   4.589  0.00  0.00     0.150 HD
ENDBRANCH  18  67
BRANCH   5  70
HETATM   70  C   UNK N   1      28.594  16.877   7.355  0.00  0.00     0.035 C 
BRANCH  70  71
HETATM   71  C   UNK N   1      29.134  18.291   7.522  0.00  0.00     0.012 C 
BRANCH  71  72
HETATM   72  C   UNK N   1      29.950  18.388   8.798  0.00  0.00     0.103 C 
BRANCH  72  73
HETATM   73  C   UNK N   1      31.199  17.580   8.677  0.00  0.00     0.215 C 
HETATM   74  O   UNK N   1      32.090  17.950   7.933  0.00  0.00    -0.274 OA
HETATM   75  N   UNK N   1      31.348  16.449   9.395  0.00  0.00    -0.370 N 
HETATM   76  H   UNK N   1      30.898  15.589   9.555  0.00  0.00     0.159 HD
HETATM   77  H   UNK N   1      32.174  16.498   9.930  0.00  0.00     0.159 HD
ENDBRANCH  72  73
ENDBRANCH  71  72
ENDBRANCH  70  71
ENDBRANCH   5  70
BRANCH  22  78
HETATM   78  C   UNK N   1      24.247  13.933   3.597  0.00  0.00     0.073 C 
BRANCH  78  79
HETATM   79  C   UNK N   1      23.338  13.560   2.483  0.00  0.00    -0.056 A 
HETATM   80  C   UNK N   1      21.979  13.882   2.546  0.00  0.00     0.007 A 
HETATM   81  C   UNK N   1      21.128  13.530   1.495  0.00  0.00     0.001 A 
HETATM   82  C   UNK N   1      21.641  12.875   0.372  0.00  0.00     0.000 A 
HETATM   83  C   UNK N   1      23.005  12.578   0.296  0.00  0.00     0.001 A 
HETATM   84  C   UNK N   1      23.853  12.919   1.353  0.00  0.00     0.007 A 
ENDBRANCH  78  79
ENDBRANCH  22  78
BRANCH   1  85
HETATM   85  C   UNK N   1      23.545  17.112   4.975  0.00  0.00     0.013 C 
HETATM   86  C   UNK N   1      23.013  16.042   5.915  0.00  0.00     0.012 C 
BRANCH  85  87
HETATM   87  C   UNK N   1      22.625  17.194   3.773  0.00  0.00     0.002 C 
HETATM   88  C   UNK N   1      21.988  18.566   3.672  0.00  0.00     0.005 C 
ENDBRANCH  85  87
ENDBRANCH   1  85
TORSDOF 22
ENDMDL
MODEL 6
REMARK VINA RESULT:      -7.2      3.851      7.359
REMARK  22 active torsions:
REMARK  status: ('A' for Active; 'I' for Inactive)
REMARK    1  A    between atoms: C_2  and  C_3 
REMARK    2  A    between atoms: C_5  and  C_3 
REMARK    3  A    between atoms: C_9  and  C_67 
REMARK    4  A    between atoms: C_13  and  C_63 
REMARK    5  A    between atoms: C_17  and  C_38 
REMARK    6  A    between atoms: C_22  and  N_37 
REMARK    7  A    between atoms: C_26  and  C_30 
REMARK    8  A    between atoms: C_30  and  C_31 
REMARK       I    between atoms: C_38  and  N_40 
REMARK    9  A    between atoms: C_44  and  C_45 
REMARK       I    between atoms: C_45  and  N_47 
REMARK   10  A    between atoms: C_48  and  N_47 
REMARK   11  A    between atoms: C_48  and  C_49 
REMARK   12  A    between atoms: C_48  and  C_56 
REMARK   13  A    between atoms: C_49  and  C_50 
REMARK   14  A    between atoms: C_50  and  C_51 
REMARK   15  A    between atoms: C_51  and  N_52 
REMARK   16  A    between atoms: N_52  and  C_53 
REMARK       I    between atoms: C_56  and  N_58 
REMARK   17  A    between atoms: N_58  and  C_59 
REMARK   18  A    between atoms: C_59  and  C_60 
REMARK       I    between atoms: C_60  and  N_62 
REMARK   19  A    between atoms: C_63  and  C_64 
REMARK       I    between atoms: C_64  and  N_66 
REMARK   20  A    between atoms: C_67  and  C_68 
REMARK   21  A    between atoms: C_68  and  C_69 
REMARK   22  A    between atoms: C_69  and  C_70 
REMARK       I    between atoms: C_70  and  N_72 
ROOT
HETATM    1  C   UNK N   1      23.148   9.934   5.638  0.00  0.00     0.180 C 
HETATM    2  C   UNK N   1      22.378  11.028   6.358  0.00  0.00     0.241 C 
HETATM    3  O   UNK N   1      21.155  11.004   6.357  0.00  0.00    -0.271 OA
HETATM    4  N   UNK N   1      23.002  12.029   7.019  0.00  0.00    -0.346 N 
HETATM    5  C   UNK N   1      24.400  12.353   6.852  0.00  0.00     0.176 C 
HETATM    6  C   UNK N   1      24.594  12.955   5.474  0.00  0.00     0.241 C 
HETATM    7  O   UNK N   1      23.645  13.009   4.701  0.00  0.00    -0.271 OA
HETATM    8  N   UNK N   1      25.806  13.421   5.080  0.00  0.00    -0.346 N 
HETATM    9  C   UNK N   1      26.038  13.902   3.727  0.00  0.00     0.185 C 
HETATM   10  C   UNK N   1      27.469  14.310   3.526  0.00  0.00     0.241 C 
HETATM   11  O   UNK N   1      27.738  15.421   3.091  0.00  0.00    -0.271 OA
HETATM   12  N   UNK N   1      28.459  13.421   3.801  0.00  0.00    -0.345 N 
HETATM   13  C   UNK N   1      29.866  13.704   3.618  0.00  0.00     0.186 C 
HETATM   14  C   UNK N   1      30.697  12.482   3.966  0.00  0.00     0.120 C 
HETATM   15  S   UNK N   1      31.189  11.560   2.458  0.00  0.00    -0.095 SA
HETATM   16  S   UNK N   1      29.360  11.864   1.364  0.00  0.00    -0.095 SA
HETATM   17  C   UNK N   1      28.407  10.384   1.884  0.00  0.00     0.120 C 
HETATM   18  C   UNK N   1      28.397   9.993   3.367  0.00  0.00     0.177 C 
HETATM   19  C   UNK N   1      27.531  10.635   4.435  0.00  0.00     0.241 C 
HETATM   20  O   UNK N   1      28.073  11.286   5.314  0.00  0.00    -0.271 OA
HETATM   21  N   UNK N   1      26.189  10.416   4.522  0.00  0.00    -0.346 N 
HETATM   22  C   UNK N   1      25.455   9.571   3.610  0.00  0.00     0.180 C 
HETATM   23  C   UNK N   1      24.060  10.090   3.298  0.00  0.00     0.241 C 
HETATM   24  O   UNK N   1      23.825  10.401   2.142  0.00  0.00    -0.271 OA
HETATM   25  N   UNK N   1      23.039  10.163   4.209  0.00  0.00    -0.346 N 
HETATM   26  H   UNK N   1      22.472  12.568   7.650  0.00  0.00     0.163 HD
HETATM   27  H   UNK N   1      26.548  13.435   5.728  0.00  0.00     0.163 HD
HETATM   28  H   UNK N   1      28.204  12.534   4.145  0.00  0.00     0.163 HD
HETATM   29  H   UNK N   1      25.692  10.859   5.246  0.00  0.00     0.163 HD
HETATM   30  H   UNK N   1      22.147  10.391   3.862  0.00  0.00     0.163 HD
ENDROOT
BRANCH  13  31
HETATM   31  C   UNK N   1      30.219  14.899   4.409  0.00  0.00     0.244 C 
HETATM   32  O   UNK N   1      29.694  15.059   5.504  0.00  0.00    -0.271 OA
HETATM   33  N   UNK N   1      31.037  15.847   3.865  0.00  0.00    -0.337 N 
HETATM   34  C   UNK N   1      31.892  15.550   2.756  0.00  0.00     0.127 C 
HETATM   35  C   UNK N   1      31.343  17.132   4.405  0.00  0.00     0.179 C 
HETATM   36  C   UNK N   1      33.169  16.325   3.120  0.00  0.00     0.022 C 
HETATM   37  C   UNK N   1      32.849  17.138   4.402  0.00  0.00     0.037 C 
BRANCH  35  38
HETATM   38  C   UNK N   1      30.513  17.575   5.572  0.00  0.00     0.241 C 
HETATM   39  O   UNK N   1      30.892  17.411   6.720  0.00  0.00    -0.271 OA
HETATM   40  N   UNK N   1      29.316  18.153   5.300  0.00  0.00    -0.346 N 
HETATM   41  H   UNK N   1      29.080  18.294   4.355  0.00  0.00     0.163 HD
BRANCH  40  42
HETATM   42  C   UNK N   1      28.362  18.577   6.298  0.00  0.00     0.176 C 
BRANCH  42  43
HETATM   43  C   UNK N   1      27.505  19.721   5.759  0.00  0.00     0.036 C 
BRANCH  43  44
HETATM   44  C   UNK N   1      27.462  19.764   4.235  0.00  0.00     0.022 C 
BRANCH  44  45
HETATM   45  C   UNK N   1      26.024  19.632   3.760  0.00  0.00     0.114 C 
BRANCH  45  46
HETATM   46  N   UNK N   1      25.206  18.892   4.723  0.00  0.00    -0.418 N 
HETATM   47  H   UNK N   1      25.480  18.687   5.684  0.00  0.00     0.153 HD
BRANCH  46  48
HETATM   48  C   UNK N   1      23.938  18.488   4.113  0.00  0.00     0.068 C 
HETATM   49  C   UNK N   1      23.023  17.924   5.179  0.00  0.00     0.031 C 
HETATM   50  C   UNK N   1      23.244  19.660   3.439  0.00  0.00     0.031 C 
ENDBRANCH  46  48
ENDBRANCH  45  46
ENDBRANCH  44  45
ENDBRANCH  43  44
ENDBRANCH  42  43
BRANCH  42  51
HETATM   51  C   UNK N   1      27.646  17.358   6.873  0.00  0.00     0.240 C 
HETATM   52  O   UNK N   1      27.096  16.604   6.088  0.00  0.00    -0.271 OA
HETATM   53  N   UNK N   1      27.585  17.051   8.197  0.00  0.00    -0.351 N 
HETATM   54  H   UNK N   1      27.122  16.216   8.438  0.00  0.00     0.163 HD
BRANCH  53  55
HETATM   55  C   UNK N   1      28.133  17.828   9.283  0.00  0.00     0.225 C 
BRANCH  55  56
HETATM   56  C   UNK N   1      29.285  17.131   9.938  0.00  0.00     0.233 C 
HETATM   57  O   UNK N   1      29.106  16.360  10.868  0.00  0.00    -0.272 OA
HETATM   58  N   UNK N   1      30.534  17.359   9.493  0.00  0.00    -0.369 N 
HETATM   59  H   UNK N   1      30.856  17.316   8.563  0.00  0.00     0.159 HD
HETATM   60  H   UNK N   1      31.204  17.596  10.175  0.00  0.00     0.159 HD
ENDBRANCH  55  56
ENDBRANCH  53  55
ENDBRANCH  42  51
ENDBRANCH  40  42
ENDBRANCH  35  38
ENDBRANCH  13  31
BRANCH   9  61
HETATM   61  C   UNK N   1      25.026  14.979   3.272  0.00  0.00     0.137 C 
BRANCH  61  62
HETATM   62  C   UNK N   1      24.315  14.684   1.985  0.00  0.00     0.217 C 
HETATM   63  O   UNK N   1      24.910  14.758   0.923  0.00  0.00    -0.274 OA
HETATM   64  N   UNK N   1      22.996  14.421   1.994  0.00  0.00    -0.370 N 
HETATM   65  H   UNK N   1      22.454  14.169   2.776  0.00  0.00     0.159 HD
HETATM   66  H   UNK N   1      22.525  14.487   1.132  0.00  0.00     0.159 HD
ENDBRANCH  61  62
ENDBRANCH   9  61
BRANCH  18  67
HETATM   67  N   UNK N   1      29.645   9.436   3.858  0.00  0.00    -0.418 N 
HETATM   68  H   UNK N   1      30.557   9.051   3.610  0.00  0.00     0.150 HD
HETATM   69  H   UNK N   1      29.587   9.427   4.876  0.00  0.00     0.150 HD
ENDBRANCH  18  67
BRANCH   5  70
HETATM   70  C   UNK N   1      24.826  13.320   7.959  0.00  0.00     0.035 C 
BRANCH  70  71
HETATM   71  C   UNK N   1      23.979  13.179   9.216  0.00  0.00     0.012 C 
BRANCH  71  72
HETATM   72  C   UNK N   1      24.743  12.406  10.275  0.00  0.00     0.103 C 
BRANCH  72  73
HETATM   73  C   UNK N   1      23.810  11.909  11.328  0.00  0.00     0.215 C 
HETATM   74  O   UNK N   1      24.097  12.044  12.505  0.00  0.00    -0.274 OA
HETATM   75  N   UNK N   1      22.648  11.319  10.983  0.00  0.00    -0.370 N 
HETATM   76  H   UNK N   1      22.310  10.573  10.438  0.00  0.00     0.159 HD
HETATM   77  H   UNK N   1      21.895  11.784  11.416  0.00  0.00     0.159 HD
ENDBRANCH  72  73
ENDBRANCH  71  72
ENDBRANCH  70  71
ENDBRANCH   5  70
BRANCH  22  78
HETATM   78  C   UNK N   1      25.394   8.148   4.137  0.00  0.00     0.073 C 
BRANCH  78  79
HETATM   79  C   UNK N   1      25.382   7.134   3.052  0.00  0.00    -0.056 A 
HETATM   80  C   UNK N   1      24.310   6.244   2.932  0.00  0.00     0.007 A 
HETATM   81  C   UNK N   1      24.304   5.292   1.908  0.00  0.00     0.001 A 
HETATM   82  C   UNK N   1      25.359   5.245   0.993  0.00  0.00     0.000 A 
HETATM   83  C   UNK N   1      26.417   6.153   1.096  0.00  0.00     0.001 A 
HETATM   84  C   UNK N   1      26.429   7.096   2.127  0.00  0.00     0.007 A 
ENDBRANCH  78  79
ENDBRANCH  22  78
BRANCH   1  85
HETATM   85  C   UNK N   1      22.482   8.607   6.088  0.00  0.00     0.013 C 
HETATM   86  C   UNK N   1      23.481   7.747   6.846  0.00  0.00     0.012 C 
BRANCH  85  87
HETATM   87  C   UNK N   1      21.846   7.760   5.003  0.00  0.00     0.002 C 
HETATM   88  C   UNK N   1      20.340   7.710   5.169  0.00  0.00     0.005 C 
ENDBRANCH  85  87
ENDBRANCH   1  85
TORSDOF 22
ENDMDL
MODEL 7
REMARK VINA RESULT:      -7.1      4.169      7.859
REMARK  22 active torsions:
REMARK  status: ('A' for Active; 'I' for Inactive)
REMARK    1  A    between atoms: C_2  and  C_3 
REMARK    2  A    between atoms: C_5  and  C_3 
REMARK    3  A    between atoms: C_9  and  C_67 
REMARK    4  A    between atoms: C_13  and  C_63 
REMARK    5  A    between atoms: C_17  and  C_38 
REMARK    6  A    between atoms: C_22  and  N_37 
REMARK    7  A    between atoms: C_26  and  C_30 
REMARK    8  A    between atoms: C_30  and  C_31 
REMARK       I    between atoms: C_38  and  N_40 
REMARK    9  A    between atoms: C_44  and  C_45 
REMARK       I    between atoms: C_45  and  N_47 
REMARK   10  A    between atoms: C_48  and  N_47 
REMARK   11  A    between atoms: C_48  and  C_49 
REMARK   12  A    between atoms: C_48  and  C_56 
REMARK   13  A    between atoms: C_49  and  C_50 
REMARK   14  A    between atoms: C_50  and  C_51 
REMARK   15  A    between atoms: C_51  and  N_52 
REMARK   16  A    between atoms: N_52  and  C_53 
REMARK       I    between atoms: C_56  and  N_58 
REMARK   17  A    between atoms: N_58  and  C_59 
REMARK   18  A    between atoms: C_59  and  C_60 
REMARK       I    between atoms: C_60  and  N_62 
REMARK   19  A    between atoms: C_63  and  C_64 
REMARK       I    between atoms: C_64  and  N_66 
REMARK   20  A    between atoms: C_67  and  C_68 
REMARK   21  A    between atoms: C_68  and  C_69 
REMARK   22  A    between atoms: C_69  and  C_70 
REMARK       I    between atoms: C_70  and  N_72 
ROOT
HETATM    1  C   UNK N   1      32.604  16.357   6.856  0.00  0.00     0.180 C 
HETATM    2  C   UNK N   1      33.333  17.209   7.882  0.00  0.00     0.241 C 
HETATM    3  O   UNK N   1      33.574  18.381   7.628  0.00  0.00    -0.271 OA
HETATM    4  N   UNK N   1      33.716  16.718   9.081  0.00  0.00    -0.346 N 
HETATM    5  C   UNK N   1      33.773  15.308   9.391  0.00  0.00     0.176 C 
HETATM    6  C   UNK N   1      34.922  14.691   8.616  0.00  0.00     0.241 C 
HETATM    7  O   UNK N   1      35.552  15.380   7.823  0.00  0.00    -0.271 OA
HETATM    8  N   UNK N   1      35.251  13.384   8.778  0.00  0.00    -0.346 N 
HETATM    9  C   UNK N   1      36.278  12.748   7.966  0.00  0.00     0.185 C 
HETATM   10  C   UNK N   1      36.416  11.290   8.298  0.00  0.00     0.241 C 
HETATM   11  O   UNK N   1      37.509  10.825   8.586  0.00  0.00    -0.271 OA
HETATM   12  N   UNK N   1      35.320  10.489   8.245  0.00  0.00    -0.345 N 
HETATM   13  C   UNK N   1      35.350   9.069   8.520  0.00  0.00     0.186 C 
HETATM   14  C   UNK N   1      33.970   8.466   8.317  0.00  0.00     0.120 C 
HETATM   15  S   UNK N   1      33.836   7.647   6.681  0.00  0.00    -0.095 SA
HETATM   16  S   UNK N   1      35.024   9.069   5.584  0.00  0.00    -0.095 SA
HETATM   17  C   UNK N   1      33.723  10.243   5.036  0.00  0.00     0.120 C 
HETATM   18  C   UNK N   1      32.661  10.696   6.046  0.00  0.00     0.177 C 
HETATM   19  C   UNK N   1      32.857  11.771   7.098  0.00  0.00     0.241 C 
HETATM   20  O   UNK N   1      32.855  11.447   8.274  0.00  0.00    -0.271 OA
HETATM   21  N   UNK N   1      32.916  13.097   6.790  0.00  0.00    -0.346 N 
HETATM   22  C   UNK N   1      32.812  13.613   5.445  0.00  0.00     0.180 C 
HETATM   23  C   UNK N   1      33.701  14.821   5.192  0.00  0.00     0.241 C 
HETATM   24  O   UNK N   1      34.585  14.699   4.361  0.00  0.00    -0.271 OA
HETATM   25  N   UNK N   1      33.528  16.045   5.781  0.00  0.00    -0.346 N 
HETATM   26  H   UNK N   1      33.970  17.358   9.784  0.00  0.00     0.163 HD
HETATM   27  H   UNK N   1      34.784  12.853   9.464  0.00  0.00     0.163 HD
HETATM   28  H   UNK N   1      34.457  10.898   8.004  0.00  0.00     0.163 HD
HETATM   29  H   UNK N   1      33.036  13.741   7.525  0.00  0.00     0.163 HD
HETATM   30  H   UNK N   1      34.082  16.785   5.443  0.00  0.00     0.163 HD
ENDROOT
BRANCH  13  31
HETATM   31  C   UNK N   1      35.888   8.858   9.878  0.00  0.00     0.244 C 
HETATM   32  O   UNK N   1      35.305   9.361  10.830  0.00  0.00    -0.271 OA
HETATM   33  N   UNK N   1      37.075   8.199  10.034  0.00  0.00    -0.337 N 
HETATM   34  C   UNK N   1      37.601   7.351   9.008  0.00  0.00     0.127 C 
HETATM   35  C   UNK N   1      37.826   8.056  11.238  0.00  0.00     0.179 C 
HETATM   36  C   UNK N   1      38.178   6.183   9.824  0.00  0.00     0.022 C 
HETATM   37  C   UNK N   1      38.034   6.568  11.320  0.00  0.00     0.037 C 
BRANCH  35  38
HETATM   38  C   UNK N   1      37.386   8.898  12.398  0.00  0.00     0.241 C 
HETATM   39  O   UNK N   1      37.891   9.986  12.621  0.00  0.00    -0.271 OA
HETATM   40  N   UNK N   1      36.412   8.396  13.198  0.00  0.00    -0.346 N 
HETATM   41  H   UNK N   1      36.014   7.531  12.947  0.00  0.00     0.163 HD
BRANCH  40  42
HETATM   42  C   UNK N   1      35.915   9.039  14.392  0.00  0.00     0.176 C 
BRANCH  42  43
HETATM   43  C   UNK N   1      34.564   9.697  14.116  0.00  0.00     0.036 C 
BRANCH  43  44
HETATM   44  C   UNK N   1      34.206  10.769  15.140  0.00  0.00     0.022 C 
BRANCH  44  45
HETATM   45  C   UNK N   1      35.191  11.922  15.038  0.00  0.00     0.114 C 
BRANCH  45  46
HETATM   46  N   UNK N   1      34.776  13.059  15.863  0.00  0.00    -0.418 N 
HETATM   47  H   UNK N   1      33.863  13.511  15.813  0.00  0.00     0.153 HD
BRANCH  46  48
HETATM   48  C   UNK N   1      35.855  13.453  16.770  0.00  0.00     0.068 C 
HETATM   49  C   UNK N   1      36.753  14.457  16.079  0.00  0.00     0.031 C 
HETATM   50  C   UNK N   1      35.313  14.076  18.046  0.00  0.00     0.031 C 
ENDBRANCH  46  48
ENDBRANCH  45  46
ENDBRANCH  44  45
ENDBRANCH  43  44
ENDBRANCH  42  43
BRANCH  42  51
HETATM   51  C   UNK N   1      36.011   8.074  15.571  0.00  0.00     0.240 C 
HETATM   52  O   UNK N   1      35.686   6.915  15.380  0.00  0.00    -0.271 OA
HETATM   53  N   UNK N   1      36.442   8.415  16.816  0.00  0.00    -0.351 N 
HETATM   54  H   UNK N   1      36.492   7.693  17.482  0.00  0.00     0.163 HD
BRANCH  53  55
HETATM   55  C   UNK N   1      36.833   9.734  17.255  0.00  0.00     0.225 C 
BRANCH  55  56
HETATM   56  C   UNK N   1      36.229  10.078  18.582  0.00  0.00     0.233 C 
HETATM   57  O   UNK N   1      36.891  10.025  19.606  0.00  0.00    -0.272 OA
HETATM   58  N   UNK N   1      34.937  10.451  18.642  0.00  0.00    -0.369 N 
HETATM   59  H   UNK N   1      34.487  11.140  18.101  0.00  0.00     0.159 HD
HETATM   60  H   UNK N   1      34.378   9.981  19.303  0.00  0.00     0.159 HD
ENDBRANCH  55  56
ENDBRANCH  53  55
ENDBRANCH  42  51
ENDBRANCH  40  42
ENDBRANCH  35  38
ENDBRANCH  13  31
BRANCH   9  61
HETATM   61  C   UNK N   1      37.625  13.505   7.968  0.00  0.00     0.137 C 
BRANCH  61  62
HETATM   62  C   UNK N   1      38.158  13.864   6.613  0.00  0.00     0.217 C 
HETATM   63  O   UNK N   1      39.340  14.122   6.466  0.00  0.00    -0.274 OA
HETATM   64  N   UNK N   1      37.313  13.986   5.573  0.00  0.00    -0.370 N 
HETATM   65  H   UNK N   1      36.391  13.646   5.524  0.00  0.00     0.159 HD
HETATM   66  H   UNK N   1      37.652  14.463   4.780  0.00  0.00     0.159 HD
ENDBRANCH  61  62
ENDBRANCH   9  61
BRANCH  18  67
HETATM   67  N   UNK N   1      31.683   9.681   6.397  0.00  0.00    -0.418 N 
HETATM   68  H   UNK N   1      31.532   8.737   6.753  0.00  0.00     0.150 HD
HETATM   69  H   UNK N   1      30.762  10.079   6.212  0.00  0.00     0.150 HD
ENDBRANCH  18  67
BRANCH   5  70
HETATM   70  C   UNK N   1      33.949  15.132  10.900  0.00  0.00     0.035 C 
BRANCH  70  71
HETATM   71  C   UNK N   1      35.330  15.558  11.381  0.00  0.00     0.012 C 
BRANCH  71  72
HETATM   72  C   UNK N   1      35.812  14.623  12.474  0.00  0.00     0.103 C 
BRANCH  72  73
HETATM   73  C   UNK N   1      36.472  13.424  11.878  0.00  0.00     0.215 C 
HETATM   74  O   UNK N   1      35.811  12.433  11.623  0.00  0.00    -0.274 OA
HETATM   75  N   UNK N   1      37.793  13.438  11.612  0.00  0.00    -0.370 N 
HETATM   76  H   UNK N   1      38.655  13.594  12.061  0.00  0.00     0.159 HD
HETATM   77  H   UNK N   1      37.946  13.220  10.663  0.00  0.00     0.159 HD
ENDBRANCH  72  73
ENDBRANCH  71  72
ENDBRANCH  70  71
ENDBRANCH   5  70
BRANCH  22  78
HETATM   78  C   UNK N   1      31.366  13.929   5.107  0.00  0.00     0.073 C 
BRANCH  78  79
HETATM   79  C   UNK N   1      30.977  13.463   3.752  0.00  0.00    -0.056 A 
HETATM   80  C   UNK N   1      29.734  13.813   3.216  0.00  0.00     0.007 A 
HETATM   81  C   UNK N   1      29.374  13.373   1.940  0.00  0.00     0.001 A 
HETATM   82  C   UNK N   1      30.267  12.601   1.190  0.00  0.00     0.000 A 
HETATM   83  C   UNK N   1      31.521  12.275   1.714  0.00  0.00     0.001 A 
HETATM   84  C   UNK N   1      31.876  12.705   2.996  0.00  0.00     0.007 A 
ENDBRANCH  78  79
ENDBRANCH  22  78
BRANCH   1  85
HETATM   85  C   UNK N   1      31.406  17.224   6.388  0.00  0.00     0.013 C 
HETATM   86  C   UNK N   1      30.128  16.772   7.077  0.00  0.00     0.012 C 
BRANCH  85  87
HETATM   87  C   UNK N   1      31.150  17.285   4.895  0.00  0.00     0.002 C 
HETATM   88  C   UNK N   1      29.672  17.470   4.608  0.00  0.00     0.005 C 
ENDBRANCH  85  87
ENDBRANCH   1  85
TORSDOF 22
ENDMDL
MODEL 8
REMARK VINA RESULT:      -7.0      1.555      2.432
REMARK  22 active torsions:
REMARK  status: ('A' for Active; 'I' for Inactive)
REMARK    1  A    between atoms: C_2  and  C_3 
REMARK    2  A    between atoms: C_5  and  C_3 
REMARK    3  A    between atoms: C_9  and  C_67 
REMARK    4  A    between atoms: C_13  and  C_63 
REMARK    5  A    between atoms: C_17  and  C_38 
REMARK    6  A    between atoms: C_22  and  N_37 
REMARK    7  A    between atoms: C_26  and  C_30 
REMARK    8  A    between atoms: C_30  and  C_31 
REMARK       I    between atoms: C_38  and  N_40 
REMARK    9  A    between atoms: C_44  and  C_45 
REMARK       I    between atoms: C_45  and  N_47 
REMARK   10  A    between atoms: C_48  and  N_47 
REMARK   11  A    between atoms: C_48  and  C_49 
REMARK   12  A    between atoms: C_48  and  C_56 
REMARK   13  A    between atoms: C_49  and  C_50 
REMARK   14  A    between atoms: C_50  and  C_51 
REMARK   15  A    between atoms: C_51  and  N_52 
REMARK   16  A    between atoms: N_52  and  C_53 
REMARK       I    between atoms: C_56  and  N_58 
REMARK   17  A    between atoms: N_58  and  C_59 
REMARK   18  A    between atoms: C_59  and  C_60 
REMARK       I    between atoms: C_60  and  N_62 
REMARK   19  A    between atoms: C_63  and  C_64 
REMARK       I    between atoms: C_64  and  N_66 
REMARK   20  A    between atoms: C_67  and  C_68 
REMARK   21  A    between atoms: C_68  and  C_69 
REMARK   22  A    between atoms: C_69  and  C_70 
REMARK       I    between atoms: C_70  and  N_72 
ROOT
HETATM    1  C   UNK N   1      24.887  16.478   4.469  0.00  0.00     0.180 C 
HETATM    2  C   UNK N   1      25.494  17.723   5.092  0.00  0.00     0.241 C 
HETATM    3  O   UNK N   1      24.973  18.812   4.890  0.00  0.00    -0.271 OA
HETATM    4  N   UNK N   1      26.590  17.670   5.880  0.00  0.00    -0.346 N 
HETATM    5  C   UNK N   1      27.472  16.528   5.955  0.00  0.00     0.176 C 
HETATM    6  C   UNK N   1      28.235  16.421   4.649  0.00  0.00     0.241 C 
HETATM    7  O   UNK N   1      27.974  17.193   3.734  0.00  0.00    -0.271 OA
HETATM    8  N   UNK N   1      29.192  15.474   4.475  0.00  0.00    -0.346 N 
HETATM    9  C   UNK N   1      29.858  15.287   3.195  0.00  0.00     0.185 C 
HETATM   10  C   UNK N   1      30.832  14.145   3.245  0.00  0.00     0.241 C 
HETATM   11  O   UNK N   1      31.993  14.310   2.899  0.00  0.00    -0.271 OA
HETATM   12  N   UNK N   1      30.401  12.921   3.646  0.00  0.00    -0.345 N 
HETATM   13  C   UNK N   1      31.250  11.750   3.705  0.00  0.00     0.186 C 
HETATM   14  C   UNK N   1      30.445  10.538   4.141  0.00  0.00     0.120 C 
HETATM   15  S   UNK N   1      29.959   9.509   2.702  0.00  0.00    -0.095 SA
HETATM   16  S   UNK N   1      29.598  11.133   1.335  0.00  0.00    -0.095 SA
HETATM   17  C   UNK N   1      27.814  11.440   1.640  0.00  0.00     0.120 C 
HETATM   18  C   UNK N   1      27.308  11.484   3.088  0.00  0.00     0.177 C 
HETATM   19  C   UNK N   1      27.431  12.672   4.022  0.00  0.00     0.241 C 
HETATM   20  O   UNK N   1      28.155  12.576   5.000  0.00  0.00    -0.271 OA
HETATM   21  N   UNK N   1      26.676  13.798   3.881  0.00  0.00    -0.346 N 
HETATM   22  C   UNK N   1      25.700  13.983   2.832  0.00  0.00     0.180 C 
HETATM   23  C   UNK N   1      25.634  15.412   2.316  0.00  0.00     0.241 C 
HETATM   24  O   UNK N   1      25.935  15.598   1.149  0.00  0.00    -0.271 OA
HETATM   25  N   UNK N   1      25.193  16.480   3.051  0.00  0.00    -0.346 N 
HETATM   26  H   UNK N   1      26.801  18.456   6.435  0.00  0.00     0.163 HD
HETATM   27  H   UNK N   1      29.442  14.900   5.235  0.00  0.00     0.163 HD
HETATM   28  H   UNK N   1      29.458  12.824   3.912  0.00  0.00     0.163 HD
HETATM   29  H   UNK N   1      26.803  14.527   4.530  0.00  0.00     0.163 HD
HETATM   30  H   UNK N   1      25.070  17.331   2.571  0.00  0.00     0.163 HD
ENDROOT
BRANCH  13  31
HETATM   31  C   UNK N   1      32.399  12.039   4.585  0.00  0.00     0.244 C 
HETATM   32  O   UNK N   1      32.189  12.319   5.758  0.00  0.00    -0.271 OA
HETATM   33  N   UNK N   1      33.656  12.089   4.052  0.00  0.00    -0.337 N 
HETATM   34  C   UNK N   1      33.962  11.474   2.797  0.00  0.00     0.127 C 
HETATM   35  C   UNK N   1      34.850  12.519   4.705  0.00  0.00     0.179 C 
HETATM   36  C   UNK N   1      35.357  10.883   3.062  0.00  0.00     0.022 C 
HETATM   37  C   UNK N   1      35.784  11.362   4.474  0.00  0.00     0.037 C 
BRANCH  35  38
HETATM   38  C   UNK N   1      34.673  13.191   6.034  0.00  0.00     0.241 C 
HETATM   39  O   UNK N   1      35.060  12.669   7.067  0.00  0.00    -0.271 OA
HETATM   40  N   UNK N   1      34.052  14.398   6.043  0.00  0.00    -0.346 N 
HETATM   41  H   UNK N   1      33.797  14.787   5.176  0.00  0.00     0.163 HD
BRANCH  40  42
HETATM   42  C   UNK N   1      33.740  15.153   7.234  0.00  0.00     0.176 C 
BRANCH  42  43
HETATM   43  C   UNK N   1      33.883  16.650   6.964  0.00  0.00     0.036 C 
BRANCH  43  44
HETATM   44  C   UNK N   1      34.466  17.414   8.148  0.00  0.00     0.022 C 
BRANCH  44  45
HETATM   45  C   UNK N   1      34.383  16.557   9.401  0.00  0.00     0.114 C 
BRANCH  45  46
HETATM   46  N   UNK N   1      35.314  17.020  10.432  0.00  0.00    -0.418 N 
HETATM   47  H   UNK N   1      35.387  17.983  10.760  0.00  0.00     0.153 HD
BRANCH  46  48
HETATM   48  C   UNK N   1      36.124  15.906  10.927  0.00  0.00     0.068 C 
HETATM   49  C   UNK N   1      35.354  15.159  11.995  0.00  0.00     0.031 C 
HETATM   50  C   UNK N   1      36.484  14.938   9.813  0.00  0.00     0.031 C 
ENDBRANCH  46  48
ENDBRANCH  45  46
ENDBRANCH  44  45
ENDBRANCH  43  44
ENDBRANCH  42  43
BRANCH  42  51
HETATM   51  C   UNK N   1      32.423  14.656   7.825  0.00  0.00     0.240 C 
HETATM   52  O   UNK N   1      31.394  15.175   7.426  0.00  0.00    -0.271 OA
HETATM   53  N   UNK N   1      32.318  13.671   8.757  0.00  0.00    -0.351 N 
HETATM   54  H   UNK N   1      31.408  13.416   9.033  0.00  0.00     0.163 HD
BRANCH  53  55
HETATM   55  C   UNK N   1      33.409  12.962   9.382  0.00  0.00     0.225 C 
BRANCH  55  56
HETATM   56  C   UNK N   1      33.119  11.499   9.510  0.00  0.00     0.233 C 
HETATM   57  O   UNK N   1      32.642  10.869   8.579  0.00  0.00    -0.272 OA
HETATM   58  N   UNK N   1      33.389  10.871  10.670  0.00  0.00    -0.369 N 
HETATM   59  H   UNK N   1      34.232  10.892  11.180  0.00  0.00     0.159 HD
HETATM   60  H   UNK N   1      32.661  10.329  11.053  0.00  0.00     0.159 HD
ENDBRANCH  55  56
ENDBRANCH  53  55
ENDBRANCH  42  51
ENDBRANCH  40  42
ENDBRANCH  35  38
ENDBRANCH  13  31
BRANCH   9  61
HETATM   61  C   UNK N   1      30.468  16.585   2.619  0.00  0.00     0.137 C 
BRANCH  61  62
HETATM   62  C   UNK N   1      31.560  17.198   3.444  0.00  0.00     0.217 C 
HETATM   63  O   UNK N   1      31.287  17.865   4.427  0.00  0.00    -0.274 OA
HETATM   64  N   UNK N   1      32.841  17.084   3.049  0.00  0.00    -0.370 N 
HETATM   65  H   UNK N   1      33.196  16.444   2.390  0.00  0.00     0.159 HD
HETATM   66  H   UNK N   1      33.489  17.701   3.460  0.00  0.00     0.159 HD
ENDBRANCH  61  62
ENDBRANCH   9  61
BRANCH  18  67
HETATM   67  N   UNK N   1      27.262  10.195   3.756  0.00  0.00    -0.418 N 
HETATM   68  H   UNK N   1      26.695   9.538   4.291  0.00  0.00     0.150 HD
HETATM   69  H   UNK N   1      28.181   9.767   3.640  0.00  0.00     0.150 HD
ENDBRANCH  18  67
BRANCH   5  70
HETATM   70  C   UNK N   1      28.413  16.697   7.150  0.00  0.00     0.035 C 
BRANCH  70  71
HETATM   71  C   UNK N   1      28.671  18.160   7.486  0.00  0.00     0.012 C 
BRANCH  71  72
HETATM   72  C   UNK N   1      28.557  18.377   8.984  0.00  0.00     0.103 C 
BRANCH  72  73
HETATM   73  C   UNK N   1      29.579  17.563   9.705  0.00  0.00     0.215 C 
HETATM   74  O   UNK N   1      29.234  16.817  10.604  0.00  0.00    -0.274 OA
HETATM   75  N   UNK N   1      30.880  17.643   9.360  0.00  0.00    -0.370 N 
HETATM   76  H   UNK N   1      31.596  18.311   9.255  0.00  0.00     0.159 HD
HETATM   77  H   UNK N   1      31.224  16.747   9.144  0.00  0.00     0.159 HD
ENDBRANCH  72  73
ENDBRANCH  71  72
ENDBRANCH  70  71
ENDBRANCH   5  70
BRANCH  22  78
HETATM   78  C   UNK N   1      24.332  13.512   3.292  0.00  0.00     0.073 C 
BRANCH  78  79
HETATM   79  C   UNK N   1      23.560  12.847   2.212  0.00  0.00    -0.056 A 
HETATM   80  C   UNK N   1      24.216  12.354   1.079  0.00  0.00     0.007 A 
HETATM   81  C   UNK N   1      23.484  11.728   0.066  0.00  0.00     0.001 A 
HETATM   82  C   UNK N   1      22.100  11.576   0.196  0.00  0.00     0.000 A 
HETATM   83  C   UNK N   1      21.449  12.043   1.341  0.00  0.00     0.001 A 
HETATM   84  C   UNK N   1      22.179  12.680   2.348  0.00  0.00     0.007 A 
ENDBRANCH  78  79
ENDBRANCH  22  78
BRANCH   1  85
HETATM   85  C   UNK N   1      23.366  16.582   4.758  0.00  0.00     0.013 C 
HETATM   86  C   UNK N   1      22.980  15.646   5.893  0.00  0.00     0.012 C 
BRANCH  85  87
HETATM   87  C   UNK N   1      22.432  16.330   3.591  0.00  0.00     0.002 C 
HETATM   88  C   UNK N   1      21.010  16.119   4.073  0.00  0.00     0.005 C 
ENDBRANCH  85  87
ENDBRANCH   1  85
TORSDOF 22
ENDMDL
MODEL 9
REMARK VINA RESULT:      -7.0      4.419      7.535
REMARK  22 active torsions:
REMARK  status: ('A' for Active; 'I' for Inactive)
REMARK    1  A    between atoms: C_2  and  C_3 
REMARK    2  A    between atoms: C_5  and  C_3 
REMARK    3  A    between atoms: C_9  and  C_67 
REMARK    4  A    between atoms: C_13  and  C_63 
REMARK    5  A    between atoms: C_17  and  C_38 
REMARK    6  A    between atoms: C_22  and  N_37 
REMARK    7  A    between atoms: C_26  and  C_30 
REMARK    8  A    between atoms: C_30  and  C_31 
REMARK       I    between atoms: C_38  and  N_40 
REMARK    9  A    between atoms: C_44  and  C_45 
REMARK       I    between atoms: C_45  and  N_47 
REMARK   10  A    between atoms: C_48  and  N_47 
REMARK   11  A    between atoms: C_48  and  C_49 
REMARK   12  A    between atoms: C_48  and  C_56 
REMARK   13  A    between atoms: C_49  and  C_50 
REMARK   14  A    between atoms: C_50  and  C_51 
REMARK   15  A    between atoms: C_51  and  N_52 
REMARK   16  A    between atoms: N_52  and  C_53 
REMARK       I    between atoms: C_56  and  N_58 
REMARK   17  A    between atoms: N_58  and  C_59 
REMARK   18  A    between atoms: C_59  and  C_60 
REMARK       I    between atoms: C_60  and  N_62 
REMARK   19  A    between atoms: C_63  and  C_64 
REMARK       I    between atoms: C_64  and  N_66 
REMARK   20  A    between atoms: C_67  and  C_68 
REMARK   21  A    between atoms: C_68  and  C_69 
REMARK   22  A    between atoms: C_69  and  C_70 
REMARK       I    between atoms: C_70  and  N_72 
ROOT
HETATM    1  C   UNK N   1      33.348  16.026   5.797  0.00  0.00     0.180 C 
HETATM    2  C   UNK N   1      34.116  16.716   6.911  0.00  0.00     0.241 C 
HETATM    3  O   UNK N   1      34.605  17.819   6.711  0.00  0.00    -0.271 OA
HETATM    4  N   UNK N   1      34.268  16.157   8.132  0.00  0.00    -0.346 N 
HETATM    5  C   UNK N   1      34.017  14.762   8.414  0.00  0.00     0.176 C 
HETATM    6  C   UNK N   1      35.100  13.934   7.747  0.00  0.00     0.241 C 
HETATM    7  O   UNK N   1      35.931  14.488   7.039  0.00  0.00    -0.271 OA
HETATM    8  N   UNK N   1      35.150  12.588   7.912  0.00  0.00    -0.346 N 
HETATM    9  C   UNK N   1      36.113  11.765   7.195  0.00  0.00     0.185 C 
HETATM   10  C   UNK N   1      35.929  10.308   7.507  0.00  0.00     0.241 C 
HETATM   11  O   UNK N   1      36.875   9.637   7.895  0.00  0.00    -0.271 OA
HETATM   12  N   UNK N   1      34.710   9.737   7.322  0.00  0.00    -0.345 N 
HETATM   13  C   UNK N   1      34.434   8.337   7.566  0.00  0.00     0.186 C 
HETATM   14  C   UNK N   1      32.993   8.016   7.208  0.00  0.00     0.120 C 
HETATM   15  S   UNK N   1      32.876   7.244   5.549  0.00  0.00    -0.095 SA
HETATM   16  S   UNK N   1      34.426   8.409   4.613  0.00  0.00    -0.095 SA
HETATM   17  C   UNK N   1      33.443   9.815   3.961  0.00  0.00     0.120 C 
HETATM   18  C   UNK N   1      32.389  10.465   4.867  0.00  0.00     0.177 C 
HETATM   19  C   UNK N   1      32.678  11.479   5.958  0.00  0.00     0.241 C 
HETATM   20  O   UNK N   1      32.489  11.158   7.120  0.00  0.00    -0.271 OA
HETATM   21  N   UNK N   1      33.026  12.768   5.688  0.00  0.00    -0.346 N 
HETATM   22  C   UNK N   1      33.166  13.297   4.351  0.00  0.00     0.180 C 
HETATM   23  C   UNK N   1      34.294  14.309   4.220  0.00  0.00     0.241 C 
HETATM   24  O   UNK N   1      35.221  14.019   3.481  0.00  0.00    -0.271 OA
HETATM   25  N   UNK N   1      34.302  15.542   4.816  0.00  0.00    -0.346 N 
HETATM   26  H   UNK N   1      34.566  16.733   8.872  0.00  0.00     0.163 HD
HETATM   27  H   UNK N   1      34.519  12.157   8.533  0.00  0.00     0.163 HD
HETATM   28  H   UNK N   1      33.974  10.307   7.003  0.00  0.00     0.163 HD
HETATM   29  H   UNK N   1      33.190  13.374   6.446  0.00  0.00     0.163 HD
HETATM   30  H   UNK N   1      35.021  16.160   4.553  0.00  0.00     0.163 HD
ENDROOT
BRANCH  13  31
HETATM   31  C   UNK N   1      34.776   8.021   8.967  0.00  0.00     0.244 C 
HETATM   32  O   UNK N   1      34.261   8.679   9.863  0.00  0.00    -0.271 OA
HETATM   33  N   UNK N   1      35.730   7.080   9.229  0.00  0.00    -0.337 N 
HETATM   34  C   UNK N   1      36.105   6.103   8.253  0.00  0.00     0.127 C 
HETATM   35  C   UNK N   1      36.307   6.771  10.497  0.00  0.00     0.179 C 
HETATM   36  C   UNK N   1      36.281   4.841   9.115  0.00  0.00     0.022 C 
HETATM   37  C   UNK N   1      36.110   5.282  10.592  0.00  0.00     0.037 C 
BRANCH  35  38
HETATM   38  C   UNK N   1      36.000   7.723  11.614  0.00  0.00     0.241 C 
HETATM   39  O   UNK N   1      35.170   7.455  12.467  0.00  0.00    -0.271 OA
HETATM   40  N   UNK N   1      36.674   8.901  11.631  0.00  0.00    -0.346 N 
HETATM   41  H   UNK N   1      37.360   9.046  10.940  0.00  0.00     0.163 HD
BRANCH  40  42
HETATM   42  C   UNK N   1      36.458   9.958  12.591  0.00  0.00     0.176 C 
BRANCH  42  43
HETATM   43  C   UNK N   1      37.794  10.543  13.044  0.00  0.00     0.036 C 
BRANCH  43  44
HETATM   44  C   UNK N   1      37.947  10.572  14.561  0.00  0.00     0.022 C 
BRANCH  44  45
HETATM   45  C   UNK N   1      38.093   9.153  15.087  0.00  0.00     0.114 C 
BRANCH  45  46
HETATM   46  N   UNK N   1      36.979   8.786  15.963  0.00  0.00    -0.418 N 
HETATM   47  H   UNK N   1      36.510   9.424  16.606  0.00  0.00     0.153 HD
BRANCH  46  48
HETATM   48  C   UNK N   1      36.632   7.376  15.786  0.00  0.00     0.068 C 
HETATM   49  C   UNK N   1      37.625   6.727  14.845  0.00  0.00     0.031 C 
HETATM   50  C   UNK N   1      36.645   6.626  17.107  0.00  0.00     0.031 C 
ENDBRANCH  46  48
ENDBRANCH  45  46
ENDBRANCH  44  45
ENDBRANCH  43  44
ENDBRANCH  42  43
BRANCH  42  51
HETATM   51  C   UNK N   1      35.400  10.922  12.061  0.00  0.00     0.240 C 
HETATM   52  O   UNK N   1      35.653  11.531  11.036  0.00  0.00    -0.271 OA
HETATM   53  N   UNK N   1      34.192  11.143  12.648  0.00  0.00    -0.351 N 
HETATM   54  H   UNK N   1      33.582  11.763  12.189  0.00  0.00     0.163 HD
BRANCH  53  55
HETATM   55  C   UNK N   1      33.718  10.556  13.879  0.00  0.00     0.225 C 
BRANCH  55  56
HETATM   56  C   UNK N   1      34.310  11.229  15.079  0.00  0.00     0.233 C 
HETATM   57  O   UNK N   1      34.673  10.580  16.047  0.00  0.00    -0.272 OA
HETATM   58  N   UNK N   1      34.444  12.568  15.086  0.00  0.00    -0.369 N 
HETATM   59  H   UNK N   1      34.856  13.132  14.391  0.00  0.00     0.159 HD
HETATM   60  H   UNK N   1      34.089  13.038  15.875  0.00  0.00     0.159 HD
ENDBRANCH  55  56
ENDBRANCH  53  55
ENDBRANCH  42  51
ENDBRANCH  40  42
ENDBRANCH  35  38
ENDBRANCH  13  31
BRANCH   9  61
HETATM   61  C   UNK N   1      37.573  12.244   7.353  0.00  0.00     0.137 C 
BRANCH  61  62
HETATM   62  C   UNK N   1      38.019  12.481   8.766  0.00  0.00     0.217 C 
HETATM   63  O   UNK N   1      38.133  13.617   9.192  0.00  0.00    -0.274 OA
HETATM   64  N   UNK N   1      38.377  11.439   9.538  0.00  0.00    -0.370 N 
HETATM   65  H   UNK N   1      38.170  10.490   9.374  0.00  0.00     0.159 HD
HETATM   66  H   UNK N   1      38.896  11.646  10.349  0.00  0.00     0.159 HD
ENDBRANCH  61  62
ENDBRANCH   9  61
BRANCH  18  67
HETATM   67  N   UNK N   1      31.201   9.660   5.092  0.00  0.00    -0.418 N 
HETATM   68  H   UNK N   1      30.823   8.719   5.199  0.00  0.00     0.150 HD
HETATM   69  H   UNK N   1      30.417  10.306   5.183  0.00  0.00     0.150 HD
ENDBRANCH  18  67
BRANCH   5  70
HETATM   70  C   UNK N   1      33.995  14.551   9.929  0.00  0.00     0.035 C 
BRANCH  70  71
HETATM   71  C   UNK N   1      35.257  15.068  10.608  0.00  0.00     0.012 C 
BRANCH  71  72
HETATM   72  C   UNK N   1      35.095  15.016  12.116  0.00  0.00     0.103 C 
BRANCH  72  73
HETATM   73  C   UNK N   1      36.322  14.453  12.750  0.00  0.00     0.215 C 
HETATM   74  O   UNK N   1      36.451  14.492  13.961  0.00  0.00    -0.274 OA
HETATM   75  N   UNK N   1      37.285  13.894  11.990  0.00  0.00    -0.370 N 
HETATM   76  H   UNK N   1      37.870  14.110  11.228  0.00  0.00     0.159 HD
HETATM   77  H   UNK N   1      37.460  12.974  12.295  0.00  0.00     0.159 HD
ENDBRANCH  72  73
ENDBRANCH  71  72
ENDBRANCH  70  71
ENDBRANCH   5  70
BRANCH  22  78
HETATM   78  C   UNK N   1      31.853  13.891   3.875  0.00  0.00     0.073 C 
BRANCH  78  79
HETATM   79  C   UNK N   1      31.351  13.251   2.632  0.00  0.00    -0.056 A 
HETATM   80  C   UNK N   1      32.230  12.569   1.786  0.00  0.00     0.007 A 
HETATM   81  C   UNK N   1      31.752  11.968   0.618  0.00  0.00     0.001 A 
HETATM   82  C   UNK N   1      30.390  12.031   0.309  0.00  0.00     0.000 A 
HETATM   83  C   UNK N   1      29.506  12.689   1.169  0.00  0.00     0.001 A 
HETATM   84  C   UNK N   1      29.987  13.300   2.330  0.00  0.00     0.007 A 
ENDBRANCH  78  79
ENDBRANCH  22  78
BRANCH   1  85
HETATM   85  C   UNK N   1      32.398  17.112   5.228  0.00  0.00     0.013 C 
HETATM   86  C   UNK N   1      30.947  16.692   5.414  0.00  0.00     0.012 C 
BRANCH  85  87
HETATM   87  C   UNK N   1      32.600  17.505   3.778  0.00  0.00     0.002 C 
HETATM   88  C   UNK N   1      31.455  17.008   2.918  0.00  0.00     0.005 C 
ENDBRANCH  85  87
ENDBRANCH   1  85
TORSDOF 22
ENDMDL
