MODEL 1
REMARK VINA RESULT:      -5.4      0.000      0.000
REMARK  7 active torsions:
REMARK  status: ('A' for Active; 'I' for Inactive)
REMARK    1  A    between atoms: C_3  and  C_2 
REMARK    2  A    between atoms: O_15  and  C_3 
REMARK    3  A    between atoms: C_10  and  C_6 
REMARK    4  A    between atoms: O_11  and  C_7 
REMARK    5  A    between atoms: O_12  and  C_8 
REMARK    6  A    between atoms: O_13  and  C_9 
REMARK    7  A    between atoms: O_15  and  C_10 
ROOT
HETATM    1  C   UNK N   1      32.583  16.094   8.662  0.00  0.00     0.057 A 
HETATM    2  C   UNK N   1      33.386  18.107   7.584  0.00  0.00     0.057 A 
HETATM    3  C   UNK N   1      32.447  17.073   7.667  0.00  0.00     0.044 A 
HETATM    4  C   UNK N   1      33.654  16.157   9.564  0.00  0.00     0.102 A 
HETATM    5  C   UNK N   1      34.451  18.174   8.478  0.00  0.00     0.102 A 
HETATM    6  C   UNK N   1      34.590  17.198   9.473  0.00  0.00     0.132 A 
ENDROOT
BRANCH   3   7
HETATM    7  C   UNK N   1      31.336  17.046   6.698  0.00  0.00     0.293 C 
HETATM    8  O   UNK N   1      31.544  17.190   5.501  0.00  0.00    -0.259 OA
BRANCH   7   9
HETATM    9  O   UNK N   1      30.079  16.858   7.170  0.00  0.00    -0.318 OA
BRANCH   9  10
HETATM   10  C   UNK N   1      29.187  17.865   7.432  0.00  0.00     0.178 C 
BRANCH  10  11
HETATM   11  C   UNK N   1      28.813  17.775   8.899  0.00  0.00     0.022 C 
HETATM   12  C   UNK N   1      29.729  18.642   9.733  0.00  0.00     0.007 C 
ENDBRANCH  10  11
ENDBRANCH   9  10
ENDBRANCH   7   9
ENDBRANCH   3   7
BRANCH   4  13
HETATM   13  O   UNK N   1      33.779  15.216  10.516  0.00  0.00    -0.358 OA
HETATM   14  H   UNK N   1      33.994  14.335  10.278  0.00  0.00     0.217 HD
ENDBRANCH   4  13
BRANCH   5  15
HETATM   15  O   UNK N   1      35.340  19.177   8.377  0.00  0.00    -0.358 OA
HETATM   16  H   UNK N   1      35.053  20.034   8.128  0.00  0.00     0.217 HD
ENDBRANCH   5  15
BRANCH   6  17
HETATM   17  O   UNK N   1      35.620  17.261  10.337  0.00  0.00    -0.356 OA
HETATM   18  H   UNK N   1      36.470  17.512  10.034  0.00  0.00     0.218 HD
ENDBRANCH   6  17
TORSDOF 7
ENDMDL
MODEL 2
REMARK VINA RESULT:      -5.3      0.156      2.148
REMARK  7 active torsions:
REMARK  status: ('A' for Active; 'I' for Inactive)
REMARK    1  A    between atoms: C_3  and  C_2 
REMARK    2  A    between atoms: O_15  and  C_3 
REMARK    3  A    between atoms: C_10  and  C_6 
REMARK    4  A    between atoms: O_11  and  C_7 
REMARK    5  A    between atoms: O_12  and  C_8 
REMARK    6  A    between atoms: O_13  and  C_9 
REMARK    7  A    between atoms: O_15  and  C_10 
ROOT
HETATM    1  C   UNK N   1      33.371  18.056   7.546  0.00  0.00     0.057 A 
HETATM    2  C   UNK N   1      32.582  16.095   8.724  0.00  0.00     0.057 A 
HETATM    3  C   UNK N   1      32.425  17.031   7.697  0.00  0.00     0.044 A 
HETATM    4  C   UNK N   1      34.463  18.136   8.420  0.00  0.00     0.102 A 
HETATM    5  C   UNK N   1      33.665  16.169   9.596  0.00  0.00     0.102 A 
HETATM    6  C   UNK N   1      34.611  17.191   9.447  0.00  0.00     0.132 A 
ENDROOT
BRANCH   3   7
HETATM    7  C   UNK N   1      31.261  16.909   6.799  0.00  0.00     0.293 C 
HETATM    8  O   UNK N   1      31.408  16.848   5.587  0.00  0.00    -0.259 OA
BRANCH   7   9
HETATM    9  O   UNK N   1      30.025  16.867   7.356  0.00  0.00    -0.318 OA
BRANCH   9  10
HETATM   10  C   UNK N   1      29.163  17.932   7.418  0.00  0.00     0.178 C 
BRANCH  10  11
HETATM   11  C   UNK N   1      28.624  18.002   8.834  0.00  0.00     0.022 C 
HETATM   12  C   UNK N   1      29.656  18.597   9.765  0.00  0.00     0.007 C 
ENDBRANCH  10  11
ENDBRANCH   9  10
ENDBRANCH   7   9
ENDBRANCH   3   7
BRANCH   4  13
HETATM   13  O   UNK N   1      35.365  19.119   8.271  0.00  0.00    -0.358 OA
HETATM   14  H   UNK N   1      35.823  19.216   7.459  0.00  0.00     0.217 HD
ENDBRANCH   4  13
BRANCH   5  15
HETATM   15  O   UNK N   1      33.793  15.257  10.574  0.00  0.00    -0.358 OA
HETATM   16  H   UNK N   1      33.326  14.446  10.523  0.00  0.00     0.217 HD
ENDBRANCH   5  15
BRANCH   6  17
HETATM   17  O   UNK N   1      35.658  17.264  10.289  0.00  0.00    -0.356 OA
HETATM   18  H   UNK N   1      36.449  16.801  10.095  0.00  0.00     0.218 HD
ENDBRANCH   6  17
TORSDOF 7
ENDMDL
MODEL 3
REMARK VINA RESULT:      -5.2      9.989     11.456
REMARK  7 active torsions:
REMARK  status: ('A' for Active; 'I' for Inactive)
REMARK    1  A    between atoms: C_3  and  C_2 
REMARK    2  A    between atoms: O_15  and  C_3 
REMARK    3  A    between atoms: C_10  and  C_6 
REMARK    4  A    between atoms: O_11  and  C_7 
REMARK    5  A    between atoms: O_12  and  C_8 
REMARK    6  A    between atoms: O_13  and  C_9 
REMARK    7  A    between atoms: O_15  and  C_10 
ROOT
HETATM    1  C   UNK N   1      21.294  12.883  10.092  0.00  0.00     0.057 A 
HETATM    2  C   UNK N   1      23.709  13.011   9.999  0.00  0.00     0.057 A 
HETATM    3  C   UNK N   1      22.462  13.282   9.426  0.00  0.00     0.044 A 
HETATM    4  C   UNK N   1      21.382  12.218  11.323  0.00  0.00     0.102 A 
HETATM    5  C   UNK N   1      23.802  12.351  11.221  0.00  0.00     0.102 A 
HETATM    6  C   UNK N   1      22.638  11.951  11.889  0.00  0.00     0.132 A 
ENDROOT
BRANCH   3   7
HETATM    7  C   UNK N   1      22.416  13.984   8.130  0.00  0.00     0.293 C 
HETATM    8  O   UNK N   1      23.401  14.031   7.407  0.00  0.00    -0.259 OA
BRANCH   7   9
HETATM    9  O   UNK N   1      21.251  14.574   7.762  0.00  0.00    -0.318 OA
BRANCH   9  10
HETATM   10  C   UNK N   1      21.018  15.925   7.799  0.00  0.00     0.178 C 
BRANCH  10  11
HETATM   11  C   UNK N   1      19.851  16.162   8.738  0.00  0.00     0.022 C 
HETATM   12  C   UNK N   1      19.595  17.644   8.902  0.00  0.00     0.007 C 
ENDBRANCH  10  11
ENDBRANCH   9  10
ENDBRANCH   7   9
ENDBRANCH   3   7
BRANCH   4  13
HETATM   13  O   UNK N   1      20.260  11.838  11.957  0.00  0.00    -0.358 OA
HETATM   14  H   UNK N   1      20.314  11.413  12.790  0.00  0.00     0.217 HD
ENDBRANCH   4  13
BRANCH   5  15
HETATM   15  O   UNK N   1      25.012  12.103  11.750  0.00  0.00    -0.358 OA
HETATM   16  H   UNK N   1      25.330  11.223  11.801  0.00  0.00     0.217 HD
ENDBRANCH   5  15
BRANCH   6  17
HETATM   17  O   UNK N   1      22.727  11.313  13.070  0.00  0.00    -0.356 OA
HETATM   18  H   UNK N   1      22.585  10.388  13.115  0.00  0.00     0.218 HD
ENDBRANCH   6  17
TORSDOF 7
ENDMDL
MODEL 4
REMARK VINA RESULT:      -5.1      1.697      3.690
REMARK  7 active torsions:
REMARK  status: ('A' for Active; 'I' for Inactive)
REMARK    1  A    between atoms: C_3  and  C_2 
REMARK    2  A    between atoms: O_15  and  C_3 
REMARK    3  A    between atoms: C_10  and  C_6 
REMARK    4  A    between atoms: O_11  and  C_7 
REMARK    5  A    between atoms: O_12  and  C_8 
REMARK    6  A    between atoms: O_13  and  C_9 
REMARK    7  A    between atoms: O_15  and  C_10 
ROOT
HETATM    1  C   UNK N   1      33.516  17.950   7.417  0.00  0.00     0.057 A 
HETATM    2  C   UNK N   1      32.776  15.929   8.523  0.00  0.00     0.057 A 
HETATM    3  C   UNK N   1      32.653  16.846   7.474  0.00  0.00     0.044 A 
HETATM    4  C   UNK N   1      34.493  18.128   8.406  0.00  0.00     0.102 A 
HETATM    5  C   UNK N   1      33.745  16.101   9.508  0.00  0.00     0.102 A 
HETATM    6  C   UNK N   1      34.608  17.202   9.454  0.00  0.00     0.132 A 
ENDROOT
BRANCH   3   7
HETATM    7  C   UNK N   1      31.611  16.621   6.454  0.00  0.00     0.293 C 
HETATM    8  O   UNK N   1      30.777  15.738   6.596  0.00  0.00    -0.259 OA
BRANCH   7   9
HETATM    9  O   UNK N   1      31.605  17.419   5.358  0.00  0.00    -0.318 OA
BRANCH   9  10
HETATM   10  C   UNK N   1      31.222  17.016   4.105  0.00  0.00     0.178 C 
BRANCH  10  11
HETATM   11  C   UNK N   1      32.411  17.195   3.183  0.00  0.00     0.022 C 
HETATM   12  C   UNK N   1      33.255  15.940   3.155  0.00  0.00     0.007 C 
ENDBRANCH  10  11
ENDBRANCH   9  10
ENDBRANCH   7   9
ENDBRANCH   3   7
BRANCH   4  13
HETATM   13  O   UNK N   1      35.317  19.187   8.346  0.00  0.00    -0.358 OA
HETATM   14  H   UNK N   1      34.968  20.056   8.390  0.00  0.00     0.217 HD
ENDBRANCH   4  13
BRANCH   5  15
HETATM   15  O   UNK N   1      33.843  15.205  10.505  0.00  0.00    -0.358 OA
HETATM   16  H   UNK N   1      33.432  14.367  10.424  0.00  0.00     0.217 HD
ENDBRANCH   5  15
BRANCH   6  17
HETATM   17  O   UNK N   1      35.545  17.369  10.406  0.00  0.00    -0.356 OA
HETATM   18  H   UNK N   1      36.320  16.844  10.397  0.00  0.00     0.218 HD
ENDBRANCH   6  17
TORSDOF 7
ENDMDL
MODEL 5
REMARK VINA RESULT:      -5.1     10.147     13.175
REMARK  7 active torsions:
REMARK  status: ('A' for Active; 'I' for Inactive)
REMARK    1  A    between atoms: C_3  and  C_2 
REMARK    2  A    between atoms: O_15  and  C_3 
REMARK    3  A    between atoms: C_10  and  C_6 
REMARK    4  A    between atoms: O_11  and  C_7 
REMARK    5  A    between atoms: O_12  and  C_8 
REMARK    6  A    between atoms: O_13  and  C_9 
REMARK    7  A    between atoms: O_15  and  C_10 
ROOT
HETATM    1  C   UNK N   1      20.471  17.646   2.268  0.00  0.00     0.057 A 
HETATM    2  C   UNK N   1      20.999  19.603   3.591  0.00  0.00     0.057 A 
HETATM    3  C   UNK N   1      20.731  18.232   3.516  0.00  0.00     0.044 A 
HETATM    4  C   UNK N   1      20.480  18.434   1.109  0.00  0.00     0.102 A 
HETATM    5  C   UNK N   1      21.009  20.390   2.442  0.00  0.00     0.102 A 
HETATM    6  C   UNK N   1      20.749  19.808   1.195  0.00  0.00     0.132 A 
ENDROOT
BRANCH   3   7
HETATM    7  C   UNK N   1      20.732  17.441   4.761  0.00  0.00     0.293 C 
HETATM    8  O   UNK N   1      19.857  16.614   4.978  0.00  0.00    -0.259 OA
BRANCH   7   9
HETATM    9  O   UNK N   1      21.727  17.656   5.656  0.00  0.00    -0.318 OA
BRANCH   9  10
HETATM   10  C   UNK N   1      22.697  16.741   5.977  0.00  0.00     0.178 C 
BRANCH  10  11
HETATM   11  C   UNK N   1      23.741  16.777   4.879  0.00  0.00     0.022 C 
HETATM   12  C   UNK N   1      24.324  18.166   4.746  0.00  0.00     0.007 C 
ENDBRANCH  10  11
ENDBRANCH   9  10
ENDBRANCH   7   9
ENDBRANCH   3   7
BRANCH   4  13
HETATM   13  O   UNK N   1      20.230  17.867  -0.083  0.00  0.00    -0.358 OA
HETATM   14  H   UNK N   1      20.016  18.403  -0.822  0.00  0.00     0.217 HD
ENDBRANCH   4  13
BRANCH   5  15
HETATM   15  O   UNK N   1      21.269  21.705   2.541  0.00  0.00    -0.358 OA
HETATM   16  H   UNK N   1      21.766  22.135   1.874  0.00  0.00     0.217 HD
ENDBRANCH   5  15
BRANCH   6  17
HETATM   17  O   UNK N   1      20.759  20.567   0.084  0.00  0.00    -0.356 OA
HETATM   18  H   UNK N   1      20.201  21.317   0.025  0.00  0.00     0.218 HD
ENDBRANCH   6  17
TORSDOF 7
ENDMDL
MODEL 6
REMARK VINA RESULT:      -5.0      8.989     11.344
REMARK  7 active torsions:
REMARK  status: ('A' for Active; 'I' for Inactive)
REMARK    1  A    between atoms: C_3  and  C_2 
REMARK    2  A    between atoms: O_15  and  C_3 
REMARK    3  A    between atoms: C_10  and  C_6 
REMARK    4  A    between atoms: O_11  and  C_7 
REMARK    5  A    between atoms: O_12  and  C_8 
REMARK    6  A    between atoms: O_13  and  C_9 
REMARK    7  A    between atoms: O_15  and  C_10 
ROOT
HETATM    1  C   UNK N   1      35.088  13.367  18.260  0.00  0.00     0.057 A 
HETATM    2  C   UNK N   1      35.733  11.215  17.361  0.00  0.00     0.057 A 
HETATM    3  C   UNK N   1      35.434  12.567  17.161  0.00  0.00     0.044 A 
HETATM    4  C   UNK N   1      35.044  12.812  19.546  0.00  0.00     0.102 A 
HETATM    5  C   UNK N   1      35.691  10.658  18.636  0.00  0.00     0.102 A 
HETATM    6  C   UNK N   1      35.346  11.454  19.735  0.00  0.00     0.132 A 
ENDROOT
BRANCH   3   7
HETATM    7  C   UNK N   1      35.492  13.110  15.791  0.00  0.00     0.293 C 
HETATM    8  O   UNK N   1      36.446  13.783  15.424  0.00  0.00    -0.259 OA
BRANCH   7   9
HETATM    9  O   UNK N   1      34.460  12.845  14.953  0.00  0.00    -0.318 OA
BRANCH   9  10
HETATM   10  C   UNK N   1      34.547  12.046  13.841  0.00  0.00     0.178 C 
BRANCH  10  11
HETATM   11  C   UNK N   1      33.875  10.728  14.171  0.00  0.00     0.022 C 
HETATM   12  C   UNK N   1      34.877   9.596  14.126  0.00  0.00     0.007 C 
ENDBRANCH  10  11
ENDBRANCH   9  10
ENDBRANCH   7   9
ENDBRANCH   3   7
BRANCH   4  13
HETATM   13  O   UNK N   1      34.713  13.583  20.594  0.00  0.00    -0.358 OA
HETATM   14  H   UNK N   1      33.886  13.466  21.020  0.00  0.00     0.217 HD
ENDBRANCH   4  13
BRANCH   5  15
HETATM   15  O   UNK N   1      35.983   9.356  18.801  0.00  0.00    -0.358 OA
HETATM   16  H   UNK N   1      36.562   8.927  18.203  0.00  0.00     0.217 HD
ENDBRANCH   5  15
BRANCH   6  17
HETATM   17  O   UNK N   1      35.306  10.917  20.968  0.00  0.00    -0.356 OA
HETATM   18  H   UNK N   1      36.094  10.616  21.374  0.00  0.00     0.218 HD
ENDBRANCH   6  17
TORSDOF 7
ENDMDL
MODEL 7
REMARK VINA RESULT:      -5.0      9.938     11.370
REMARK  7 active torsions:
REMARK  status: ('A' for Active; 'I' for Inactive)
REMARK    1  A    between atoms: C_3  and  C_2 
REMARK    2  A    between atoms: O_15  and  C_3 
REMARK    3  A    between atoms: C_10  and  C_6 
REMARK    4  A    between atoms: O_11  and  C_7 
REMARK    5  A    between atoms: O_12  and  C_8 
REMARK    6  A    between atoms: O_13  and  C_9 
REMARK    7  A    between atoms: O_15  and  C_10 
ROOT
HETATM    1  C   UNK N   1      23.903  12.795   9.735  0.00  0.00     0.057 A 
HETATM    2  C   UNK N   1      21.491  12.625   9.822  0.00  0.00     0.057 A 
HETATM    3  C   UNK N   1      22.654  12.945   9.114  0.00  0.00     0.044 A 
HETATM    4  C   UNK N   1      23.979  12.327  11.054  0.00  0.00     0.102 A 
HETATM    5  C   UNK N   1      21.560  12.160  11.132  0.00  0.00     0.102 A 
HETATM    6  C   UNK N   1      22.805  12.009  11.754  0.00  0.00     0.132 A 
ENDROOT
BRANCH   3   7
HETATM    7  C   UNK N   1      22.529  13.434   7.729  0.00  0.00     0.293 C 
HETATM    8  O   UNK N   1      22.379  12.653   6.800  0.00  0.00    -0.259 OA
BRANCH   7   9
HETATM    9  O   UNK N   1      22.584  14.772   7.514  0.00  0.00    -0.318 OA
BRANCH   9  10
HETATM   10  C   UNK N   1      21.643  15.488   6.821  0.00  0.00     0.178 C 
BRANCH  10  11
HETATM   11  C   UNK N   1      20.342  15.404   7.594  0.00  0.00     0.022 C 
HETATM   12  C   UNK N   1      20.329  16.413   8.721  0.00  0.00     0.007 C 
ENDBRANCH  10  11
ENDBRANCH   9  10
ENDBRANCH   7   9
ENDBRANCH   3   7
BRANCH   4  13
HETATM   13  O   UNK N   1      25.178  12.185  11.643  0.00  0.00    -0.358 OA
HETATM   14  H   UNK N   1      25.259  12.283  12.571  0.00  0.00     0.217 HD
ENDBRANCH   4  13
BRANCH   5  15
HETATM   15  O   UNK N   1      20.427  11.859  11.790  0.00  0.00    -0.358 OA
HETATM   16  H   UNK N   1      20.070  10.995  11.737  0.00  0.00     0.217 HD
ENDBRANCH   5  15
BRANCH   6  17
HETATM   17  O   UNK N   1      22.874  11.559  13.021  0.00  0.00    -0.356 OA
HETATM   18  H   UNK N   1      23.671  11.644  13.505  0.00  0.00     0.218 HD
ENDBRANCH   6  17
TORSDOF 7
ENDMDL
MODEL 8
REMARK VINA RESULT:      -5.0      1.496      2.988
REMARK  7 active torsions:
REMARK  status: ('A' for Active; 'I' for Inactive)
REMARK    1  A    between atoms: C_3  and  C_2 
REMARK    2  A    between atoms: O_15  and  C_3 
REMARK    3  A    between atoms: C_10  and  C_6 
REMARK    4  A    between atoms: O_11  and  C_7 
REMARK    5  A    between atoms: O_12  and  C_8 
REMARK    6  A    between atoms: O_13  and  C_9 
REMARK    7  A    between atoms: O_15  and  C_10 
ROOT
HETATM    1  C   UNK N   1      32.639  16.037   8.712  0.00  0.00     0.057 A 
HETATM    2  C   UNK N   1      33.387  18.046   7.589  0.00  0.00     0.057 A 
HETATM    3  C   UNK N   1      32.472  16.994   7.700  0.00  0.00     0.044 A 
HETATM    4  C   UNK N   1      33.716  16.141   9.603  0.00  0.00     0.102 A 
HETATM    5  C   UNK N   1      34.458  18.154   8.472  0.00  0.00     0.102 A 
HETATM    6  C   UNK N   1      34.628  17.201   9.483  0.00  0.00     0.132 A 
ENDROOT
BRANCH   3   7
HETATM    7  C   UNK N   1      31.354  16.923   6.741  0.00  0.00     0.293 C 
HETATM    8  O   UNK N   1      30.216  17.214   7.083  0.00  0.00    -0.259 OA
BRANCH   7   9
HETATM    9  O   UNK N   1      31.622  16.527   5.472  0.00  0.00    -0.318 OA
BRANCH   9  10
HETATM   10  C   UNK N   1      32.414  15.457   5.142  0.00  0.00     0.178 C 
BRANCH  10  11
HETATM   11  C   UNK N   1      33.429  15.937   4.124  0.00  0.00     0.022 C 
HETATM   12  C   UNK N   1      32.801  16.937   3.178  0.00  0.00     0.007 C 
ENDBRANCH  10  11
ENDBRANCH   9  10
ENDBRANCH   7   9
ENDBRANCH   3   7
BRANCH   4  13
HETATM   13  O   UNK N   1      33.871  15.222  10.571  0.00  0.00    -0.358 OA
HETATM   14  H   UNK N   1      33.645  15.431  11.456  0.00  0.00     0.217 HD
ENDBRANCH   4  13
BRANCH   5  15
HETATM   15  O   UNK N   1      35.323  19.175   8.344  0.00  0.00    -0.358 OA
HETATM   16  H   UNK N   1      36.165  19.130   8.753  0.00  0.00     0.217 HD
ENDBRANCH   5  15
BRANCH   6  17
HETATM   17  O   UNK N   1      35.663  17.303  10.337  0.00  0.00    -0.356 OA
HETATM   18  H   UNK N   1      35.541  17.703  11.175  0.00  0.00     0.218 HD
ENDBRANCH   6  17
TORSDOF 7
ENDMDL
MODEL 9
REMARK VINA RESULT:      -5.0     10.827     13.380
REMARK  7 active torsions:
REMARK  status: ('A' for Active; 'I' for Inactive)
REMARK    1  A    between atoms: C_3  and  C_2 
REMARK    2  A    between atoms: O_15  and  C_3 
REMARK    3  A    between atoms: C_10  and  C_6 
REMARK    4  A    between atoms: O_11  and  C_7 
REMARK    5  A    between atoms: O_12  and  C_8 
REMARK    6  A    between atoms: O_13  and  C_9 
REMARK    7  A    between atoms: O_15  and  C_10 
ROOT
HETATM    1  C   UNK N   1      20.930  19.589   3.591  0.00  0.00     0.057 A 
HETATM    2  C   UNK N   1      20.371  17.730   2.146  0.00  0.00     0.057 A 
HETATM    3  C   UNK N   1      20.592  18.237   3.431  0.00  0.00     0.044 A 
HETATM    4  C   UNK N   1      21.044  20.421   2.469  0.00  0.00     0.102 A 
HETATM    5  C   UNK N   1      20.483  18.552   1.028  0.00  0.00     0.102 A 
HETATM    6  C   UNK N   1      20.821  19.902   1.185  0.00  0.00     0.132 A 
ENDROOT
BRANCH   3   7
HETATM    7  C   UNK N   1      20.461  17.327   4.584  0.00  0.00     0.293 C 
HETATM    8  O   UNK N   1      19.544  16.519   4.643  0.00  0.00    -0.259 OA
BRANCH   7   9
HETATM    9  O   UNK N   1      21.383  17.411   5.574  0.00  0.00    -0.318 OA
BRANCH   9  10
HETATM   10  C   UNK N   1      22.709  17.092   5.431  0.00  0.00     0.178 C 
BRANCH  10  11
HETATM   11  C   UNK N   1      22.937  15.761   6.119  0.00  0.00     0.022 C 
HETATM   12  C   UNK N   1      21.925  15.555   7.224  0.00  0.00     0.007 C 
ENDBRANCH  10  11
ENDBRANCH   9  10
ENDBRANCH   7   9
ENDBRANCH   3   7
BRANCH   4  13
HETATM   13  O   UNK N   1      21.368  21.715   2.629  0.00  0.00    -0.358 OA
HETATM   14  H   UNK N   1      20.706  22.375   2.564  0.00  0.00     0.217 HD
ENDBRANCH   4  13
BRANCH   5  15
HETATM   15  O   UNK N   1      20.266  18.040  -0.196  0.00  0.00    -0.358 OA
HETATM   16  H   UNK N   1      19.502  18.287  -0.678  0.00  0.00     0.217 HD
ENDBRANCH   5  15
BRANCH   6  17
HETATM   17  O   UNK N   1      20.929  20.697   0.105  0.00  0.00    -0.356 OA
HETATM   18  H   UNK N   1      21.664  21.271   0.018  0.00  0.00     0.218 HD
ENDBRANCH   6  17
TORSDOF 7
ENDMDL
