MODEL 1
REMARK VINA RESULT:      -6.5      0.000      0.000
REMARK  2 active torsions:
REMARK  status: ('A' for Active; 'I' for Inactive)
REMARK    1  A    between atoms: C_8  and  C_11 
REMARK       I    between atoms: C_11  and  N_13 
REMARK    2  A    between atoms: C_14  and  N_13 
ROOT
HETATM    1  C   UNK N   1      35.962  14.240  11.500  0.00  0.00     0.257 C 
HETATM    2  O   UNK N   1      37.080  13.826  11.227  0.00  0.00    -0.267 OA
HETATM    3  N   UNK N   1      35.291  13.762  12.585  0.00  0.00    -0.350 N 
HETATM    4  H   UNK N   1      34.456  14.220  12.830  0.00  0.00     0.163 HD
ENDROOT
BRANCH   1   5
HETATM    5  C   UNK N   1      35.274  15.185  10.579  0.00  0.00     0.098 A 
HETATM    6  C   UNK N   1      35.633  16.558  10.607  0.00  0.00     0.109 A 
HETATM    7  N   UNK N   1      34.966  17.480   9.851  0.00  0.00    -0.364 N 
HETATM    8  C   UNK N   1      33.932  17.092   9.064  0.00  0.00     0.053 A 
HETATM    9  H   UNK N   1      35.236  18.426   9.877  0.00  0.00     0.165 HD
HETATM   10  C   UNK N   1      33.555  15.763   8.998  0.00  0.00     0.082 A 
HETATM   11  C   UNK N   1      33.145  17.965   8.269  0.00  0.00     0.038 A 
HETATM   12  S   UNK N   1      32.269  15.674   7.968  0.00  0.00    -0.096 SA
HETATM   13  C   UNK N   1      34.208  14.783   9.735  0.00  0.00     0.208 A 
HETATM   14  C   UNK N   1      32.126  17.292   7.566  0.00  0.00     0.053 A 
HETATM   15  O   UNK N   1      33.842  13.620   9.673  0.00  0.00    -0.286 OA
ENDBRANCH   1   5
BRANCH   3  16
HETATM   16  C   UNK N   1      35.694  12.638  13.415  0.00  0.00     0.117 C 
HETATM   17  C   UNK N   1      34.478  11.866  13.966  0.00  0.00     0.297 C 
HETATM   18  N   UNK N   1      34.745  11.386  15.337  0.00  0.00     0.090 N 
HETATM   19  C   UNK N   1      34.874  12.556  16.225  0.00  0.00     0.273 C 
HETATM   20  C   UNK N   1      36.010  10.624  15.361  0.00  0.00     0.273 C 
HETATM   21  C   UNK N   1      35.986  13.516  15.738  0.00  0.00     0.037 C 
HETATM   22  C   UNK N   1      36.713  12.896  14.538  0.00  0.00     0.013 C 
HETATM   23  C   UNK N   1      37.215  11.514  14.971  0.00  0.00     0.037 C 
ENDBRANCH   3  16
TORSDOF 2
ENDMDL
MODEL 2
REMARK VINA RESULT:      -6.4      2.123      2.747
REMARK  2 active torsions:
REMARK  status: ('A' for Active; 'I' for Inactive)
REMARK    1  A    between atoms: C_8  and  C_11 
REMARK       I    between atoms: C_11  and  N_13 
REMARK    2  A    between atoms: C_14  and  N_13 
ROOT
HETATM    1  C   UNK N   1      34.860  13.902  11.899  0.00  0.00     0.257 C 
HETATM    2  O   UNK N   1      35.000  14.181  13.083  0.00  0.00    -0.267 OA
HETATM    3  N   UNK N   1      34.881  12.605  11.487  0.00  0.00    -0.350 N 
HETATM    4  H   UNK N   1      34.636  12.431  10.550  0.00  0.00     0.163 HD
ENDROOT
BRANCH   1   5
HETATM    5  C   UNK N   1      34.788  14.988  10.883  0.00  0.00     0.098 A 
HETATM    6  C   UNK N   1      35.410  16.232  11.161  0.00  0.00     0.109 A 
HETATM    7  N   UNK N   1      35.290  17.290  10.304  0.00  0.00    -0.364 N 
HETATM    8  C   UNK N   1      34.557  17.165   9.171  0.00  0.00     0.053 A 
HETATM    9  H   UNK N   1      35.737  18.142  10.509  0.00  0.00     0.165 HD
HETATM   10  C   UNK N   1      33.943  15.967   8.855  0.00  0.00     0.082 A 
HETATM   11  C   UNK N   1      34.332  18.205   8.231  0.00  0.00     0.038 A 
HETATM   12  S   UNK N   1      33.137  16.194   7.433  0.00  0.00    -0.096 SA
HETATM   13  C   UNK N   1      34.043  14.857   9.684  0.00  0.00     0.208 A 
HETATM   14  C   UNK N   1      33.518  17.799   7.155  0.00  0.00     0.053 A 
HETATM   15  O   UNK N   1      33.475  13.817   9.392  0.00  0.00    -0.286 OA
ENDBRANCH   1   5
BRANCH   3  16
HETATM   16  C   UNK N   1      35.230  11.451  12.301  0.00  0.00     0.117 C 
HETATM   17  C   UNK N   1      36.256  10.541  11.597  0.00  0.00     0.297 C 
HETATM   18  N   UNK N   1      35.981   9.121  11.896  0.00  0.00     0.090 N 
HETATM   19  C   UNK N   1      34.687   8.758  11.289  0.00  0.00     0.273 C 
HETATM   20  C   UNK N   1      35.897   8.925  13.357  0.00  0.00     0.273 C 
HETATM   21  C   UNK N   1      33.547   9.671  11.799  0.00  0.00     0.037 C 
HETATM   22  C   UNK N   1      34.085  10.607  12.888  0.00  0.00     0.013 C 
HETATM   23  C   UNK N   1      34.727   9.731  13.970  0.00  0.00     0.037 C 
ENDBRANCH   3  16
TORSDOF 2
ENDMDL
MODEL 3
REMARK VINA RESULT:      -6.4      3.690      8.541
REMARK  2 active torsions:
REMARK  status: ('A' for Active; 'I' for Inactive)
REMARK    1  A    between atoms: C_8  and  C_11 
REMARK       I    between atoms: C_11  and  N_13 
REMARK    2  A    between atoms: C_14  and  N_13 
ROOT
HETATM    1  C   UNK N   1      34.088  16.666   7.031  0.00  0.00     0.257 C 
HETATM    2  O   UNK N   1      34.458  17.740   6.578  0.00  0.00    -0.267 OA
HETATM    3  N   UNK N   1      33.194  15.898   6.350  0.00  0.00    -0.350 N 
HETATM    4  H   UNK N   1      33.030  14.991   6.695  0.00  0.00     0.163 HD
ENDROOT
BRANCH   1   5
HETATM    5  C   UNK N   1      34.520  16.245   8.391  0.00  0.00     0.098 A 
HETATM    6  C   UNK N   1      34.529  17.203   9.438  0.00  0.00     0.109 A 
HETATM    7  N   UNK N   1      35.008  16.891  10.679  0.00  0.00    -0.364 N 
HETATM    8  C   UNK N   1      35.498  15.651  10.926  0.00  0.00     0.053 A 
HETATM    9  H   UNK N   1      34.997  17.567  11.395  0.00  0.00     0.165 HD
HETATM   10  C   UNK N   1      35.498  14.683   9.938  0.00  0.00     0.082 A 
HETATM   11  C   UNK N   1      36.055  15.229  12.161  0.00  0.00     0.038 A 
HETATM   12  S   UNK N   1      36.176  13.326  10.589  0.00  0.00    -0.096 SA
HETATM   13  C   UNK N   1      35.011  14.943   8.664  0.00  0.00     0.208 A 
HETATM   14  C   UNK N   1      36.501  13.893  12.129  0.00  0.00     0.053 A 
HETATM   15  O   UNK N   1      35.041  14.076   7.805  0.00  0.00    -0.286 OA
ENDBRANCH   1   5
BRANCH   3  16
HETATM   16  C   UNK N   1      32.457  16.291   5.158  0.00  0.00     0.117 C 
HETATM   17  C   UNK N   1      31.104  15.558   5.052  0.00  0.00     0.297 C 
HETATM   18  N   UNK N   1      30.792  15.246   3.643  0.00  0.00     0.090 N 
HETATM   19  C   UNK N   1      31.781  14.269   3.151  0.00  0.00     0.273 C 
HETATM   20  C   UNK N   1      30.884  16.474   2.827  0.00  0.00     0.273 C 
HETATM   21  C   UNK N   1      33.226  14.802   3.303  0.00  0.00     0.037 C 
HETATM   22  C   UNK N   1      33.191  16.250   3.807  0.00  0.00     0.013 C 
HETATM   23  C   UNK N   1      32.320  17.053   2.836  0.00  0.00     0.037 C 
ENDBRANCH   3  16
TORSDOF 2
ENDMDL
MODEL 4
REMARK VINA RESULT:      -6.3     17.588     21.177
REMARK  2 active torsions:
REMARK  status: ('A' for Active; 'I' for Inactive)
REMARK    1  A    between atoms: C_8  and  C_11 
REMARK       I    between atoms: C_11  and  N_13 
REMARK    2  A    between atoms: C_14  and  N_13 
ROOT
HETATM    1  C   UNK N   1      28.109  24.054  -3.363  0.00  0.00     0.257 C 
HETATM    2  O   UNK N   1      27.205  23.808  -2.576  0.00  0.00    -0.267 OA
HETATM    3  N   UNK N   1      27.996  25.081  -4.249  0.00  0.00    -0.350 N 
HETATM    4  H   UNK N   1      28.799  25.314  -4.768  0.00  0.00     0.163 HD
ENDROOT
BRANCH   1   5
HETATM    5  C   UNK N   1      29.292  23.154  -3.440  0.00  0.00     0.098 A 
HETATM    6  C   UNK N   1      30.136  23.031  -2.306  0.00  0.00     0.109 A 
HETATM    7  N   UNK N   1      31.287  22.294  -2.357  0.00  0.00    -0.364 N 
HETATM    8  C   UNK N   1      31.645  21.675  -3.508  0.00  0.00     0.053 A 
HETATM    9  H   UNK N   1      31.854  22.213  -1.557  0.00  0.00     0.165 HD
HETATM   10  C   UNK N   1      30.847  21.760  -4.634  0.00  0.00     0.082 A 
HETATM   11  C   UNK N   1      32.833  20.919  -3.687  0.00  0.00     0.038 A 
HETATM   12  S   UNK N   1      31.601  20.909  -5.830  0.00  0.00    -0.096 SA
HETATM   13  C   UNK N   1      29.661  22.484  -4.633  0.00  0.00     0.208 A 
HETATM   14  C   UNK N   1      32.958  20.402  -4.993  0.00  0.00     0.053 A 
HETATM   15  O   UNK N   1      28.985  22.558  -5.647  0.00  0.00    -0.286 OA
ENDBRANCH   1   5
BRANCH   3  16
HETATM   16  C   UNK N   1      26.798  25.867  -4.503  0.00  0.00     0.117 C 
HETATM   17  C   UNK N   1      25.894  25.210  -5.565  0.00  0.00     0.297 C 
HETATM   18  N   UNK N   1      25.257  26.238  -6.412  0.00  0.00     0.090 N 
HETATM   19  C   UNK N   1      26.308  26.918  -7.191  0.00  0.00     0.273 C 
HETATM   20  C   UNK N   1      24.571  27.232  -5.562  0.00  0.00     0.273 C 
HETATM   21  C   UNK N   1      27.385  27.537  -6.269  0.00  0.00     0.037 C 
HETATM   22  C   UNK N   1      26.967  27.367  -4.803  0.00  0.00     0.013 C 
HETATM   23  C   UNK N   1      25.572  27.981  -4.649  0.00  0.00     0.037 C 
ENDBRANCH   3  16
TORSDOF 2
ENDMDL
MODEL 5
REMARK VINA RESULT:      -6.2      2.839      7.320
REMARK  2 active torsions:
REMARK  status: ('A' for Active; 'I' for Inactive)
REMARK    1  A    between atoms: C_8  and  C_11 
REMARK       I    between atoms: C_11  and  N_13 
REMARK    2  A    between atoms: C_14  and  N_13 
ROOT
HETATM    1  C   UNK N   1      35.943  15.248  10.593  0.00  0.00     0.257 C 
HETATM    2  O   UNK N   1      36.460  16.348  10.737  0.00  0.00    -0.267 OA
HETATM    3  N   UNK N   1      34.830  15.101   9.824  0.00  0.00    -0.350 N 
HETATM    4  H   UNK N   1      34.534  14.181   9.639  0.00  0.00     0.163 HD
ENDROOT
BRANCH   1   5
HETATM    5  C   UNK N   1      36.459  14.080  11.357  0.00  0.00     0.098 A 
HETATM    6  C   UNK N   1      37.693  13.496  10.971  0.00  0.00     0.109 A 
HETATM    7  N   UNK N   1      38.161  12.364  11.578  0.00  0.00    -0.364 N 
HETATM    8  C   UNK N   1      37.438  11.773  12.560  0.00  0.00     0.053 A 
HETATM    9  H   UNK N   1      39.024  11.980  11.302  0.00  0.00     0.165 HD
HETATM   10  C   UNK N   1      36.236  12.314  12.976  0.00  0.00     0.082 A 
HETATM   11  C   UNK N   1      37.807  10.577  13.232  0.00  0.00     0.038 A 
HETATM   12  S   UNK N   1      35.641  11.327  14.158  0.00  0.00    -0.096 SA
HETATM   13  C   UNK N   1      35.720  13.469  12.402  0.00  0.00     0.208 A 
HETATM   14  C   UNK N   1      36.859  10.180  14.196  0.00  0.00     0.053 A 
HETATM   15  O   UNK N   1      34.647  13.915  12.775  0.00  0.00    -0.286 OA
ENDBRANCH   1   5
BRANCH   3  16
HETATM   16  C   UNK N   1      34.036  16.176   9.249  0.00  0.00     0.117 C 
HETATM   17  C   UNK N   1      32.575  15.746   9.009  0.00  0.00     0.297 C 
HETATM   18  N   UNK N   1      32.050  16.358   7.772  0.00  0.00     0.090 N 
HETATM   19  C   UNK N   1      32.792  15.803   6.624  0.00  0.00     0.273 C 
HETATM   20  C   UNK N   1      32.254  17.820   7.812  0.00  0.00     0.273 C 
HETATM   21  C   UNK N   1      34.315  16.039   6.768  0.00  0.00     0.037 C 
HETATM   22  C   UNK N   1      34.588  16.899   8.008  0.00  0.00     0.013 C 
HETATM   23  C   UNK N   1      33.759  18.180   7.870  0.00  0.00     0.037 C 
ENDBRANCH   3  16
TORSDOF 2
ENDMDL
MODEL 6
REMARK VINA RESULT:      -6.1      2.580      7.220
REMARK  2 active torsions:
REMARK  status: ('A' for Active; 'I' for Inactive)
REMARK    1  A    between atoms: C_8  and  C_11 
REMARK       I    between atoms: C_11  and  N_13 
REMARK    2  A    between atoms: C_14  and  N_13 
ROOT
HETATM    1  C   UNK N   1      36.588  14.412  10.246  0.00  0.00     0.257 C 
HETATM    2  O   UNK N   1      37.557  14.939   9.716  0.00  0.00    -0.267 OA
HETATM    3  N   UNK N   1      35.335  14.614   9.753  0.00  0.00    -0.350 N 
HETATM    4  H   UNK N   1      34.612  14.068  10.136  0.00  0.00     0.163 HD
ENDROOT
BRANCH   1   5
HETATM    5  C   UNK N   1      36.758  13.642  11.508  0.00  0.00     0.098 A 
HETATM    6  C   UNK N   1      37.800  12.683  11.593  0.00  0.00     0.109 A 
HETATM    7  N   UNK N   1      37.937  11.883  12.693  0.00  0.00    -0.364 N 
HETATM    8  C   UNK N   1      37.062  11.990  13.723  0.00  0.00     0.053 A 
HETATM    9  H   UNK N   1      38.672  11.230  12.738  0.00  0.00     0.165 HD
HETATM   10  C   UNK N   1      36.038  12.918  13.687  0.00  0.00     0.082 A 
HETATM   11  C   UNK N   1      37.085  11.187  14.894  0.00  0.00     0.038 A 
HETATM   12  S   UNK N   1      35.178  12.748  15.084  0.00  0.00    -0.096 SA
HETATM   13  C   UNK N   1      35.861  13.764  12.599  0.00  0.00     0.208 A 
HETATM   14  C   UNK N   1      36.046  11.504  15.791  0.00  0.00     0.053 A 
HETATM   15  O   UNK N   1      34.937  14.562  12.585  0.00  0.00    -0.286 OA
ENDBRANCH   1   5
BRANCH   3  16
HETATM   16  C   UNK N   1      34.964  15.563   8.714  0.00  0.00     0.117 C 
HETATM   17  C   UNK N   1      34.561  16.930   9.302  0.00  0.00     0.297 C 
HETATM   18  N   UNK N   1      33.460  17.527   8.521  0.00  0.00     0.090 N 
HETATM   19  C   UNK N   1      32.260  16.685   8.687  0.00  0.00     0.273 C 
HETATM   20  C   UNK N   1      33.824  17.564   7.090  0.00  0.00     0.273 C 
HETATM   21  C   UNK N   1      32.530  15.224   8.255  0.00  0.00     0.037 C 
HETATM   22  C   UNK N   1      33.939  15.115   7.658  0.00  0.00     0.013 C 
HETATM   23  C   UNK N   1      34.037  16.139   6.523  0.00  0.00     0.037 C 
ENDBRANCH   3  16
TORSDOF 2
ENDMDL
MODEL 7
REMARK VINA RESULT:      -6.0      5.569      8.388
REMARK  2 active torsions:
REMARK  status: ('A' for Active; 'I' for Inactive)
REMARK    1  A    between atoms: C_8  and  C_11 
REMARK       I    between atoms: C_11  and  N_13 
REMARK    2  A    between atoms: C_14  and  N_13 
ROOT
HETATM    1  C   UNK N   1      29.534  17.659   7.999  0.00  0.00     0.257 C 
HETATM    2  O   UNK N   1      29.284  17.612   9.195  0.00  0.00    -0.267 OA
HETATM    3  N   UNK N   1      30.760  17.294   7.533  0.00  0.00    -0.350 N 
HETATM    4  H   UNK N   1      30.866  17.229   6.557  0.00  0.00     0.163 HD
ENDROOT
BRANCH   1   5
HETATM    5  C   UNK N   1      28.538  18.233   7.053  0.00  0.00     0.098 A 
HETATM    6  C   UNK N   1      27.922  19.471   7.371  0.00  0.00     0.109 A 
HETATM    7  N   UNK N   1      26.933  19.991   6.584  0.00  0.00    -0.364 N 
HETATM    8  C   UNK N   1      26.515  19.317   5.484  0.00  0.00     0.053 A 
HETATM    9  H   UNK N   1      26.524  20.856   6.816  0.00  0.00     0.165 HD
HETATM   10  C   UNK N   1      27.096  18.113   5.132  0.00  0.00     0.082 A 
HETATM   11  C   UNK N   1      25.473  19.742   4.620  0.00  0.00     0.038 A 
HETATM   12  S   UNK N   1      26.330  17.585   3.769  0.00  0.00    -0.096 SA
HETATM   13  C   UNK N   1      28.113  17.546   5.888  0.00  0.00     0.208 A 
HETATM   14  C   UNK N   1      25.238  18.837   3.565  0.00  0.00     0.053 A 
HETATM   15  O   UNK N   1      28.595  16.472   5.565  0.00  0.00    -0.286 OA
ENDBRANCH   1   5
BRANCH   3  16
HETATM   16  C   UNK N   1      31.930  16.990   8.343  0.00  0.00     0.117 C 
HETATM   17  C   UNK N   1      33.062  18.014   8.122  0.00  0.00     0.297 C 
HETATM   18  N   UNK N   1      34.380  17.350   8.175  0.00  0.00     0.090 N 
HETATM   19  C   UNK N   1      34.485  16.430   7.027  0.00  0.00     0.273 C 
HETATM   20  C   UNK N   1      34.499  16.573   9.425  0.00  0.00     0.273 C 
HETATM   21  C   UNK N   1      33.334  15.396   7.024  0.00  0.00     0.037 C 
HETATM   22  C   UNK N   1      32.491  15.559   8.295  0.00  0.00     0.013 C 
HETATM   23  C   UNK N   1      33.441  15.445   9.492  0.00  0.00     0.037 C 
ENDBRANCH   3  16
TORSDOF 2
ENDMDL
MODEL 8
REMARK VINA RESULT:      -6.0      5.284      7.989
REMARK  2 active torsions:
REMARK  status: ('A' for Active; 'I' for Inactive)
REMARK    1  A    between atoms: C_8  and  C_11 
REMARK       I    between atoms: C_11  and  N_13 
REMARK    2  A    between atoms: C_14  and  N_13 
ROOT
HETATM    1  C   UNK N   1      30.536  16.248   5.897  0.00  0.00     0.257 C 
HETATM    2  O   UNK N   1      30.334  15.043   5.836  0.00  0.00    -0.267 OA
HETATM    3  N   UNK N   1      31.698  16.730   6.417  0.00  0.00    -0.350 N 
HETATM    4  H   UNK N   1      31.862  17.696   6.324  0.00  0.00     0.163 HD
ENDROOT
BRANCH   1   5
HETATM    5  C   UNK N   1      29.461  17.202   5.511  0.00  0.00     0.098 A 
HETATM    6  C   UNK N   1      29.028  17.242   4.161  0.00  0.00     0.109 A 
HETATM    7  N   UNK N   1      28.113  18.165   3.737  0.00  0.00    -0.364 N 
HETATM    8  C   UNK N   1      27.611  19.072   4.610  0.00  0.00     0.053 A 
HETATM    9  H   UNK N   1      27.819  18.170   2.798  0.00  0.00     0.165 HD
HETATM   10  C   UNK N   1      27.996  19.062   5.938  0.00  0.00     0.082 A 
HETATM   11  C   UNK N   1      26.689  20.097   4.275  0.00  0.00     0.038 A 
HETATM   12  S   UNK N   1      27.204  20.304   6.683  0.00  0.00    -0.096 SA
HETATM   13  C   UNK N   1      28.913  18.138   6.424  0.00  0.00     0.208 A 
HETATM   14  C   UNK N   1      26.350  20.908   5.377  0.00  0.00     0.053 A 
HETATM   15  O   UNK N   1      29.250  18.164   7.597  0.00  0.00    -0.286 OA
ENDBRANCH   1   5
BRANCH   3  16
HETATM   16  C   UNK N   1      32.720  15.952   7.099  0.00  0.00     0.117 C 
HETATM   17  C   UNK N   1      32.432  15.822   8.609  0.00  0.00     0.297 C 
HETATM   18  N   UNK N   1      33.689  15.857   9.382  0.00  0.00     0.090 N 
HETATM   19  C   UNK N   1      34.291  17.195   9.235  0.00  0.00     0.273 C 
HETATM   20  C   UNK N   1      34.629  14.848   8.855  0.00  0.00     0.273 C 
HETATM   21  C   UNK N   1      34.535  17.545   7.747  0.00  0.00     0.037 C 
HETATM   22  C   UNK N   1      34.193  16.334   6.870  0.00  0.00     0.013 C 
HETATM   23  C   UNK N   1      35.015  15.147   7.386  0.00  0.00     0.037 C 
ENDBRANCH   3  16
TORSDOF 2
ENDMDL
MODEL 9
REMARK VINA RESULT:      -5.9      1.680      2.059
REMARK  2 active torsions:
REMARK  status: ('A' for Active; 'I' for Inactive)
REMARK    1  A    between atoms: C_8  and  C_11 
REMARK       I    between atoms: C_11  and  N_13 
REMARK    2  A    between atoms: C_14  and  N_13 
ROOT
HETATM    1  C   UNK N   1      34.974  13.057  10.728  0.00  0.00     0.257 C 
HETATM    2  O   UNK N   1      35.822  12.311  10.258  0.00  0.00    -0.267 OA
HETATM    3  N   UNK N   1      34.805  13.151  12.075  0.00  0.00    -0.350 N 
HETATM    4  H   UNK N   1      34.202  13.857  12.402  0.00  0.00     0.163 HD
ENDROOT
BRANCH   1   5
HETATM    5  C   UNK N   1      34.036  13.778   9.826  0.00  0.00     0.098 A 
HETATM    6  C   UNK N   1      33.248  13.030   8.913  0.00  0.00     0.109 A 
HETATM    7  N   UNK N   1      32.443  13.651   7.999  0.00  0.00    -0.364 N 
HETATM    8  C   UNK N   1      32.397  15.005   7.944  0.00  0.00     0.053 A 
HETATM    9  H   UNK N   1      31.897  13.115   7.380  0.00  0.00     0.165 HD
HETATM   10  C   UNK N   1      33.139  15.773   8.822  0.00  0.00     0.082 A 
HETATM   11  C   UNK N   1      31.630  15.754   7.014  0.00  0.00     0.038 A 
HETATM   12  S   UNK N   1      32.847  17.354   8.452  0.00  0.00    -0.096 SA
HETATM   13  C   UNK N   1      33.963  15.193   9.779  0.00  0.00     0.208 A 
HETATM   14  C   UNK N   1      31.784  17.145   7.176  0.00  0.00     0.053 A 
HETATM   15  O   UNK N   1      34.623  15.895  10.529  0.00  0.00    -0.286 OA
ENDBRANCH   1   5
BRANCH   3  16
HETATM   16  C   UNK N   1      35.434  12.306  13.080  0.00  0.00     0.117 C 
HETATM   17  C   UNK N   1      34.423  11.831  14.144  0.00  0.00     0.297 C 
HETATM   18  N   UNK N   1      35.060  11.773  15.475  0.00  0.00     0.090 N 
HETATM   19  C   UNK N   1      35.411  13.145  15.885  0.00  0.00     0.273 C 
HETATM   20  C   UNK N   1      36.293  10.964  15.404  0.00  0.00     0.273 C 
HETATM   21  C   UNK N   1      36.335  13.827  14.849  0.00  0.00     0.037 C 
HETATM   22  C   UNK N   1      36.716  12.819  13.757  0.00  0.00     0.013 C 
HETATM   23  C   UNK N   1      37.335  11.601  14.453  0.00  0.00     0.037 C 
ENDBRANCH   3  16
TORSDOF 2
ENDMDL
