MODEL 1
REMARK VINA RESULT:      -6.7      0.000      0.000
REMARK  9 active torsions:
REMARK  status: ('A' for Active; 'I' for Inactive)
REMARK    1  A    between atoms: C_2  and  C_3 
REMARK    2  A    between atoms: C_2  and  N_7 
REMARK    3  A    between atoms: N_7  and  C_8 
REMARK    4  A    between atoms: C_9  and  C_21 
REMARK    5  A    between atoms: C_24  and  O_28 
REMARK    6  A    between atoms: O_28  and  C_29 
REMARK    7  A    between atoms: C_29  and  C_30 
REMARK    8  A    between atoms: C_30  and  C_31 
REMARK    9  A    between atoms: C_31  and  N_32 
ROOT
HETATM    1  C   UNK N   1      30.021  17.621   5.841  0.00  0.00     0.156 A 
HETATM    2  C   UNK N   1      30.245  17.324   7.216  0.00  0.00     0.066 A 
HETATM    3  C   UNK N   1      29.129  17.418   8.110  0.00  0.00     0.134 A 
HETATM    4  N   UNK N   1      27.907  17.802   7.642  0.00  0.00    -0.178 N 
ATOM      5  HN  UNK N   1      27.109  17.866   8.276  1.00  0.00     0.185 HD
HETATM    6  C   UNK N   1      27.762  18.095   6.334  0.00  0.00     0.707 A 
HETATM    7  N   UNK N   1      28.767  18.003   5.471  0.00  0.00    -0.068 N 
HETATM    8  N   UNK N   1      28.321  18.358   4.283  0.00  0.00    -0.273 N 
ATOM      9  HN  UNK N   1      28.856  18.392   3.415  1.00  0.00     0.189 HD
HETATM   10  C   UNK N   1      27.010  18.669   4.443  0.00  0.00     0.215 A 
HETATM   11  N   UNK N   1      26.632  18.508   5.738  0.00  0.00    -0.184 N 
ATOM     12  HN  UNK N   1      25.714  18.663   6.156  1.00  0.00     0.185 HD
HETATM   13 Cl   UNK N   1      29.241  16.955   9.805  0.00  0.00    -0.063 Cl
ENDROOT
BRANCH   2  14
HETATM   14  C   UNK N   1      31.608  16.937   7.700  0.00  0.00     0.058 A 
HETATM   15  C   UNK N   1      32.452  17.887   8.317  0.00  0.00     0.133 A 
HETATM   16  C   UNK N   1      33.699  17.510   8.809  0.00  0.00     0.080 A 
HETATM   17  F   UNK N   1      32.087  19.186   8.420  0.00  0.00    -0.205 F 
HETATM   18  C   UNK N   1      34.119  16.186   8.734  0.00  0.00     0.074 A 
HETATM   19  C   UNK N   1      33.300  15.233   8.116  0.00  0.00     0.080 A 
HETATM   20  C   UNK N   1      32.064  15.602   7.585  0.00  0.00     0.133 A 
HETATM   21  F   UNK N   1      31.282  14.636   7.039  0.00  0.00    -0.205 F 
BRANCH  18  22
HETATM   22  O   UNK N   1      35.279  15.839   9.324  0.00  0.00    -0.351 OA
BRANCH  22  23
HETATM   23  C   UNK N   1      35.559  16.217  10.616  0.00  0.00     0.177 C 
BRANCH  23  24
HETATM   24  C   UNK N   1      35.180  15.094  11.589  0.00  0.00     0.046 C 
BRANCH  24  25
HETATM   25  C   UNK N   1      36.329  14.128  11.897  0.00  0.00     0.115 C 
BRANCH  25  26
HETATM   26  N   UNK N   1      37.408  14.298  10.932  0.00  0.00    -0.425 N 
HETATM   27  C   UNK N   1      38.041  13.003  10.750  0.00  0.00     0.139 C 
HETATM   28  H   UNK N   1      37.670  15.168  10.468  0.00  0.00     0.152 HD
ENDBRANCH  25  26
ENDBRANCH  24  25
ENDBRANCH  23  24
ENDBRANCH  22  23
ENDBRANCH  18  22
ENDBRANCH   2  14
BRANCH   1  29
HETATM   29  N   UNK N   1      31.096  17.566   4.903  0.00  0.00    -0.361 N 
HETATM   30  H   UNK N   1      31.587  18.401   4.724  0.00  0.00     0.162 HD
BRANCH  29  31
HETATM   31  C   UNK N   1      31.521  16.378   4.197  0.00  0.00     0.186 C 
HETATM   32  C   UNK N   1      30.927  16.364   2.797  0.00  0.00     0.041 C 
BRANCH  31  33
HETATM   33  C   UNK N   1      33.050  16.343   4.126  0.00  0.00     0.407 C 
HETATM   34  F   UNK N   1      33.468  16.545   2.825  0.00  0.00    -0.169 F 
HETATM   35  F   UNK N   1      33.589  17.341   4.919  0.00  0.00    -0.169 F 
HETATM   36  F   UNK N   1      33.520  15.115   4.563  0.00  0.00    -0.169 F 
ENDBRANCH  31  33
ENDBRANCH  29  31
ENDBRANCH   1  29
TORSDOF 9
ENDMDL
MODEL 2
REMARK VINA RESULT:      -6.6      7.431     10.417
REMARK  9 active torsions:
REMARK  status: ('A' for Active; 'I' for Inactive)
REMARK    1  A    between atoms: C_2  and  C_3 
REMARK    2  A    between atoms: C_2  and  N_7 
REMARK    3  A    between atoms: N_7  and  C_8 
REMARK    4  A    between atoms: C_9  and  C_21 
REMARK    5  A    between atoms: C_24  and  O_28 
REMARK    6  A    between atoms: O_28  and  C_29 
REMARK    7  A    between atoms: C_29  and  C_30 
REMARK    8  A    between atoms: C_30  and  C_31 
REMARK    9  A    between atoms: C_31  and  N_32 
ROOT
HETATM    1  C   UNK N   1      35.034  13.070  12.850  0.00  0.00     0.156 A 
HETATM    2  C   UNK N   1      35.806  13.346  14.015  0.00  0.00     0.066 A 
HETATM    3  C   UNK N   1      36.477  14.610  14.088  0.00  0.00     0.134 A 
HETATM    4  N   UNK N   1      36.383  15.496  13.055  0.00  0.00    -0.178 N 
ATOM      5  HN  UNK N   1      36.858  16.398  13.105  1.00  0.00     0.185 HD
HETATM    6  C   UNK N   1      35.658  15.168  11.967  0.00  0.00     0.707 A 
HETATM    7  N   UNK N   1      35.007  14.014  11.869  0.00  0.00    -0.068 N 
HETATM    8  N   UNK N   1      34.404  13.983  10.698  0.00  0.00    -0.273 N 
ATOM      9  HN  UNK N   1      33.826  13.227  10.329  1.00  0.00     0.189 HD
HETATM   10  C   UNK N   1      34.703  15.153  10.081  0.00  0.00     0.215 A 
HETATM   11  N   UNK N   1      35.498  15.924  10.868  0.00  0.00    -0.184 N 
ATOM     12  HN  UNK N   1      35.880  16.850  10.674  1.00  0.00     0.185 HD
HETATM   13 Cl   UNK N   1      37.355  15.125  15.524  0.00  0.00    -0.063 Cl
ENDROOT
BRANCH   2  14
HETATM   14  C   UNK N   1      35.911  12.336  15.115  0.00  0.00     0.058 A 
HETATM   15  C   UNK N   1      34.967  12.312  16.167  0.00  0.00     0.133 A 
HETATM   16  C   UNK N   1      35.041  11.340  17.160  0.00  0.00     0.080 A 
HETATM   17  F   UNK N   1      33.990  13.245  16.251  0.00  0.00    -0.205 F 
HETATM   18  C   UNK N   1      36.022  10.355  17.116  0.00  0.00     0.074 A 
HETATM   19  C   UNK N   1      36.972  10.370  16.088  0.00  0.00     0.080 A 
HETATM   20  C   UNK N   1      36.934  11.359  15.104  0.00  0.00     0.133 A 
HETATM   21  F   UNK N   1      37.845  11.305  14.100  0.00  0.00    -0.205 F 
BRANCH  18  22
HETATM   22  O   UNK N   1      35.990   9.366  18.029  0.00  0.00    -0.351 OA
BRANCH  22  23
HETATM   23  C   UNK N   1      34.813   9.003  18.642  0.00  0.00     0.177 C 
BRANCH  23  24
HETATM   24  C   UNK N   1      35.027   8.857  20.153  0.00  0.00     0.046 C 
BRANCH  24  25
HETATM   25  C   UNK N   1      34.886  10.171  20.928  0.00  0.00     0.115 C 
BRANCH  25  26
HETATM   26  N   UNK N   1      36.030  11.037  20.671  0.00  0.00    -0.425 N 
HETATM   27  C   UNK N   1      37.207  10.382  21.217  0.00  0.00     0.139 C 
HETATM   28  H   UNK N   1      36.008  11.939  20.195  0.00  0.00     0.152 HD
ENDBRANCH  25  26
ENDBRANCH  24  25
ENDBRANCH  23  24
ENDBRANCH  22  23
ENDBRANCH  18  22
ENDBRANCH   2  14
BRANCH   1  29
HETATM   29  N   UNK N   1      34.358  11.821  12.707  0.00  0.00    -0.361 N 
HETATM   30  H   UNK N   1      33.504  11.708  13.184  0.00  0.00     0.162 HD
BRANCH  29  31
HETATM   31  C   UNK N   1      34.829  10.709  11.912  0.00  0.00     0.186 C 
HETATM   32  C   UNK N   1      36.223  11.005  11.380  0.00  0.00     0.041 C 
BRANCH  31  33
HETATM   33  C   UNK N   1      34.844   9.438  12.765  0.00  0.00     0.407 C 
HETATM   34  F   UNK N   1      36.146   9.029  12.983  0.00  0.00    -0.169 F 
HETATM   35  F   UNK N   1      34.250   9.678  13.991  0.00  0.00    -0.169 F 
HETATM   36  F   UNK N   1      34.156   8.422  12.121  0.00  0.00    -0.169 F 
ENDBRANCH  31  33
ENDBRANCH  29  31
ENDBRANCH   1  29
TORSDOF 9
ENDMDL
MODEL 3
REMARK VINA RESULT:      -6.6      3.647      6.315
REMARK  9 active torsions:
REMARK  status: ('A' for Active; 'I' for Inactive)
REMARK    1  A    between atoms: C_2  and  C_3 
REMARK    2  A    between atoms: C_2  and  N_7 
REMARK    3  A    between atoms: N_7  and  C_8 
REMARK    4  A    between atoms: C_9  and  C_21 
REMARK    5  A    between atoms: C_24  and  O_28 
REMARK    6  A    between atoms: O_28  and  C_29 
REMARK    7  A    between atoms: C_29  and  C_30 
REMARK    8  A    between atoms: C_30  and  C_31 
REMARK    9  A    between atoms: C_31  and  N_32 
ROOT
HETATM    1  C   UNK N   1      30.386  16.663   6.801  0.00  0.00     0.156 A 
HETATM    2  C   UNK N   1      31.783  16.809   6.559  0.00  0.00     0.066 A 
HETATM    3  C   UNK N   1      32.553  17.544   7.517  0.00  0.00     0.134 A 
HETATM    4  N   UNK N   1      31.946  18.095   8.607  0.00  0.00    -0.178 N 
ATOM      5  HN  UNK N   1      32.493  18.616   9.294  1.00  0.00     0.185 HD
HETATM    6  C   UNK N   1      30.616  17.944   8.769  0.00  0.00     0.707 A 
HETATM    7  N   UNK N   1      29.870  17.256   7.913  0.00  0.00    -0.068 N 
HETATM    8  N   UNK N   1      28.623  17.295   8.333  0.00  0.00    -0.273 N 
ATOM      9  HN  UNK N   1      27.814  16.860   7.888  1.00  0.00     0.189 HD
HETATM   10  C   UNK N   1      28.625  18.027   9.476  0.00  0.00     0.215 A 
HETATM   11  N   UNK N   1      29.882  18.449   9.774  0.00  0.00    -0.184 N 
ATOM     12  HN  UNK N   1      30.192  19.012  10.566  1.00  0.00     0.185 HD
HETATM   13 Cl   UNK N   1      34.304  17.688   7.403  0.00  0.00    -0.063 Cl
ENDROOT
BRANCH   2  14
HETATM   14  C   UNK N   1      32.409  16.218   5.334  0.00  0.00     0.058 A 
HETATM   15  C   UNK N   1      32.809  14.863   5.310  0.00  0.00     0.133 A 
HETATM   16  C   UNK N   1      33.345  14.304   4.153  0.00  0.00     0.080 A 
HETATM   17  F   UNK N   1      32.708  14.083   6.413  0.00  0.00    -0.205 F 
HETATM   18  C   UNK N   1      33.464  15.060   2.992  0.00  0.00     0.074 A 
HETATM   19  C   UNK N   1      33.083  16.408   3.000  0.00  0.00     0.080 A 
HETATM   20  C   UNK N   1      32.578  16.992   4.162  0.00  0.00     0.133 A 
HETATM   21  F   UNK N   1      32.176  18.287   4.110  0.00  0.00    -0.205 F 
BRANCH  18  22
HETATM   22  O   UNK N   1      33.878  14.454   1.863  0.00  0.00    -0.351 OA
BRANCH  22  23
HETATM   23  C   UNK N   1      35.112  13.850   1.793  0.00  0.00     0.177 C 
BRANCH  23  24
HETATM   24  C   UNK N   1      35.761  14.130   0.433  0.00  0.00     0.046 C 
BRANCH  24  25
HETATM   25  C   UNK N   1      35.456  13.067  -0.628  0.00  0.00     0.115 C 
BRANCH  25  26
HETATM   26  N   UNK N   1      34.023  13.004  -0.886  0.00  0.00    -0.425 N 
HETATM   27  C   UNK N   1      33.837  12.997  -2.327  0.00  0.00     0.139 C 
HETATM   28  H   UNK N   1      33.285  12.971  -0.182  0.00  0.00     0.152 HD
ENDBRANCH  25  26
ENDBRANCH  24  25
ENDBRANCH  23  24
ENDBRANCH  22  23
ENDBRANCH  18  22
ENDBRANCH   2  14
BRANCH   1  29
HETATM   29  N   UNK N   1      29.559  15.961   5.873  0.00  0.00    -0.361 N 
HETATM   30  H   UNK N   1      29.540  14.978   5.934  0.00  0.00     0.162 HD
BRANCH  29  31
HETATM   31  C   UNK N   1      28.744  16.582   4.853  0.00  0.00     0.186 C 
HETATM   32  C   UNK N   1      29.027  18.075   4.800  0.00  0.00     0.041 C 
BRANCH  31  33
HETATM   33  C   UNK N   1      29.041  15.936   3.496  0.00  0.00     0.407 C 
HETATM   34  F   UNK N   1      29.879  14.850   3.662  0.00  0.00    -0.169 F 
HETATM   35  F   UNK N   1      27.867  15.496   2.909  0.00  0.00    -0.169 F 
HETATM   36  F   UNK N   1      29.652  16.852   2.655  0.00  0.00    -0.169 F 
ENDBRANCH  31  33
ENDBRANCH  29  31
ENDBRANCH   1  29
TORSDOF 9
ENDMDL
MODEL 4
REMARK VINA RESULT:      -6.6      2.237      4.191
REMARK  9 active torsions:
REMARK  status: ('A' for Active; 'I' for Inactive)
REMARK    1  A    between atoms: C_2  and  C_3 
REMARK    2  A    between atoms: C_2  and  N_7 
REMARK    3  A    between atoms: N_7  and  C_8 
REMARK    4  A    between atoms: C_9  and  C_21 
REMARK    5  A    between atoms: C_24  and  O_28 
REMARK    6  A    between atoms: O_28  and  C_29 
REMARK    7  A    between atoms: C_29  and  C_30 
REMARK    8  A    between atoms: C_30  and  C_31 
REMARK    9  A    between atoms: C_31  and  N_32 
ROOT
HETATM    1  C   UNK N   1      30.451  16.624   6.098  0.00  0.00     0.156 A 
HETATM    2  C   UNK N   1      31.835  16.289   6.134  0.00  0.00     0.066 A 
HETATM    3  C   UNK N   1      32.501  16.067   4.885  0.00  0.00     0.134 A 
HETATM    4  N   UNK N   1      31.809  16.158   3.714  0.00  0.00    -0.178 N 
ATOM      5  HN  UNK N   1      32.282  16.004   2.822  1.00  0.00     0.185 HD
HETATM    6  C   UNK N   1      30.494  16.454   3.744  0.00  0.00     0.707 A 
HETATM    7  N   UNK N   1      29.844  16.684   4.880  0.00  0.00    -0.068 N 
HETATM    8  N   UNK N   1      28.585  16.936   4.588  0.00  0.00    -0.273 N 
ATOM      9  HN  UNK N   1      27.836  17.150   5.247  1.00  0.00     0.189 HD
HETATM   10  C   UNK N   1      28.481  16.856   3.237  0.00  0.00     0.215 A 
HETATM   11  N   UNK N   1      29.682  16.552   2.679  0.00  0.00    -0.184 N 
ATOM     12  HN  UNK N   1      29.912  16.428   1.693  1.00  0.00     0.185 HD
HETATM   13 Cl   UNK N   1      34.234  15.774   4.785  0.00  0.00    -0.063 Cl
ENDROOT
BRANCH   2  14
HETATM   14  C   UNK N   1      32.554  16.167   7.442  0.00  0.00     0.058 A 
HETATM   15  C   UNK N   1      32.620  14.928   8.117  0.00  0.00     0.133 A 
HETATM   16  C   UNK N   1      33.333  14.809   9.307  0.00  0.00     0.080 A 
HETATM   17  F   UNK N   1      31.972  13.837   7.644  0.00  0.00    -0.205 F 
HETATM   18  C   UNK N   1      34.021  15.897   9.832  0.00  0.00     0.074 A 
HETATM   19  C   UNK N   1      33.959  17.135   9.182  0.00  0.00     0.080 A 
HETATM   20  C   UNK N   1      33.219  17.280   8.008  0.00  0.00     0.133 A 
HETATM   21  F   UNK N   1      33.227  18.486   7.386  0.00  0.00    -0.205 F 
BRANCH  18  22
HETATM   22  O   UNK N   1      34.793  15.713  10.921  0.00  0.00    -0.351 OA
BRANCH  22  23
HETATM   23  C   UNK N   1      36.149  15.934  10.875  0.00  0.00     0.177 C 
BRANCH  23  24
HETATM   24  C   UNK N   1      36.890  14.618  10.608  0.00  0.00     0.046 C 
BRANCH  24  25
HETATM   25  C   UNK N   1      36.679  13.558  11.695  0.00  0.00     0.115 C 
BRANCH  25  26
HETATM   26  N   UNK N   1      36.694  14.175  13.015  0.00  0.00    -0.425 N 
HETATM   27  C   UNK N   1      35.747  13.453  13.848  0.00  0.00     0.139 C 
HETATM   28  H   UNK N   1      37.264  14.971  13.302  0.00  0.00     0.152 HD
ENDBRANCH  25  26
ENDBRANCH  24  25
ENDBRANCH  23  24
ENDBRANCH  22  23
ENDBRANCH  18  22
ENDBRANCH   2  14
BRANCH   1  29
HETATM   29  N   UNK N   1      29.724  16.837   7.309  0.00  0.00    -0.361 N 
HETATM   30  H   UNK N   1      29.277  16.060   7.714  0.00  0.00     0.162 HD
BRANCH  29  31
HETATM   31  C   UNK N   1      29.597  18.108   7.986  0.00  0.00     0.186 C 
HETATM   32  C   UNK N   1      28.356  18.838   7.495  0.00  0.00     0.041 C 
BRANCH  31  33
HETATM   33  C   UNK N   1      29.514  17.877   9.498  0.00  0.00     0.407 C 
HETATM   34  F   UNK N   1      30.277  16.781   9.852  0.00  0.00    -0.169 F 
HETATM   35  F   UNK N   1      29.995  18.982  10.178  0.00  0.00    -0.169 F 
HETATM   36  F   UNK N   1      28.200  17.651   9.876  0.00  0.00    -0.169 F 
ENDBRANCH  31  33
ENDBRANCH  29  31
ENDBRANCH   1  29
TORSDOF 9
ENDMDL
MODEL 5
REMARK VINA RESULT:      -6.5      3.430      7.864
REMARK  9 active torsions:
REMARK  status: ('A' for Active; 'I' for Inactive)
REMARK    1  A    between atoms: C_2  and  C_3 
REMARK    2  A    between atoms: C_2  and  N_7 
REMARK    3  A    between atoms: N_7  and  C_8 
REMARK    4  A    between atoms: C_9  and  C_21 
REMARK    5  A    between atoms: C_24  and  O_28 
REMARK    6  A    between atoms: O_28  and  C_29 
REMARK    7  A    between atoms: C_29  and  C_30 
REMARK    8  A    between atoms: C_30  and  C_31 
REMARK    9  A    between atoms: C_31  and  N_32 
ROOT
HETATM    1  C   UNK N   1      30.813  17.485   6.454  0.00  0.00     0.156 A 
HETATM    2  C   UNK N   1      29.544  17.490   7.103  0.00  0.00     0.066 A 
HETATM    3  C   UNK N   1      29.524  17.368   8.530  0.00  0.00     0.134 A 
HETATM    4  N   UNK N   1      30.691  17.232   9.223  0.00  0.00    -0.178 N 
ATOM      5  HN  UNK N   1      30.679  17.148  10.241  1.00  0.00     0.185 HD
HETATM    6  C   UNK N   1      31.859  17.209   8.552  0.00  0.00     0.707 A 
HETATM    7  N   UNK N   1      31.922  17.336   7.231  0.00  0.00    -0.068 N 
HETATM    8  N   UNK N   1      33.187  17.266   6.872  0.00  0.00    -0.273 N 
ATOM      9  HN  UNK N   1      33.557  17.330   5.923  1.00  0.00     0.189 HD
HETATM   10  C   UNK N   1      33.900  17.094   8.013  0.00  0.00     0.215 A 
HETATM   11  N   UNK N   1      33.078  17.056   9.094  0.00  0.00    -0.184 N 
ATOM     12  HN  UNK N   1      33.325  16.939  10.077  1.00  0.00     0.185 HD
HETATM   13 Cl   UNK N   1      28.035  17.490   9.462  0.00  0.00    -0.063 Cl
ENDROOT
BRANCH   2  14
HETATM   14  C   UNK N   1      28.282  17.610   6.306  0.00  0.00     0.058 A 
HETATM   15  C   UNK N   1      27.710  18.875   6.045  0.00  0.00     0.133 A 
HETATM   16  C   UNK N   1      26.564  18.985   5.262  0.00  0.00     0.080 A 
HETATM   17  F   UNK N   1      28.241  20.005   6.569  0.00  0.00    -0.205 F 
HETATM   18  C   UNK N   1      25.984  17.855   4.695  0.00  0.00     0.074 A 
HETATM   19  C   UNK N   1      26.531  16.592   4.952  0.00  0.00     0.080 A 
HETATM   20  C   UNK N   1      27.658  16.462   5.764  0.00  0.00     0.133 A 
HETATM   21  F   UNK N   1      28.182  15.224   5.945  0.00  0.00    -0.205 F 
BRANCH  18  22
HETATM   22  O   UNK N   1      24.947  18.014   3.850  0.00  0.00    -0.351 OA
BRANCH  22  23
HETATM   23  C   UNK N   1      24.437  19.262   3.579  0.00  0.00     0.177 C 
BRANCH  23  24
HETATM   24  C   UNK N   1      22.910  19.251   3.721  0.00  0.00     0.046 C 
BRANCH  24  25
HETATM   25  C   UNK N   1      22.360  17.989   4.395  0.00  0.00     0.115 C 
BRANCH  25  26
HETATM   26  N   UNK N   1      22.578  18.048   5.835  0.00  0.00    -0.425 N 
HETATM   27  C   UNK N   1      21.278  17.950   6.479  0.00  0.00     0.139 C 
HETATM   28  H   UNK N   1      23.478  18.142   6.306  0.00  0.00     0.152 HD
ENDBRANCH  25  26
ENDBRANCH  24  25
ENDBRANCH  23  24
ENDBRANCH  22  23
ENDBRANCH  18  22
ENDBRANCH   2  14
BRANCH   1  29
HETATM   29  N   UNK N   1      30.901  17.582   5.032  0.00  0.00    -0.361 N 
HETATM   30  H   UNK N   1      30.678  18.448   4.620  0.00  0.00     0.162 HD
BRANCH  29  31
HETATM   31  C   UNK N   1      31.296  16.506   4.151  0.00  0.00     0.186 C 
HETATM   32  C   UNK N   1      30.135  16.122   3.247  0.00  0.00     0.041 C 
BRANCH  31  33
HETATM   33  C   UNK N   1      32.500  16.945   3.313  0.00  0.00     0.407 C 
HETATM   34  F   UNK N   1      32.083  17.340   2.056  0.00  0.00    -0.169 F 
HETATM   35  F   UNK N   1      33.139  18.013   3.918  0.00  0.00    -0.169 F 
HETATM   36  F   UNK N   1      33.397  15.897   3.180  0.00  0.00    -0.169 F 
ENDBRANCH  31  33
ENDBRANCH  29  31
ENDBRANCH   1  29
TORSDOF 9
ENDMDL
MODEL 6
REMARK VINA RESULT:      -6.5     14.422     16.774
REMARK  9 active torsions:
REMARK  status: ('A' for Active; 'I' for Inactive)
REMARK    1  A    between atoms: C_2  and  C_3 
REMARK    2  A    between atoms: C_2  and  N_7 
REMARK    3  A    between atoms: N_7  and  C_8 
REMARK    4  A    between atoms: C_9  and  C_21 
REMARK    5  A    between atoms: C_24  and  O_28 
REMARK    6  A    between atoms: O_28  and  C_29 
REMARK    7  A    between atoms: C_29  and  C_30 
REMARK    8  A    between atoms: C_30  and  C_31 
REMARK    9  A    between atoms: C_31  and  N_32 
ROOT
HETATM    1  C   UNK N   1      28.064  23.386  -6.266  0.00  0.00     0.156 A 
HETATM    2  C   UNK N   1      28.571  23.942  -5.056  0.00  0.00     0.066 A 
HETATM    3  C   UNK N   1      29.639  23.249  -4.398  0.00  0.00     0.134 A 
HETATM    4  N   UNK N   1      30.124  22.086  -4.919  0.00  0.00    -0.178 N 
ATOM      5  HN  UNK N   1      30.887  21.592  -4.454  1.00  0.00     0.185 HD
HETATM    6  C   UNK N   1      29.587  21.595  -6.054  0.00  0.00     0.707 A 
HETATM    7  N   UNK N   1      28.609  22.216  -6.703  0.00  0.00    -0.068 N 
HETATM    8  N   UNK N   1      28.295  21.494  -7.759  0.00  0.00    -0.273 N 
ATOM      9  HN  UNK N   1      27.579  21.708  -8.454  1.00  0.00     0.189 HD
HETATM   10  C   UNK N   1      29.112  20.412  -7.740  0.00  0.00     0.215 A 
HETATM   11  N   UNK N   1      29.943  20.454  -6.666  0.00  0.00    -0.184 N 
ATOM     12  HN  UNK N   1      30.662  19.784  -6.392  1.00  0.00     0.185 HD
HETATM   13 Cl   UNK N   1      30.439  23.896  -2.970  0.00  0.00    -0.063 Cl
ENDROOT
BRANCH   2  14
HETATM   14  C   UNK N   1      27.991  25.204  -4.497  0.00  0.00     0.058 A 
HETATM   15  C   UNK N   1      28.575  26.457  -4.786  0.00  0.00     0.133 A 
HETATM   16  C   UNK N   1      28.003  27.632  -4.305  0.00  0.00     0.080 A 
HETATM   17  F   UNK N   1      29.715  26.548  -5.510  0.00  0.00    -0.205 F 
HETATM   18  C   UNK N   1      26.828  27.594  -3.561  0.00  0.00     0.074 A 
HETATM   19  C   UNK N   1      26.241  26.360  -3.256  0.00  0.00     0.080 A 
HETATM   20  C   UNK N   1      26.822  25.172  -3.700  0.00  0.00     0.133 A 
HETATM   21  F   UNK N   1      26.192  24.003  -3.422  0.00  0.00    -0.205 F 
BRANCH  18  22
HETATM   22  O   UNK N   1      26.244  28.756  -3.212  0.00  0.00    -0.351 OA
BRANCH  22  23
HETATM   23  C   UNK N   1      26.553  29.929  -3.861  0.00  0.00     0.177 C 
BRANCH  23  24
HETATM   24  C   UNK N   1      26.867  31.030  -2.841  0.00  0.00     0.046 C 
BRANCH  24  25
HETATM   25  C   UNK N   1      28.165  30.798  -2.061  0.00  0.00     0.115 C 
BRANCH  25  26
HETATM   26  N   UNK N   1      27.970  29.770  -1.046  0.00  0.00    -0.425 N 
HETATM   27  C   UNK N   1      28.709  30.178   0.138  0.00  0.00     0.139 C 
HETATM   28  H   UNK N   1      27.417  28.920  -1.148  0.00  0.00     0.152 HD
ENDBRANCH  25  26
ENDBRANCH  24  25
ENDBRANCH  23  24
ENDBRANCH  22  23
ENDBRANCH  18  22
ENDBRANCH   2  14
BRANCH   1  29
HETATM   29  N   UNK N   1      26.987  24.016  -6.959  0.00  0.00    -0.361 N 
HETATM   30  H   UNK N   1      26.073  23.721  -6.744  0.00  0.00     0.162 HD
BRANCH  29  31
HETATM   31  C   UNK N   1      27.135  25.058  -7.950  0.00  0.00     0.186 C 
HETATM   32  C   UNK N   1      26.909  24.488  -9.342  0.00  0.00     0.041 C 
BRANCH  31  33
HETATM   33  C   UNK N   1      26.135  26.183  -7.666  0.00  0.00     0.407 C 
HETATM   34  F   UNK N   1      25.305  26.364  -8.757  0.00  0.00    -0.169 F 
HETATM   35  F   UNK N   1      25.353  25.862  -6.571  0.00  0.00    -0.169 F 
HETATM   36  F   UNK N   1      26.807  27.367  -7.412  0.00  0.00    -0.169 F 
ENDBRANCH  31  33
ENDBRANCH  29  31
ENDBRANCH   1  29
TORSDOF 9
ENDMDL
MODEL 7
REMARK VINA RESULT:      -6.4      8.284      9.947
REMARK  9 active torsions:
REMARK  status: ('A' for Active; 'I' for Inactive)
REMARK    1  A    between atoms: C_2  and  C_3 
REMARK    2  A    between atoms: C_2  and  N_7 
REMARK    3  A    between atoms: N_7  and  C_8 
REMARK    4  A    between atoms: C_9  and  C_21 
REMARK    5  A    between atoms: C_24  and  O_28 
REMARK    6  A    between atoms: O_28  and  C_29 
REMARK    7  A    between atoms: C_29  and  C_30 
REMARK    8  A    between atoms: C_30  and  C_31 
REMARK    9  A    between atoms: C_31  and  N_32 
ROOT
HETATM    1  C   UNK N   1      22.176  18.142   3.885  0.00  0.00     0.156 A 
HETATM    2  C   UNK N   1      21.597  16.873   4.174  0.00  0.00     0.066 A 
HETATM    3  C   UNK N   1      20.308  16.585   3.619  0.00  0.00     0.134 A 
HETATM    4  N   UNK N   1      19.666  17.517   2.858  0.00  0.00    -0.178 N 
ATOM      5  HN  UNK N   1      18.749  17.313   2.458  1.00  0.00     0.185 HD
HETATM    6  C   UNK N   1      20.253  18.711   2.640  0.00  0.00     0.707 A 
HETATM    7  N   UNK N   1      21.454  19.010   3.123  0.00  0.00    -0.068 N 
HETATM    8  N   UNK N   1      21.751  20.238   2.751  0.00  0.00    -0.273 N 
ATOM      9  HN  UNK N   1      22.605  20.752   2.967  1.00  0.00     0.189 HD
HETATM   10  C   UNK N   1      20.696  20.683   2.022  0.00  0.00     0.215 A 
HETATM   11  N   UNK N   1      19.732  19.730   1.937  0.00  0.00    -0.184 N 
ATOM     12  HN  UNK N   1      18.833  19.776   1.457  1.00  0.00     0.185 HD
HETATM   13 Cl   UNK N   1      19.541  15.009   3.792  0.00  0.00    -0.063 Cl
ENDROOT
BRANCH   2  14
HETATM   14  C   UNK N   1      22.318  15.886   5.039  0.00  0.00     0.058 A 
HETATM   15  C   UNK N   1      22.169  15.913   6.444  0.00  0.00     0.133 A 
HETATM   16  C   UNK N   1      22.803  14.962   7.240  0.00  0.00     0.080 A 
HETATM   17  F   UNK N   1      21.435  16.873   7.052  0.00  0.00    -0.205 F 
HETATM   18  C   UNK N   1      23.563  13.950   6.663  0.00  0.00     0.074 A 
HETATM   19  C   UNK N   1      23.731  13.914   5.274  0.00  0.00     0.080 A 
HETATM   20  C   UNK N   1      23.132  14.881   4.465  0.00  0.00     0.133 A 
HETATM   21  F   UNK N   1      23.281  14.779   3.121  0.00  0.00    -0.205 F 
BRANCH  18  22
HETATM   22  O   UNK N   1      24.064  12.983   7.457  0.00  0.00    -0.351 OA
BRANCH  22  23
HETATM   23  C   UNK N   1      24.626  13.285   8.675  0.00  0.00     0.177 C 
BRANCH  23  24
HETATM   24  C   UNK N   1      24.160  12.281   9.735  0.00  0.00     0.046 C 
BRANCH  24  25
HETATM   25  C   UNK N   1      22.714  12.494  10.196  0.00  0.00     0.115 C 
BRANCH  25  26
HETATM   26  N   UNK N   1      22.402  11.612  11.313  0.00  0.00    -0.425 N 
HETATM   27  C   UNK N   1      23.316  11.937  12.396  0.00  0.00     0.139 C 
HETATM   28  H   UNK N   1      21.675  10.897  11.332  0.00  0.00     0.152 HD
ENDBRANCH  25  26
ENDBRANCH  24  25
ENDBRANCH  23  24
ENDBRANCH  22  23
ENDBRANCH  18  22
ENDBRANCH   2  14
BRANCH   1  29
HETATM   29  N   UNK N   1      23.448  18.499   4.426  0.00  0.00    -0.361 N 
HETATM   30  H   UNK N   1      23.510  18.625   5.400  0.00  0.00     0.162 HD
BRANCH  29  31
HETATM   31  C   UNK N   1      24.655  18.687   3.652  0.00  0.00     0.186 C 
HETATM   32  C   UNK N   1      25.221  20.077   3.899  0.00  0.00     0.041 C 
BRANCH  31  33
HETATM   33  C   UNK N   1      25.682  17.618   4.036  0.00  0.00     0.407 C 
HETATM   34  F   UNK N   1      25.408  17.131   5.300  0.00  0.00    -0.169 F 
HETATM   35  F   UNK N   1      25.633  16.564   3.141  0.00  0.00    -0.169 F 
HETATM   36  F   UNK N   1      26.958  18.157   4.029  0.00  0.00    -0.169 F 
ENDBRANCH  31  33
ENDBRANCH  29  31
ENDBRANCH   1  29
TORSDOF 9
ENDMDL
MODEL 8
REMARK VINA RESULT:      -6.3      3.408      6.447
REMARK  9 active torsions:
REMARK  status: ('A' for Active; 'I' for Inactive)
REMARK    1  A    between atoms: C_2  and  C_3 
REMARK    2  A    between atoms: C_2  and  N_7 
REMARK    3  A    between atoms: N_7  and  C_8 
REMARK    4  A    between atoms: C_9  and  C_21 
REMARK    5  A    between atoms: C_24  and  O_28 
REMARK    6  A    between atoms: O_28  and  C_29 
REMARK    7  A    between atoms: C_29  and  C_30 
REMARK    8  A    between atoms: C_30  and  C_31 
REMARK    9  A    between atoms: C_31  and  N_32 
ROOT
HETATM    1  C   UNK N   1      31.158  16.782   7.304  0.00  0.00     0.156 A 
HETATM    2  C   UNK N   1      30.732  16.715   5.946  0.00  0.00     0.066 A 
HETATM    3  C   UNK N   1      29.478  17.322   5.610  0.00  0.00     0.134 A 
HETATM    4  N   UNK N   1      28.724  17.919   6.577  0.00  0.00    -0.178 N 
ATOM      5  HN  UNK N   1      27.832  18.355   6.340  1.00  0.00     0.185 HD
HETATM    6  C   UNK N   1      29.169  17.929   7.850  0.00  0.00     0.707 A 
HETATM    7  N   UNK N   1      30.333  17.393   8.199  0.00  0.00    -0.068 N 
HETATM    8  N   UNK N   1      30.483  17.550   9.498  0.00  0.00    -0.273 N 
ATOM      9  HN  UNK N   1      31.276  17.244  10.063  1.00  0.00     0.189 HD
HETATM   10  C   UNK N   1      29.377  18.201   9.936  0.00  0.00     0.215 A 
HETATM   11  N   UNK N   1      28.527  18.453   8.906  0.00  0.00    -0.184 N 
ATOM     12  HN  UNK N   1      27.623  18.926   8.929  1.00  0.00     0.185 HD
HETATM   13 Cl   UNK N   1      28.898  17.422   3.951  0.00  0.00    -0.063 Cl
ENDROOT
BRANCH   2  14
HETATM   14  C   UNK N   1      31.571  16.024   4.918  0.00  0.00     0.058 A 
HETATM   15  C   UNK N   1      31.438  14.635   4.692  0.00  0.00     0.133 A 
HETATM   16  C   UNK N   1      32.186  14.006   3.699  0.00  0.00     0.080 A 
HETATM   17  F   UNK N   1      30.608  13.879   5.447  0.00  0.00    -0.205 F 
HETATM   18  C   UNK N   1      33.048  14.739   2.891  0.00  0.00     0.074 A 
HETATM   19  C   UNK N   1      33.201  16.114   3.108  0.00  0.00     0.080 A 
HETATM   20  C   UNK N   1      32.486  16.753   4.122  0.00  0.00     0.133 A 
HETATM   21  F   UNK N   1      32.629  18.095   4.264  0.00  0.00    -0.205 F 
BRANCH  18  22
HETATM   22  O   UNK N   1      33.665  14.116   1.869  0.00  0.00    -0.351 OA
BRANCH  22  23
HETATM   23  C   UNK N   1      35.021  13.883   1.893  0.00  0.00     0.177 C 
BRANCH  23  24
HETATM   24  C   UNK N   1      35.596  13.967   0.475  0.00  0.00     0.046 C 
BRANCH  24  25
HETATM   25  C   UNK N   1      35.224  12.776  -0.415  0.00  0.00     0.115 C 
BRANCH  25  26
HETATM   26  N   UNK N   1      33.843  12.893  -0.867  0.00  0.00    -0.425 N 
HETATM   27  C   UNK N   1      33.862  12.967  -2.319  0.00  0.00     0.139 C 
HETATM   28  H   UNK N   1      33.015  12.919  -0.273  0.00  0.00     0.152 HD
ENDBRANCH  25  26
ENDBRANCH  24  25
ENDBRANCH  23  24
ENDBRANCH  22  23
ENDBRANCH  18  22
ENDBRANCH   2  14
BRANCH   1  29
HETATM   29  N   UNK N   1      32.388  16.179   7.708  0.00  0.00    -0.361 N 
HETATM   30  H   UNK N   1      32.624  15.313   7.306  0.00  0.00     0.162 HD
BRANCH  29  31
HETATM   31  C   UNK N   1      33.315  16.746   8.663  0.00  0.00     0.186 C 
HETATM   32  C   UNK N   1      34.383  15.723   9.020  0.00  0.00     0.041 C 
BRANCH  31  33
HETATM   33  C   UNK N   1      33.958  18.002   8.069  0.00  0.00     0.407 C 
HETATM   34  F   UNK N   1      34.239  17.803   6.731  0.00  0.00    -0.169 F 
HETATM   35  F   UNK N   1      33.096  19.079   8.180  0.00  0.00    -0.169 F 
HETATM   36  F   UNK N   1      35.137  18.296   8.736  0.00  0.00    -0.169 F 
ENDBRANCH  31  33
ENDBRANCH  29  31
ENDBRANCH   1  29
TORSDOF 9
ENDMDL
MODEL 9
REMARK VINA RESULT:      -6.3      3.329      5.886
REMARK  9 active torsions:
REMARK  status: ('A' for Active; 'I' for Inactive)
REMARK    1  A    between atoms: C_2  and  C_3 
REMARK    2  A    between atoms: C_2  and  N_7 
REMARK    3  A    between atoms: N_7  and  C_8 
REMARK    4  A    between atoms: C_9  and  C_21 
REMARK    5  A    between atoms: C_24  and  O_28 
REMARK    6  A    between atoms: O_28  and  C_29 
REMARK    7  A    between atoms: C_29  and  C_30 
REMARK    8  A    between atoms: C_30  and  C_31 
REMARK    9  A    between atoms: C_31  and  N_32 
ROOT
HETATM    1  C   UNK N   1      30.925  16.996   7.262  0.00  0.00     0.156 A 
HETATM    2  C   UNK N   1      30.416  16.934   5.932  0.00  0.00     0.066 A 
HETATM    3  C   UNK N   1      29.141  17.536   5.677  0.00  0.00     0.134 A 
HETATM    4  N   UNK N   1      28.445  18.123   6.692  0.00  0.00    -0.178 N 
ATOM      5  HN  UNK N   1      27.538  18.555   6.512  1.00  0.00     0.185 HD
HETATM    6  C   UNK N   1      28.967  18.128   7.935  0.00  0.00     0.707 A 
HETATM    7  N   UNK N   1      30.153  17.597   8.209  0.00  0.00    -0.068 N 
HETATM    8  N   UNK N   1      30.381  17.747   9.498  0.00  0.00    -0.273 N 
ATOM      9  HN  UNK N   1      31.209  17.442  10.011  1.00  0.00     0.189 HD
HETATM   10  C   UNK N   1      29.300  18.390  10.006  0.00  0.00     0.215 A 
HETATM   11  N   UNK N   1      28.388  18.643   9.032  0.00  0.00    -0.184 N 
ATOM     12  HN  UNK N   1      27.484  19.110   9.113  1.00  0.00     0.185 HD
HETATM   13 Cl   UNK N   1      28.461  17.642   4.057  0.00  0.00    -0.063 Cl
ENDROOT
BRANCH   2  14
HETATM   14  C   UNK N   1      31.195  16.253   4.850  0.00  0.00     0.058 A 
HETATM   15  C   UNK N   1      32.015  16.997   3.973  0.00  0.00     0.133 A 
HETATM   16  C   UNK N   1      32.776  16.354   3.000  0.00  0.00     0.080 A 
HETATM   17  F   UNK N   1      32.063  18.349   4.035  0.00  0.00    -0.205 F 
HETATM   18  C   UNK N   1      32.767  14.966   2.898  0.00  0.00     0.074 A 
HETATM   19  C   UNK N   1      31.952  14.214   3.752  0.00  0.00     0.080 A 
HETATM   20  C   UNK N   1      31.157  14.846   4.708  0.00  0.00     0.133 A 
HETATM   21  F   UNK N   1      30.420  14.074   5.546  0.00  0.00    -0.205 F 
BRANCH  18  22
HETATM   22  O   UNK N   1      33.603  14.376   2.023  0.00  0.00    -0.351 OA
BRANCH  22  23
HETATM   23  C   UNK N   1      33.768  13.010   2.009  0.00  0.00     0.177 C 
BRANCH  23  24
HETATM   24  C   UNK N   1      34.838  12.618   0.984  0.00  0.00     0.046 C 
BRANCH  24  25
HETATM   25  C   UNK N   1      35.944  13.665   0.812  0.00  0.00     0.115 C 
BRANCH  25  26
HETATM   26  N   UNK N   1      35.512  14.713  -0.104  0.00  0.00    -0.425 N 
HETATM   27  C   UNK N   1      36.365  14.648  -1.279  0.00  0.00     0.139 C 
HETATM   28  H   UNK N   1      34.750  15.373   0.052  0.00  0.00     0.152 HD
ENDBRANCH  25  26
ENDBRANCH  24  25
ENDBRANCH  23  24
ENDBRANCH  22  23
ENDBRANCH  18  22
ENDBRANCH   2  14
BRANCH   1  29
HETATM   29  N   UNK N   1      32.180  16.397   7.587  0.00  0.00    -0.361 N 
HETATM   30  H   UNK N   1      32.165  15.545   8.079  0.00  0.00     0.162 HD
BRANCH  29  31
HETATM   31  C   UNK N   1      33.473  16.946   7.245  0.00  0.00     0.186 C 
HETATM   32  C   UNK N   1      34.075  17.650   8.452  0.00  0.00     0.041 C 
BRANCH  31  33
HETATM   33  C   UNK N   1      34.398  15.823   6.769  0.00  0.00     0.407 C 
HETATM   34  F   UNK N   1      33.705  14.629   6.718  0.00  0.00    -0.169 F 
HETATM   35  F   UNK N   1      34.879  16.104   5.502  0.00  0.00    -0.169 F 
HETATM   36  F   UNK N   1      35.468  15.684   7.638  0.00  0.00    -0.169 F 
ENDBRANCH  31  33
ENDBRANCH  29  31
ENDBRANCH   1  29
TORSDOF 9
ENDMDL
