MODEL 1
REMARK VINA RESULT:      -8.8      0.000      0.000
REMARK  10 active torsions:
REMARK  status: ('A' for Active; 'I' for Inactive)
REMARK    1  A    between atoms: C_17  and  C_16 
REMARK    2  A    between atoms: N_35  and  C_16 
REMARK    3  A    between atoms: O_38  and  C_17 
REMARK    4  A    between atoms: N_32  and  C_21 
REMARK    5  A    between atoms: N_30  and  C_22 
REMARK    6  A    between atoms: O_38  and  C_23 
REMARK    7  A    between atoms: S_39  and  C_24 
REMARK    8  A    between atoms: N_30  and  C_25 
REMARK       I    between atoms: N_32  and  C_26 
REMARK    9  A    between atoms: N_34  and  C_27 
REMARK   10  A    between atoms: S_39  and  N_34 
ROOT
HETATM    1  C   UNK N   1      28.762  18.299   8.805  0.00  0.00     0.054 C 
HETATM    2  C   UNK N   1      27.665  19.996   7.337  0.00  0.00     0.116 A 
HETATM    3  C   UNK N   1      28.379  18.803   7.454  0.00  0.00    -0.001 A 
HETATM    4  C   UNK N   1      28.731  18.124   6.282  0.00  0.00     0.128 A 
HETATM    5  C   UNK N   1      27.660  19.785   4.982  0.00  0.00     0.684 A 
HETATM    6  N   UNK N   1      27.292  20.451   6.110  0.00  0.00    -0.201 N 
ATOM      7  HN  UNK N   1      26.732  21.300   6.035  1.00  0.00     0.183 HD
HETATM    8  N   UNK N   1      27.047  20.094   3.746  0.00  0.00    -0.192 N 
HETATM    9  N   UNK N   1      28.364  18.644   5.078  0.00  0.00    -0.176 N 
HETATM   10  H   UNK N   1      27.565  20.492   3.009  0.00  0.00     0.184 HD
HETATM   11  H   UNK N   1      28.622  18.170   4.255  0.00  0.00     0.186 HD
ENDROOT
BRANCH   4  12
HETATM   12  N   UNK N   1      29.393  17.019   6.316  0.00  0.00    -0.342 N 
ATOM     13  HN  UNK N   1      28.949  16.159   6.638  1.00  0.00     0.167 HD
BRANCH  12  14
HETATM   14  C   UNK N   1      30.745  17.017   5.901  0.00  0.00     0.035 A 
HETATM   15  C   UNK N   1      31.114  17.297   4.577  0.00  0.00     0.029 A 
HETATM   16  C   UNK N   1      32.463  17.538   4.268  0.00  0.00     0.004 A 
HETATM   17  C   UNK N   1      33.434  17.540   5.286  0.00  0.00     0.025 A 
HETATM   18  C   UNK N   1      33.054  17.270   6.609  0.00  0.00     0.081 A 
HETATM   19  C   UNK N   1      31.706  17.041   6.894  0.00  0.00     0.054 A 
BRANCH  18  20
HETATM   20  S   UNK N   1      34.212  17.375   7.996  0.00  0.00     0.259 S 
HETATM   21  O   UNK N   1      32.813  17.705   8.542  0.00  0.00    -0.201 OA
HETATM   22  O   UNK N   1      34.549  18.875   8.014  0.00  0.00    -0.201 OA
BRANCH  20  23
HETATM   23  N   UNK N   1      34.301  17.068   9.741  0.00  0.00    -0.307 N 
HETATM   24  H   UNK N   1      33.969  17.730  10.443  0.00  0.00     0.173 HD
BRANCH  23  25
HETATM   25  C   UNK N   1      34.897  15.780  10.075  0.00  0.00     0.029 C 
HETATM   26  C   UNK N   1      33.886  14.911  10.796  0.00  0.00     0.038 C 
HETATM   27  C   UNK N   1      35.427  15.064   8.843  0.00  0.00     0.038 C 
HETATM   28  C   UNK N   1      36.062  16.041  11.005  0.00  0.00     0.038 C 
ENDBRANCH  23  25
ENDBRANCH  20  23
ENDBRANCH  18  20
ENDBRANCH  12  14
ENDBRANCH   4  12
BRANCH   8  29
HETATM   29  C   UNK N   1      25.665  19.817   3.595  0.00  0.00     0.049 A 
HETATM   30  C   UNK N   1      24.831  20.687   2.889  0.00  0.00     0.033 A 
HETATM   31  C   UNK N   1      23.450  20.443   2.844  0.00  0.00     0.039 A 
HETATM   32  C   UNK N   1      22.906  19.326   3.497  0.00  0.00     0.069 A 
HETATM   33  C   UNK N   1      23.763  18.419   4.126  0.00  0.00     0.039 A 
HETATM   34  C   UNK N   1      25.121  18.664   4.182  0.00  0.00     0.033 A 
BRANCH  32  35
HETATM   35  O   UNK N   1      21.556  19.189   3.569  0.00  0.00    -0.349 OA
BRANCH  35  36
HETATM   36  C   UNK N   1      20.849  18.068   3.997  0.00  0.00     0.206 C 
BRANCH  36  37
HETATM   37  C   UNK N   1      20.033  17.328   2.916  0.00  0.00     0.299 C 
BRANCH  37  38
HETATM   38  N   UNK N   1      20.034  15.876   3.087  0.00  0.00     0.090 N 
HETATM   39  C   UNK N   1      19.930  15.257   1.771  0.00  0.00     0.272 C 
HETATM   40  C   UNK N   1      21.329  14.931   1.275  0.00  0.00     0.032 C 
HETATM   41  C   UNK N   1      22.259  15.250   2.416  0.00  0.00     0.032 C 
HETATM   42  C   UNK N   1      21.347  15.493   3.599  0.00  0.00     0.272 C 
ENDBRANCH  37  38
ENDBRANCH  36  37
ENDBRANCH  35  36
ENDBRANCH  32  35
ENDBRANCH   8  29
TORSDOF 10
ENDMDL
MODEL 2
REMARK VINA RESULT:      -8.2      2.949     10.896
REMARK  10 active torsions:
REMARK  status: ('A' for Active; 'I' for Inactive)
REMARK    1  A    between atoms: C_17  and  C_16 
REMARK    2  A    between atoms: N_35  and  C_16 
REMARK    3  A    between atoms: O_38  and  C_17 
REMARK    4  A    between atoms: N_32  and  C_21 
REMARK    5  A    between atoms: N_30  and  C_22 
REMARK    6  A    between atoms: O_38  and  C_23 
REMARK    7  A    between atoms: S_39  and  C_24 
REMARK    8  A    between atoms: N_30  and  C_25 
REMARK       I    between atoms: N_32  and  C_26 
REMARK    9  A    between atoms: N_34  and  C_27 
REMARK   10  A    between atoms: S_39  and  N_34 
ROOT
HETATM    1  C   UNK N   1      25.920  15.762   6.406  0.00  0.00     0.054 C 
HETATM    2  C   UNK N   1      27.632  15.037   4.738  0.00  0.00     0.116 A 
HETATM    3  C   UNK N   1      26.954  16.076   5.378  0.00  0.00    -0.001 A 
HETATM    4  C   UNK N   1      27.261  17.392   5.012  0.00  0.00     0.128 A 
HETATM    5  C   UNK N   1      28.864  16.602   3.462  0.00  0.00     0.684 A 
HETATM    6  N   UNK N   1      28.593  15.316   3.817  0.00  0.00    -0.201 N 
ATOM      7  HN  UNK N   1      29.116  14.554   3.386  1.00  0.00     0.183 HD
HETATM    8  N   UNK N   1      30.034  16.902   2.727  0.00  0.00    -0.192 N 
HETATM    9  N   UNK N   1      28.206  17.612   4.057  0.00  0.00    -0.176 N 
HETATM   10  H   UNK N   1      29.979  17.249   1.808  0.00  0.00     0.184 HD
HETATM   11  H   UNK N   1      28.412  18.538   3.794  0.00  0.00     0.186 HD
ENDROOT
BRANCH   4  12
HETATM   12  N   UNK N   1      26.672  18.398   5.560  0.00  0.00    -0.342 N 
ATOM     13  HN  UNK N   1      26.868  18.650   6.529  1.00  0.00     0.167 HD
BRANCH  12  14
HETATM   14  C   UNK N   1      25.747  19.149   4.797  0.00  0.00     0.035 A 
HETATM   15  C   UNK N   1      26.165  20.080   3.835  0.00  0.00     0.029 A 
HETATM   16  C   UNK N   1      25.231  20.609   2.928  0.00  0.00     0.004 A 
HETATM   17  C   UNK N   1      23.893  20.176   2.957  0.00  0.00     0.025 A 
HETATM   18  C   UNK N   1      23.486  19.236   3.916  0.00  0.00     0.081 A 
HETATM   19  C   UNK N   1      24.434  18.719   4.802  0.00  0.00     0.054 A 
BRANCH  18  20
HETATM   20  S   UNK N   1      21.819  18.533   3.945  0.00  0.00     0.259 S 
HETATM   21  O   UNK N   1      21.902  19.462   2.724  0.00  0.00    -0.201 OA
HETATM   22  O   UNK N   1      21.031  19.621   4.693  0.00  0.00    -0.201 OA
BRANCH  20  23
HETATM   23  N   UNK N   1      20.535  17.988   2.850  0.00  0.00    -0.307 N 
HETATM   24  H   UNK N   1      19.906  18.628   2.365  0.00  0.00     0.173 HD
BRANCH  23  25
HETATM   25  C   UNK N   1      20.465  16.539   2.711  0.00  0.00     0.029 C 
HETATM   26  C   UNK N   1      19.546  15.958   3.768  0.00  0.00     0.038 C 
HETATM   27  C   UNK N   1      20.004  16.123   1.323  0.00  0.00     0.038 C 
HETATM   28  C   UNK N   1      21.859  15.989   2.927  0.00  0.00     0.038 C 
ENDBRANCH  23  25
ENDBRANCH  20  23
ENDBRANCH  18  20
ENDBRANCH  12  14
ENDBRANCH   4  12
BRANCH   8  29
HETATM   29  C   UNK N   1      31.290  16.690   3.350  0.00  0.00     0.049 A 
HETATM   30  C   UNK N   1      32.017  15.519   3.118  0.00  0.00     0.033 A 
HETATM   31  C   UNK N   1      33.206  15.288   3.827  0.00  0.00     0.039 A 
HETATM   32  C   UNK N   1      33.670  16.229   4.759  0.00  0.00     0.069 A 
HETATM   33  C   UNK N   1      32.978  17.433   4.916  0.00  0.00     0.039 A 
HETATM   34  C   UNK N   1      31.801  17.657   4.229  0.00  0.00     0.033 A 
BRANCH  32  35
HETATM   35  O   UNK N   1      34.737  15.921   5.541  0.00  0.00    -0.349 OA
BRANCH  35  36
HETATM   36  C   UNK N   1      34.822  16.035   6.927  0.00  0.00     0.206 C 
BRANCH  36  37
HETATM   37  C   UNK N   1      33.847  15.160   7.741  0.00  0.00     0.299 C 
BRANCH  37  38
HETATM   38  N   UNK N   1      33.400  15.794   8.980  0.00  0.00     0.090 N 
HETATM   39  C   UNK N   1      33.555  17.237   8.841  0.00  0.00     0.272 C 
HETATM   40  C   UNK N   1      32.233  17.826   8.379  0.00  0.00     0.032 C 
HETATM   41  C   UNK N   1      31.246  16.688   8.391  0.00  0.00     0.032 C 
HETATM   42  C   UNK N   1      31.965  15.563   9.102  0.00  0.00     0.272 C 
ENDBRANCH  37  38
ENDBRANCH  36  37
ENDBRANCH  35  36
ENDBRANCH  32  35
ENDBRANCH   8  29
TORSDOF 10
ENDMDL
MODEL 3
REMARK VINA RESULT:      -7.9      4.038      5.020
REMARK  10 active torsions:
REMARK  status: ('A' for Active; 'I' for Inactive)
REMARK    1  A    between atoms: C_17  and  C_16 
REMARK    2  A    between atoms: N_35  and  C_16 
REMARK    3  A    between atoms: O_38  and  C_17 
REMARK    4  A    between atoms: N_32  and  C_21 
REMARK    5  A    between atoms: N_30  and  C_22 
REMARK    6  A    between atoms: O_38  and  C_23 
REMARK    7  A    between atoms: S_39  and  C_24 
REMARK    8  A    between atoms: N_30  and  C_25 
REMARK       I    between atoms: N_32  and  C_26 
REMARK    9  A    between atoms: N_34  and  C_27 
REMARK   10  A    between atoms: S_39  and  N_34 
ROOT
HETATM    1  C   UNK N   1      28.233  20.013   4.974  0.00  0.00     0.054 C 
HETATM    2  C   UNK N   1      26.804  18.260   3.913  0.00  0.00     0.116 A 
HETATM    3  C   UNK N   1      27.840  18.586   4.790  0.00  0.00    -0.001 A 
HETATM    4  C   UNK N   1      28.494  17.544   5.459  0.00  0.00     0.128 A 
HETATM    5  C   UNK N   1      27.086  15.963   4.402  0.00  0.00     0.684 A 
HETATM    6  N   UNK N   1      26.425  16.963   3.757  0.00  0.00    -0.201 N 
ATOM      7  HN  UNK N   1      25.638  16.736   3.148  1.00  0.00     0.183 HD
HETATM    8  N   UNK N   1      26.525  14.667   4.461  0.00  0.00    -0.192 N 
HETATM    9  N   UNK N   1      28.097  16.261   5.236  0.00  0.00    -0.176 N 
HETATM   10  H   UNK N   1      26.961  13.907   4.012  0.00  0.00     0.184 HD
HETATM   11  H   UNK N   1      28.566  15.529   5.700  0.00  0.00     0.186 HD
ENDROOT
BRANCH   4  12
HETATM   12  N   UNK N   1      29.460  17.772   6.280  0.00  0.00    -0.342 N 
ATOM     13  HN  UNK N   1      29.275  18.174   7.199  1.00  0.00     0.167 HD
BRANCH  12  14
HETATM   14  C   UNK N   1      30.782  17.459   5.887  0.00  0.00     0.035 A 
HETATM   15  C   UNK N   1      31.188  17.509   4.545  0.00  0.00     0.029 A 
HETATM   16  C   UNK N   1      32.555  17.445   4.230  0.00  0.00     0.004 A 
HETATM   17  C   UNK N   1      33.516  17.373   5.255  0.00  0.00     0.025 A 
HETATM   18  C   UNK N   1      33.101  17.336   6.595  0.00  0.00     0.081 A 
HETATM   19  C   UNK N   1      31.737  17.408   6.885  0.00  0.00     0.054 A 
BRANCH  18  20
HETATM   20  S   UNK N   1      34.269  17.370   7.977  0.00  0.00     0.259 S 
HETATM   21  O   UNK N   1      32.917  17.876   8.507  0.00  0.00    -0.201 OA
HETATM   22  O   UNK N   1      34.770  18.823   7.931  0.00  0.00    -0.201 OA
BRANCH  20  23
HETATM   23  N   UNK N   1      34.330  17.130   9.734  0.00  0.00    -0.307 N 
HETATM   24  H   UNK N   1      34.131  17.870  10.407  0.00  0.00     0.173 HD
BRANCH  23  25
HETATM   25  C   UNK N   1      34.694  15.773  10.122  0.00  0.00     0.029 C 
HETATM   26  C   UNK N   1      35.511  15.798  11.399  0.00  0.00     0.038 C 
HETATM   27  C   UNK N   1      33.471  14.885  10.294  0.00  0.00     0.038 C 
HETATM   28  C   UNK N   1      35.545  15.191   9.015  0.00  0.00     0.038 C 
ENDBRANCH  23  25
ENDBRANCH  20  23
ENDBRANCH  18  20
ENDBRANCH  12  14
ENDBRANCH   4  12
BRANCH   8  29
HETATM   29  C   UNK N   1      25.318  14.490   5.183  0.00  0.00     0.049 A 
HETATM   30  C   UNK N   1      25.306  14.531   6.580  0.00  0.00     0.033 A 
HETATM   31  C   UNK N   1      24.118  14.250   7.273  0.00  0.00     0.039 A 
HETATM   32  C   UNK N   1      22.944  13.937   6.569  0.00  0.00     0.069 A 
HETATM   33  C   UNK N   1      22.952  13.986   5.173  0.00  0.00     0.039 A 
HETATM   34  C   UNK N   1      24.123  14.250   4.489  0.00  0.00     0.033 A 
BRANCH  32  35
HETATM   35  O   UNK N   1      21.847  13.523   7.255  0.00  0.00    -0.349 OA
BRANCH  35  36
HETATM   36  C   UNK N   1      21.216  14.182   8.307  0.00  0.00     0.206 C 
BRANCH  36  37
HETATM   37  C   UNK N   1      21.678  13.793   9.726  0.00  0.00     0.299 C 
BRANCH  37  38
HETATM   38  N   UNK N   1      21.630  12.353   9.973  0.00  0.00     0.090 N 
HETATM   39  C   UNK N   1      22.987  11.826   9.891  0.00  0.00     0.272 C 
HETATM   40  C   UNK N   1      23.575  11.774  11.291  0.00  0.00     0.032 C 
HETATM   41  C   UNK N   1      22.455  12.157  12.225  0.00  0.00     0.032 C 
HETATM   42  C   UNK N   1      21.215  12.156  11.358  0.00  0.00     0.272 C 
ENDBRANCH  37  38
ENDBRANCH  36  37
ENDBRANCH  35  36
ENDBRANCH  32  35
ENDBRANCH   8  29
TORSDOF 10
ENDMDL
MODEL 4
REMARK VINA RESULT:      -7.7      6.265     14.311
REMARK  10 active torsions:
REMARK  status: ('A' for Active; 'I' for Inactive)
REMARK    1  A    between atoms: C_17  and  C_16 
REMARK    2  A    between atoms: N_35  and  C_16 
REMARK    3  A    between atoms: O_38  and  C_17 
REMARK    4  A    between atoms: N_32  and  C_21 
REMARK    5  A    between atoms: N_30  and  C_22 
REMARK    6  A    between atoms: O_38  and  C_23 
REMARK    7  A    between atoms: S_39  and  C_24 
REMARK    8  A    between atoms: N_30  and  C_25 
REMARK       I    between atoms: N_32  and  C_26 
REMARK    9  A    between atoms: N_34  and  C_27 
REMARK   10  A    between atoms: S_39  and  N_34 
ROOT
HETATM    1  C   UNK N   1      36.575  12.851   8.532  0.00  0.00     0.054 C 
HETATM    2  C   UNK N   1      37.371  13.047  10.891  0.00  0.00     0.116 A 
HETATM    3  C   UNK N   1      36.365  13.267   9.949  0.00  0.00    -0.001 A 
HETATM    4  C   UNK N   1      35.188  13.896  10.371  0.00  0.00     0.128 A 
HETATM    5  C   UNK N   1      36.033  14.030  12.576  0.00  0.00     0.684 A 
HETATM    6  N   UNK N   1      37.178  13.403  12.190  0.00  0.00    -0.201 N 
ATOM      7  HN  UNK N   1      37.899  13.199  12.882  1.00  0.00     0.183 HD
HETATM    8  N   UNK N   1      35.717  14.143  13.950  0.00  0.00    -0.192 N 
HETATM    9  N   UNK N   1      35.063  14.264  11.676  0.00  0.00    -0.176 N 
HETATM   10  H   UNK N   1      35.686  15.023  14.390  0.00  0.00     0.184 HD
HETATM   11  H   UNK N   1      34.239  14.715  11.968  0.00  0.00     0.186 HD
ENDROOT
BRANCH   4  12
HETATM   12  N   UNK N   1      34.220  14.132   9.554  0.00  0.00    -0.342 N 
ATOM     13  HN  UNK N   1      33.724  13.364   9.102  1.00  0.00     0.167 HD
BRANCH  12  14
HETATM   14  C   UNK N   1      33.856  15.473   9.291  0.00  0.00     0.035 A 
HETATM   15  C   UNK N   1      34.803  16.437   8.911  0.00  0.00     0.029 A 
HETATM   16  C   UNK N   1      34.370  17.677   8.413  0.00  0.00     0.004 A 
HETATM   17  C   UNK N   1      32.997  17.937   8.257  0.00  0.00     0.025 A 
HETATM   18  C   UNK N   1      32.057  16.963   8.628  0.00  0.00     0.081 A 
HETATM   19  C   UNK N   1      32.511  15.735   9.114  0.00  0.00     0.054 A 
BRANCH  18  20
HETATM   20  S   UNK N   1      30.281  17.164   8.345  0.00  0.00     0.259 S 
HETATM   21  O   UNK N   1      30.831  18.530   8.790  0.00  0.00    -0.201 OA
HETATM   22  O   UNK N   1      29.712  16.958   9.759  0.00  0.00    -0.201 OA
BRANCH  20  23
HETATM   23  N   UNK N   1      29.107  18.359   7.763  0.00  0.00    -0.307 N 
HETATM   24  H   UNK N   1      28.872  19.208   8.277  0.00  0.00     0.173 HD
BRANCH  23  25
HETATM   25  C   UNK N   1      28.508  18.009   6.481  0.00  0.00     0.029 C 
HETATM   26  C   UNK N   1      29.587  17.599   5.497  0.00  0.00     0.038 C 
HETATM   27  C   UNK N   1      27.473  16.903   6.621  0.00  0.00     0.038 C 
HETATM   28  C   UNK N   1      27.810  19.241   5.948  0.00  0.00     0.038 C 
ENDBRANCH  23  25
ENDBRANCH  20  23
ENDBRANCH  18  20
ENDBRANCH  12  14
ENDBRANCH   4  12
BRANCH   8  29
HETATM   29  C   UNK N   1      35.447  12.956  14.676  0.00  0.00     0.049 A 
HETATM   30  C   UNK N   1      35.974  12.763  15.956  0.00  0.00     0.033 A 
HETATM   31  C   UNK N   1      35.778  11.537  16.610  0.00  0.00     0.039 A 
HETATM   32  C   UNK N   1      35.050  10.510  15.988  0.00  0.00     0.069 A 
HETATM   33  C   UNK N   1      34.457  10.750  14.745  0.00  0.00     0.039 A 
HETATM   34  C   UNK N   1      34.660  11.951  14.095  0.00  0.00     0.033 A 
BRANCH  32  35
HETATM   35  O   UNK N   1      34.999   9.284  16.570  0.00  0.00    -0.349 OA
BRANCH  35  36
HETATM   36  C   UNK N   1      35.151   8.990  17.923  0.00  0.00     0.206 C 
BRANCH  36  37
HETATM   37  C   UNK N   1      33.914   9.228  18.812  0.00  0.00     0.299 C 
BRANCH  37  38
HETATM   38  N   UNK N   1      33.746   8.211  19.849  0.00  0.00     0.090 N 
HETATM   39  C   UNK N   1      33.649   8.880  21.140  0.00  0.00     0.272 C 
HETATM   40  C   UNK N   1      32.181   9.080  21.476  0.00  0.00     0.032 C 
HETATM   41  C   UNK N   1      31.408   8.369  20.396  0.00  0.00     0.032 C 
HETATM   42  C   UNK N   1      32.449   7.575  19.638  0.00  0.00     0.272 C 
ENDBRANCH  37  38
ENDBRANCH  36  37
ENDBRANCH  35  36
ENDBRANCH  32  35
ENDBRANCH   8  29
TORSDOF 10
ENDMDL
MODEL 5
REMARK VINA RESULT:      -7.7      5.341     14.165
REMARK  10 active torsions:
REMARK  status: ('A' for Active; 'I' for Inactive)
REMARK    1  A    between atoms: C_17  and  C_16 
REMARK    2  A    between atoms: N_35  and  C_16 
REMARK    3  A    between atoms: O_38  and  C_17 
REMARK    4  A    between atoms: N_32  and  C_21 
REMARK    5  A    between atoms: N_30  and  C_22 
REMARK    6  A    between atoms: O_38  and  C_23 
REMARK    7  A    between atoms: S_39  and  C_24 
REMARK    8  A    between atoms: N_30  and  C_25 
REMARK       I    between atoms: N_32  and  C_26 
REMARK    9  A    between atoms: N_34  and  C_27 
REMARK   10  A    between atoms: S_39  and  N_34 
ROOT
HETATM    1  C   UNK N   1      36.649  12.892   8.564  0.00  0.00     0.054 C 
HETATM    2  C   UNK N   1      37.403  13.079  10.937  0.00  0.00     0.116 A 
HETATM    3  C   UNK N   1      36.410  13.293   9.980  0.00  0.00    -0.001 A 
HETATM    4  C   UNK N   1      35.217  13.903  10.387  0.00  0.00     0.128 A 
HETATM    5  C   UNK N   1      36.024  14.030  12.608  0.00  0.00     0.684 A 
HETATM    6  N   UNK N   1      37.183  13.421  12.236  0.00  0.00    -0.201 N 
ATOM      7  HN  UNK N   1      37.895  13.221  12.938  1.00  0.00     0.183 HD
HETATM    8  N   UNK N   1      35.684  14.128  13.977  0.00  0.00    -0.192 N 
HETATM    9  N   UNK N   1      35.066  14.259  11.693  0.00  0.00    -0.176 N 
HETATM   10  H   UNK N   1      35.633  15.004  14.423  0.00  0.00     0.184 HD
HETATM   11  H   UNK N   1      34.231  14.697  11.974  0.00  0.00     0.186 HD
ENDROOT
BRANCH   4  12
HETATM   12  N   UNK N   1      34.260  14.134   9.556  0.00  0.00    -0.342 N 
ATOM     13  HN  UNK N   1      33.776  13.362   9.096  1.00  0.00     0.167 HD
BRANCH  12  14
HETATM   14  C   UNK N   1      33.892  15.473   9.289  0.00  0.00     0.035 A 
HETATM   15  C   UNK N   1      34.833  16.436   8.897  0.00  0.00     0.029 A 
HETATM   16  C   UNK N   1      34.393  17.672   8.396  0.00  0.00     0.004 A 
HETATM   17  C   UNK N   1      33.018  17.929   8.248  0.00  0.00     0.025 A 
HETATM   18  C   UNK N   1      32.084  16.955   8.632  0.00  0.00     0.081 A 
HETATM   19  C   UNK N   1      32.544  15.730   9.121  0.00  0.00     0.054 A 
BRANCH  18  20
HETATM   20  S   UNK N   1      30.305  17.150   8.363  0.00  0.00     0.259 S 
HETATM   21  O   UNK N   1      30.849  18.510   8.833  0.00  0.00    -0.201 OA
HETATM   22  O   UNK N   1      29.744  16.911   9.774  0.00  0.00    -0.201 OA
BRANCH  20  23
HETATM   23  N   UNK N   1      29.120  18.349   7.812  0.00  0.00    -0.307 N 
HETATM   24  H   UNK N   1      28.869  19.177   8.352  0.00  0.00     0.173 HD
BRANCH  23  25
HETATM   25  C   UNK N   1      28.538  18.036   6.512  0.00  0.00     0.029 C 
HETATM   26  C   UNK N   1      27.777  19.234   5.980  0.00  0.00     0.038 C 
HETATM   27  C   UNK N   1      29.593  17.592   5.511  0.00  0.00     0.038 C 
HETATM   28  C   UNK N   1      27.566  16.893   6.707  0.00  0.00     0.038 C 
ENDBRANCH  23  25
ENDBRANCH  20  23
ENDBRANCH  18  20
ENDBRANCH  12  14
ENDBRANCH   4  12
BRANCH   8  29
HETATM   29  C   UNK N   1      35.417  12.931  14.689  0.00  0.00     0.049 A 
HETATM   30  C   UNK N   1      36.038  12.672  15.913  0.00  0.00     0.033 A 
HETATM   31  C   UNK N   1      35.837  11.436  16.546  0.00  0.00     0.039 A 
HETATM   32  C   UNK N   1      35.010  10.465  15.959  0.00  0.00     0.069 A 
HETATM   33  C   UNK N   1      34.329  10.772  14.778  0.00  0.00     0.039 A 
HETATM   34  C   UNK N   1      34.535  11.984  14.148  0.00  0.00     0.033 A 
BRANCH  32  35
HETATM   35  O   UNK N   1      34.947   9.224  16.507  0.00  0.00    -0.349 OA
BRANCH  35  36
HETATM   36  C   UNK N   1      35.700   8.109  16.148  0.00  0.00     0.206 C 
BRANCH  36  37
HETATM   37  C   UNK N   1      37.225   8.223  16.355  0.00  0.00     0.299 C 
BRANCH  37  38
HETATM   38  N   UNK N   1      37.994   7.932  15.147  0.00  0.00     0.090 N 
HETATM   39  C   UNK N   1      37.201   8.326  13.989  0.00  0.00     0.272 C 
HETATM   40  C   UNK N   1      37.601   9.734  13.581  0.00  0.00     0.032 C 
HETATM   41  C   UNK N   1      38.770  10.103  14.457  0.00  0.00     0.032 C 
HETATM   42  C   UNK N   1      39.159   8.812  15.143  0.00  0.00     0.272 C 
ENDBRANCH  37  38
ENDBRANCH  36  37
ENDBRANCH  35  36
ENDBRANCH  32  35
ENDBRANCH   8  29
TORSDOF 10
ENDMDL
MODEL 6
REMARK VINA RESULT:      -7.7      4.317     10.186
REMARK  10 active torsions:
REMARK  status: ('A' for Active; 'I' for Inactive)
REMARK    1  A    between atoms: C_17  and  C_16 
REMARK    2  A    between atoms: N_35  and  C_16 
REMARK    3  A    between atoms: O_38  and  C_17 
REMARK    4  A    between atoms: N_32  and  C_21 
REMARK    5  A    between atoms: N_30  and  C_22 
REMARK    6  A    between atoms: O_38  and  C_23 
REMARK    7  A    between atoms: S_39  and  C_24 
REMARK    8  A    between atoms: N_30  and  C_25 
REMARK       I    between atoms: N_32  and  C_26 
REMARK    9  A    between atoms: N_34  and  C_27 
REMARK   10  A    between atoms: S_39  and  N_34 
ROOT
HETATM    1  C   UNK N   1      19.454  14.107   2.849  0.00  0.00     0.054 C 
HETATM    2  C   UNK N   1      20.596  16.143   1.962  0.00  0.00     0.116 A 
HETATM    3  C   UNK N   1      19.918  15.515   3.008  0.00  0.00    -0.001 A 
HETATM    4  C   UNK N   1      19.680  16.247   4.178  0.00  0.00     0.128 A 
HETATM    5  C   UNK N   1      20.784  18.121   3.246  0.00  0.00     0.684 A 
HETATM    6  N   UNK N   1      21.042  17.420   2.108  0.00  0.00    -0.201 N 
ATOM      7  HN  UNK N   1      21.575  17.858   1.357  1.00  0.00     0.183 HD
HETATM    8  N   UNK N   1      21.477  19.325   3.508  0.00  0.00    -0.192 N 
HETATM    9  N   UNK N   1      20.117  17.535   4.255  0.00  0.00    -0.176 N 
HETATM   10  H   UNK N   1      21.002  20.186   3.535  0.00  0.00     0.184 HD
HETATM   11  H   UNK N   1      19.939  18.051   5.074  0.00  0.00     0.186 HD
ENDROOT
BRANCH   4  12
HETATM   12  N   UNK N   1      19.058  15.731   5.181  0.00  0.00    -0.342 N 
ATOM     13  HN  UNK N   1      18.149  15.286   5.053  1.00  0.00     0.167 HD
BRANCH  12  14
HETATM   14  C   UNK N   1      19.654  15.792   6.462  0.00  0.00     0.035 A 
HETATM   15  C   UNK N   1      19.085  16.532   7.509  0.00  0.00     0.029 A 
HETATM   16  C   UNK N   1      19.560  16.358   8.820  0.00  0.00     0.004 A 
HETATM   17  C   UNK N   1      20.569  15.417   9.089  0.00  0.00     0.025 A 
HETATM   18  C   UNK N   1      21.123  14.672   8.037  0.00  0.00     0.081 A 
HETATM   19  C   UNK N   1      20.632  14.856   6.743  0.00  0.00     0.054 A 
BRANCH  18  20
HETATM   20  S   UNK N   1      22.334  13.355   8.309  0.00  0.00     0.259 S 
HETATM   21  O   UNK N   1      20.961  12.807   8.730  0.00  0.00    -0.201 OA
HETATM   22  O   UNK N   1      22.687  13.551   9.793  0.00  0.00    -0.201 OA
BRANCH  20  23
HETATM   23  N   UNK N   1      22.487  11.589   8.237  0.00  0.00    -0.307 N 
HETATM   24  H   UNK N   1      22.211  10.972   9.001  0.00  0.00     0.173 HD
BRANCH  23  25
HETATM   25  C   UNK N   1      23.047  11.105   6.981  0.00  0.00     0.029 C 
HETATM   26  C   UNK N   1      21.939  10.861   5.976  0.00  0.00     0.038 C 
HETATM   27  C   UNK N   1      24.076  12.069   6.410  0.00  0.00     0.038 C 
HETATM   28  C   UNK N   1      23.741   9.791   7.264  0.00  0.00     0.038 C 
ENDBRANCH  23  25
ENDBRANCH  20  23
ENDBRANCH  18  20
ENDBRANCH  12  14
ENDBRANCH   4  12
BRANCH   8  29
HETATM   29  C   UNK N   1      22.876  19.259   3.730  0.00  0.00     0.049 A 
HETATM   30  C   UNK N   1      23.424  18.285   4.567  0.00  0.00     0.033 A 
HETATM   31  C   UNK N   1      24.798  18.306   4.852  0.00  0.00     0.039 A 
HETATM   32  C   UNK N   1      25.623  19.296   4.293  0.00  0.00     0.069 A 
HETATM   33  C   UNK N   1      25.075  20.211   3.390  0.00  0.00     0.039 A 
HETATM   34  C   UNK N   1      23.721  20.198   3.119  0.00  0.00     0.033 A 
BRANCH  32  35
HETATM   35  O   UNK N   1      26.916  19.391   4.697  0.00  0.00    -0.349 OA
BRANCH  35  36
HETATM   36  C   UNK N   1      27.661  18.421   5.363  0.00  0.00     0.206 C 
BRANCH  36  37
HETATM   37  C   UNK N   1      28.102  18.770   6.799  0.00  0.00     0.299 C 
BRANCH  37  38
HETATM   38  N   UNK N   1      28.466  17.597   7.591  0.00  0.00     0.090 N 
HETATM   39  C   UNK N   1      29.913  17.433   7.535  0.00  0.00     0.272 C 
HETATM   40  C   UNK N   1      30.528  18.109   8.749  0.00  0.00     0.032 C 
HETATM   41  C   UNK N   1      29.371  18.556   9.604  0.00  0.00     0.032 C 
HETATM   42  C   UNK N   1      28.158  17.894   8.987  0.00  0.00     0.272 C 
ENDBRANCH  37  38
ENDBRANCH  36  37
ENDBRANCH  35  36
ENDBRANCH  32  35
ENDBRANCH   8  29
TORSDOF 10
ENDMDL
MODEL 7
REMARK VINA RESULT:      -7.6     11.744     14.003
REMARK  10 active torsions:
REMARK  status: ('A' for Active; 'I' for Inactive)
REMARK    1  A    between atoms: C_17  and  C_16 
REMARK    2  A    between atoms: N_35  and  C_16 
REMARK    3  A    between atoms: O_38  and  C_17 
REMARK    4  A    between atoms: N_32  and  C_21 
REMARK    5  A    between atoms: N_30  and  C_22 
REMARK    6  A    between atoms: O_38  and  C_23 
REMARK    7  A    between atoms: S_39  and  C_24 
REMARK    8  A    between atoms: N_30  and  C_25 
REMARK       I    between atoms: N_32  and  C_26 
REMARK    9  A    between atoms: N_34  and  C_27 
REMARK   10  A    between atoms: S_39  and  N_34 
ROOT
HETATM    1  C   UNK N   1      30.512  23.168  -8.433  0.00  0.00     0.054 C 
HETATM    2  C   UNK N   1      28.354  24.425  -8.383  0.00  0.00     0.116 A 
HETATM    3  C   UNK N   1      29.143  23.388  -7.883  0.00  0.00    -0.001 A 
HETATM    4  C   UNK N   1      28.604  22.568  -6.884  0.00  0.00     0.128 A 
HETATM    5  C   UNK N   1      26.601  23.826  -6.912  0.00  0.00     0.684 A 
HETATM    6  N   UNK N   1      27.113  24.645  -7.871  0.00  0.00    -0.201 N 
ATOM      7  HN  UNK N   1      26.560  25.433  -8.209  1.00  0.00     0.183 HD
HETATM    8  N   UNK N   1      25.448  24.214  -6.192  0.00  0.00    -0.192 N 
HETATM    9  N   UNK N   1      27.342  22.812  -6.434  0.00  0.00    -0.176 N 
HETATM   10  H   UNK N   1      24.605  23.714  -6.279  0.00  0.00     0.184 HD
HETATM   11  H   UNK N   1      26.962  22.228  -5.739  0.00  0.00     0.186 HD
ENDROOT
BRANCH   4  12
HETATM   12  N   UNK N   1      29.276  21.591  -6.380  0.00  0.00    -0.342 N 
ATOM     13  HN  UNK N   1      29.141  20.639  -6.723  1.00  0.00     0.167 HD
BRANCH  12  14
HETATM   14  C   UNK N   1      30.201  21.856  -5.344  0.00  0.00     0.035 A 
HETATM   15  C   UNK N   1      29.786  22.264  -4.068  0.00  0.00     0.029 A 
HETATM   16  C   UNK N   1      30.706  22.265  -3.006  0.00  0.00     0.004 A 
HETATM   17  C   UNK N   1      32.025  21.820  -3.210  0.00  0.00     0.025 A 
HETATM   18  C   UNK N   1      32.427  21.402  -4.488  0.00  0.00     0.081 A 
HETATM   19  C   UNK N   1      31.494  21.403  -5.527  0.00  0.00     0.054 A 
BRANCH  18  20
HETATM   20  S   UNK N   1      34.063  20.699  -4.813  0.00  0.00     0.259 S 
HETATM   21  O   UNK N   1      33.859  20.697  -3.289  0.00  0.00    -0.201 OA
HETATM   22  O   UNK N   1      34.971  21.932  -4.668  0.00  0.00    -0.201 OA
BRANCH  20  23
HETATM   23  N   UNK N   1      35.184  19.476  -4.188  0.00  0.00    -0.307 N 
HETATM   24  H   UNK N   1      35.638  19.546  -3.277  0.00  0.00     0.173 HD
BRANCH  23  25
HETATM   25  C   UNK N   1      35.394  18.359  -5.102  0.00  0.00     0.029 C 
HETATM   26  C   UNK N   1      34.552  18.541  -6.349  0.00  0.00     0.038 C 
HETATM   27  C   UNK N   1      36.861  18.198  -5.472  0.00  0.00     0.038 C 
HETATM   28  C   UNK N   1      34.948  17.097  -4.395  0.00  0.00     0.038 C 
ENDBRANCH  23  25
ENDBRANCH  20  23
ENDBRANCH  18  20
ENDBRANCH  12  14
ENDBRANCH   4  12
BRANCH   8  29
HETATM   29  C   UNK N   1      25.538  25.343  -5.339  0.00  0.00     0.049 A 
HETATM   30  C   UNK N   1      24.940  26.556  -5.689  0.00  0.00     0.033 A 
HETATM   31  C   UNK N   1      25.133  27.685  -4.879  0.00  0.00     0.039 A 
HETATM   32  C   UNK N   1      25.915  27.598  -3.716  0.00  0.00     0.069 A 
HETATM   33  C   UNK N   1      26.435  26.359  -3.334  0.00  0.00     0.039 A 
HETATM   34  C   UNK N   1      26.256  25.249  -4.137  0.00  0.00     0.033 A 
BRANCH  32  35
HETATM   35  O   UNK N   1      26.214  28.731  -3.028  0.00  0.00    -0.349 OA
BRANCH  35  36
HETATM   36  C   UNK N   1      27.402  29.455  -3.080  0.00  0.00     0.206 C 
BRANCH  36  37
HETATM   37  C   UNK N   1      27.657  30.249  -4.378  0.00  0.00     0.299 C 
BRANCH  37  38
HETATM   38  N   UNK N   1      28.931  29.918  -5.014  0.00  0.00     0.090 N 
HETATM   39  C   UNK N   1      29.182  28.494  -4.833  0.00  0.00     0.272 C 
HETATM   40  C   UNK N   1      28.683  27.752  -6.061  0.00  0.00     0.032 C 
HETATM   41  C   UNK N   1      28.259  28.814  -7.043  0.00  0.00     0.032 C 
HETATM   42  C   UNK N   1      28.770  30.109  -6.452  0.00  0.00     0.272 C 
ENDBRANCH  37  38
ENDBRANCH  36  37
ENDBRANCH  35  36
ENDBRANCH  32  35
ENDBRANCH   8  29
TORSDOF 10
ENDMDL
MODEL 8
REMARK VINA RESULT:      -7.6      3.259     11.156
REMARK  10 active torsions:
REMARK  status: ('A' for Active; 'I' for Inactive)
REMARK    1  A    between atoms: C_17  and  C_16 
REMARK    2  A    between atoms: N_35  and  C_16 
REMARK    3  A    between atoms: O_38  and  C_17 
REMARK    4  A    between atoms: N_32  and  C_21 
REMARK    5  A    between atoms: N_30  and  C_22 
REMARK    6  A    between atoms: O_38  and  C_23 
REMARK    7  A    between atoms: S_39  and  C_24 
REMARK    8  A    between atoms: N_30  and  C_25 
REMARK       I    between atoms: N_32  and  C_26 
REMARK    9  A    between atoms: N_34  and  C_27 
REMARK   10  A    between atoms: S_39  and  N_34 
ROOT
HETATM    1  C   UNK N   1      26.128  20.648   2.977  0.00  0.00     0.054 C 
HETATM    2  C   UNK N   1      27.440  20.896   5.088  0.00  0.00     0.116 A 
HETATM    3  C   UNK N   1      26.532  20.158   4.326  0.00  0.00    -0.001 A 
HETATM    4  C   UNK N   1      26.011  18.979   4.874  0.00  0.00     0.128 A 
HETATM    5  C   UNK N   1      27.298  19.304   6.832  0.00  0.00     0.684 A 
HETATM    6  N   UNK N   1      27.829  20.443   6.311  0.00  0.00    -0.201 N 
ATOM      7  HN  UNK N   1      28.527  20.964   6.843  1.00  0.00     0.183 HD
HETATM    8  N   UNK N   1      27.899  18.693   7.957  0.00  0.00    -0.192 N 
HETATM    9  N   UNK N   1      26.409  18.593   6.118  0.00  0.00    -0.176 N 
HETATM   10  H   UNK N   1      27.425  18.644   8.819  0.00  0.00     0.184 HD
HETATM   11  H   UNK N   1      26.034  17.770   6.504  0.00  0.00     0.186 HD
ENDROOT
BRANCH   4  12
HETATM   12  N   UNK N   1      25.167  18.252   4.227  0.00  0.00    -0.342 N 
ATOM     13  HN  UNK N   1      25.488  17.588   3.522  1.00  0.00     0.167 HD
BRANCH  12  14
HETATM   14  C   UNK N   1      23.788  18.387   4.510  0.00  0.00     0.035 A 
HETATM   15  C   UNK N   1      22.916  19.054   3.637  0.00  0.00     0.029 A 
HETATM   16  C   UNK N   1      21.528  18.942   3.823  0.00  0.00     0.004 A 
HETATM   17  C   UNK N   1      21.013  18.132   4.852  0.00  0.00     0.025 A 
HETATM   18  C   UNK N   1      21.894  17.460   5.713  0.00  0.00     0.081 A 
HETATM   19  C   UNK N   1      23.269  17.580   5.505  0.00  0.00     0.054 A 
BRANCH  18  20
HETATM   20  S   UNK N   1      21.322  16.303   6.981  0.00  0.00     0.259 S 
HETATM   21  O   UNK N   1      20.549  15.985   5.691  0.00  0.00    -0.201 OA
HETATM   22  O   UNK N   1      20.076  17.021   7.525  0.00  0.00    -0.201 OA
BRANCH  20  23
HETATM   23  N   UNK N   1      20.760  14.631   7.167  0.00  0.00    -0.307 N 
HETATM   24  H   UNK N   1      19.871  14.295   6.795  0.00  0.00     0.173 HD
BRANCH  23  25
HETATM   25  C   UNK N   1      21.690  13.783   7.902  0.00  0.00     0.029 C 
HETATM   26  C   UNK N   1      21.526  14.001   9.394  0.00  0.00     0.038 C 
HETATM   27  C   UNK N   1      21.510  12.312   7.559  0.00  0.00     0.038 C 
HETATM   28  C   UNK N   1      23.093  14.189   7.506  0.00  0.00     0.038 C 
ENDBRANCH  23  25
ENDBRANCH  20  23
ENDBRANCH  18  20
ENDBRANCH  12  14
ENDBRANCH   4  12
BRANCH   8  29
HETATM   29  C   UNK N   1      29.202  18.154   7.811  0.00  0.00     0.049 A 
HETATM   30  C   UNK N   1      29.491  17.245   6.790  0.00  0.00     0.033 A 
HETATM   31  C   UNK N   1      30.760  16.648   6.731  0.00  0.00     0.039 A 
HETATM   32  C   UNK N   1      31.738  16.965   7.687  0.00  0.00     0.069 A 
HETATM   33  C   UNK N   1      31.461  17.940   8.649  0.00  0.00     0.039 A 
HETATM   34  C   UNK N   1      30.210  18.520   8.716  0.00  0.00     0.033 A 
BRANCH  32  35
HETATM   35  O   UNK N   1      32.904  16.268   7.703  0.00  0.00    -0.349 OA
BRANCH  35  36
HETATM   36  C   UNK N   1      33.108  14.987   8.211  0.00  0.00     0.206 C 
BRANCH  36  37
HETATM   37  C   UNK N   1      33.807  14.905   9.584  0.00  0.00     0.299 C 
BRANCH  37  38
HETATM   38  N   UNK N   1      35.104  15.578   9.611  0.00  0.00     0.090 N 
HETATM   39  C   UNK N   1      35.216  16.314  10.864  0.00  0.00     0.272 C 
HETATM   40  C   UNK N   1      35.946  15.446  11.875  0.00  0.00     0.032 C 
HETATM   41  C   UNK N   1      36.392  14.220  11.123  0.00  0.00     0.032 C 
HETATM   42  C   UNK N   1      36.135  14.546   9.668  0.00  0.00     0.272 C 
ENDBRANCH  37  38
ENDBRANCH  36  37
ENDBRANCH  35  36
ENDBRANCH  32  35
ENDBRANCH   8  29
TORSDOF 10
ENDMDL
MODEL 9
REMARK VINA RESULT:      -7.6      7.540     15.435
REMARK  10 active torsions:
REMARK  status: ('A' for Active; 'I' for Inactive)
REMARK    1  A    between atoms: C_17  and  C_16 
REMARK    2  A    between atoms: N_35  and  C_16 
REMARK    3  A    between atoms: O_38  and  C_17 
REMARK    4  A    between atoms: N_32  and  C_21 
REMARK    5  A    between atoms: N_30  and  C_22 
REMARK    6  A    between atoms: O_38  and  C_23 
REMARK    7  A    between atoms: S_39  and  C_24 
REMARK    8  A    between atoms: N_30  and  C_25 
REMARK       I    between atoms: N_32  and  C_26 
REMARK    9  A    between atoms: N_34  and  C_27 
REMARK   10  A    between atoms: S_39  and  N_34 
ROOT
HETATM    1  C   UNK N   1      36.789  11.632  10.795  0.00  0.00     0.054 C 
HETATM    2  C   UNK N   1      37.517  11.809  13.178  0.00  0.00     0.116 A 
HETATM    3  C   UNK N   1      36.581  12.118  12.190  0.00  0.00    -0.001 A 
HETATM    4  C   UNK N   1      35.476  12.901  12.546  0.00  0.00     0.128 A 
HETATM    5  C   UNK N   1      36.251  13.005  14.779  0.00  0.00     0.684 A 
HETATM    6  N   UNK N   1      37.322  12.229  14.457  0.00  0.00    -0.201 N 
ATOM      7  HN  UNK N   1      37.987  11.962  15.184  1.00  0.00     0.183 HD
HETATM    8  N   UNK N   1      35.902  13.203  16.134  0.00  0.00    -0.192 N 
HETATM    9  N   UNK N   1      35.351  13.326  13.833  0.00  0.00    -0.176 N 
HETATM   10  H   UNK N   1      35.964  14.094  16.547  0.00  0.00     0.184 HD
HETATM   11  H   UNK N   1      34.579  13.885  14.078  0.00  0.00     0.186 HD
ENDROOT
BRANCH   4  12
HETATM   12  N   UNK N   1      34.576  13.228  11.684  0.00  0.00    -0.342 N 
ATOM     13  HN  UNK N   1      33.884  12.545  11.374  1.00  0.00     0.167 HD
BRANCH  12  14
HETATM   14  C   UNK N   1      34.561  14.546  11.173  0.00  0.00     0.035 A 
HETATM   15  C   UNK N   1      35.627  15.434  11.384  0.00  0.00     0.029 A 
HETATM   16  C   UNK N   1      35.690  16.630  10.650  0.00  0.00     0.004 A 
HETATM   17  C   UNK N   1      34.714  16.918   9.679  0.00  0.00     0.025 A 
HETATM   18  C   UNK N   1      33.658  16.019   9.467  0.00  0.00     0.081 A 
HETATM   19  C   UNK N   1      33.620  14.832  10.202  0.00  0.00     0.054 A 
BRANCH  18  20
HETATM   20  S   UNK N   1      32.432  16.248   8.156  0.00  0.00     0.259 S 
HETATM   21  O   UNK N   1      32.871  17.646   8.621  0.00  0.00    -0.201 OA
HETATM   22  O   UNK N   1      31.133  16.411   8.963  0.00  0.00    -0.201 OA
BRANCH  20  23
HETATM   23  N   UNK N   1      32.040  17.337   6.812  0.00  0.00    -0.307 N 
HETATM   24  H   UNK N   1      31.608  18.252   6.941  0.00  0.00     0.173 HD
BRANCH  23  25
HETATM   25  C   UNK N   1      32.394  16.798   5.505  0.00  0.00     0.029 C 
HETATM   26  C   UNK N   1      31.728  17.607   4.409  0.00  0.00     0.038 C 
HETATM   27  C   UNK N   1      33.900  16.762   5.295  0.00  0.00     0.038 C 
HETATM   28  C   UNK N   1      31.878  15.377   5.439  0.00  0.00     0.038 C 
ENDBRANCH  23  25
ENDBRANCH  20  23
ENDBRANCH  18  20
ENDBRANCH  12  14
ENDBRANCH   4  12
BRANCH   8  29
HETATM   29  C   UNK N   1      35.460  12.083  16.884  0.00  0.00     0.049 A 
HETATM   30  C   UNK N   1      35.424  12.124  18.280  0.00  0.00     0.033 A 
HETATM   31  C   UNK N   1      35.083  10.968  18.999  0.00  0.00     0.039 A 
HETATM   32  C   UNK N   1      34.769   9.779  18.323  0.00  0.00     0.069 A 
HETATM   33  C   UNK N   1      34.725   9.779  16.926  0.00  0.00     0.039 A 
HETATM   34  C   UNK N   1      35.073  10.911  16.217  0.00  0.00     0.033 A 
BRANCH  32  35
HETATM   35  O   UNK N   1      34.589   8.636  19.035  0.00  0.00    -0.349 OA
BRANCH  35  36
HETATM   36  C   UNK N   1      33.402   8.179  19.601  0.00  0.00     0.206 C 
BRANCH  36  37
HETATM   37  C   UNK N   1      33.365   8.116  21.142  0.00  0.00     0.299 C 
BRANCH  37  38
HETATM   38  N   UNK N   1      32.134   8.662  21.711  0.00  0.00     0.090 N 
HETATM   39  C   UNK N   1      31.984   8.145  23.066  0.00  0.00     0.272 C 
HETATM   40  C   UNK N   1      32.564   9.156  24.040  0.00  0.00     0.032 C 
HETATM   41  C   UNK N   1      32.934  10.362  23.215  0.00  0.00     0.032 C 
HETATM   42  C   UNK N   1      32.316  10.103  21.858  0.00  0.00     0.272 C 
ENDBRANCH  37  38
ENDBRANCH  36  37
ENDBRANCH  35  36
ENDBRANCH  32  35
ENDBRANCH   8  29
TORSDOF 10
ENDMDL
