MODEL 1
REMARK VINA RESULT:      -4.3      0.000      0.000
REMARK  3 active torsions:
REMARK  status: ('A' for Active; 'I' for Inactive)
REMARK    1  A    between atoms: N_1  and  C_2 
REMARK    2  A    between atoms: C_2  and  C_3 
REMARK    3  A    between atoms: C_5  and  O_6 
ROOT
HETATM    1  C   UNK N   1      20.638  19.270   3.033  0.00  0.00     0.097 A 
HETATM    2  C   UNK N   1      20.561  19.204   1.658  0.00  0.00     0.094 A 
HETATM    3  C   UNK N   1      20.781  20.510   1.281  0.00  0.00     0.162 A 
HETATM    4  N   UNK N   1      20.974  21.285   2.361  0.00  0.00    -0.239 N 
ATOM      5  HN  UNK N   1      21.157  22.289   2.365  1.00  0.00     0.197 HD
HETATM    6  O   UNK N   1      20.881  20.509   3.399  0.00  0.00    -0.238 OA
ENDROOT
BRANCH   1   7
HETATM    7  C   UNK N   1      20.471  18.119   3.965  0.00  0.00     0.178 C 
BRANCH   7   8
HETATM    8  N   UNK N   1      19.424  17.234   3.487  0.00  0.00    -0.424 N 
HETATM    9  H   UNK N   1      18.448  17.524   3.539  0.00  0.00     0.150 HD
HETATM   10  H   UNK N   1      19.664  16.322   3.099  0.00  0.00     0.150 HD
ENDBRANCH   7   8
ENDBRANCH   1   7
BRANCH   3  11
HETATM   11  O   UNK N   1      20.804  20.965   0.018  0.00  0.00    -0.345 OA
HETATM   12  H   UNK N   1      20.349  21.753  -0.205  0.00  0.00     0.219 HD
ENDBRANCH   3  11
TORSDOF 3
ENDMDL
MODEL 2
REMARK VINA RESULT:      -4.1     10.635     11.288
REMARK  3 active torsions:
REMARK  status: ('A' for Active; 'I' for Inactive)
REMARK    1  A    between atoms: N_1  and  C_2 
REMARK    2  A    between atoms: C_2  and  C_3 
REMARK    3  A    between atoms: C_5  and  O_6 
ROOT
HETATM    1  C   UNK N   1      23.329  12.734  10.216  0.00  0.00     0.097 A 
HETATM    2  C   UNK N   1      22.183  13.386   9.811  0.00  0.00     0.094 A 
HETATM    3  C   UNK N   1      21.202  12.756  10.544  0.00  0.00     0.162 A 
HETATM    4  N   UNK N   1      21.737  11.802  11.324  0.00  0.00    -0.239 N 
ATOM      5  HN  UNK N   1      21.235  11.187  11.965  1.00  0.00     0.197 HD
HETATM    6  O   UNK N   1      23.018  11.815  11.103  0.00  0.00    -0.238 OA
ENDROOT
BRANCH   1   7
HETATM    7  C   UNK N   1      24.707  13.022   9.729  0.00  0.00     0.178 C 
BRANCH   7   8
HETATM    8  N   UNK N   1      25.586  13.305  10.849  0.00  0.00    -0.424 N 
HETATM    9  H   UNK N   1      25.282  13.938  11.589  0.00  0.00     0.150 HD
HETATM   10  H   UNK N   1      26.508  12.871  10.897  0.00  0.00     0.150 HD
ENDBRANCH   7   8
ENDBRANCH   1   7
BRANCH   3  11
HETATM   11  O   UNK N   1      19.891  13.040  10.500  0.00  0.00    -0.345 OA
HETATM   12  H   UNK N   1      19.325  12.753  11.190  0.00  0.00     0.219 HD
ENDBRANCH   3  11
TORSDOF 3
ENDMDL
MODEL 3
REMARK VINA RESULT:      -4.1      7.091      8.208
REMARK  3 active torsions:
REMARK  status: ('A' for Active; 'I' for Inactive)
REMARK    1  A    between atoms: N_1  and  C_2 
REMARK    2  A    between atoms: C_2  and  C_3 
REMARK    3  A    between atoms: C_5  and  O_6 
ROOT
HETATM    1  C   UNK N   1      19.315  18.151   9.302  0.00  0.00     0.097 A 
HETATM    2  C   UNK N   1      18.090  17.981   9.913  0.00  0.00     0.094 A 
HETATM    3  C   UNK N   1      18.037  19.046  10.784  0.00  0.00     0.162 A 
HETATM    4  N   UNK N   1      19.154  19.786  10.690  0.00  0.00    -0.239 N 
ATOM      5  HN  UNK N   1      19.372  20.629  11.222  1.00  0.00     0.197 HD
HETATM    6  O   UNK N   1      19.902  19.222   9.790  0.00  0.00    -0.238 OA
ENDROOT
BRANCH   1   7
HETATM    7  C   UNK N   1      19.890  17.263   8.252  0.00  0.00     0.178 C 
BRANCH   7   8
HETATM    8  N   UNK N   1      20.555  16.128   8.866  0.00  0.00    -0.424 N 
HETATM    9  H   UNK N   1      21.296  16.280   9.551  0.00  0.00     0.150 HD
HETATM   10  H   UNK N   1      20.284  15.178   8.613  0.00  0.00     0.150 HD
ENDBRANCH   7   8
ENDBRANCH   1   7
BRANCH   3  11
HETATM   11  O   UNK N   1      17.022  19.322  11.619  0.00  0.00    -0.345 OA
HETATM   12  H   UNK N   1      17.089  20.042  12.215  0.00  0.00     0.219 HD
ENDBRANCH   3  11
TORSDOF 3
ENDMDL
MODEL 4
REMARK VINA RESULT:      -3.9     15.211     15.615
REMARK  3 active torsions:
REMARK  status: ('A' for Active; 'I' for Inactive)
REMARK    1  A    between atoms: N_1  and  C_2 
REMARK    2  A    between atoms: C_2  and  C_3 
REMARK    3  A    between atoms: C_5  and  O_6 
ROOT
HETATM    1  C   UNK N   1      34.779  16.555   9.396  0.00  0.00     0.097 A 
HETATM    2  C   UNK N   1      34.380  16.386   8.086  0.00  0.00     0.094 A 
HETATM    3  C   UNK N   1      34.470  17.662   7.576  0.00  0.00     0.162 A 
HETATM    4  N   UNK N   1      34.893  18.518   8.521  0.00  0.00    -0.239 N 
ATOM      5  HN  UNK N   1      35.045  19.520   8.411  1.00  0.00     0.197 HD
HETATM    6  O   UNK N   1      35.069  17.821   9.603  0.00  0.00    -0.238 OA
ENDROOT
BRANCH   1   7
HETATM    7  C   UNK N   1      34.870  15.476  10.420  0.00  0.00     0.178 C 
BRANCH   7   8
HETATM    8  N   UNK N   1      33.540  15.061  10.829  0.00  0.00    -0.424 N 
HETATM    9  H   UNK N   1      33.427  14.316  11.516  0.00  0.00     0.150 HD
HETATM   10  H   UNK N   1      32.718  15.514  10.429  0.00  0.00     0.150 HD
ENDBRANCH   7   8
ENDBRANCH   1   7
BRANCH   3  11
HETATM   11  O   UNK N   1      34.181  18.021   6.315  0.00  0.00    -0.345 OA
HETATM   12  H   UNK N   1      33.619  18.753   6.153  0.00  0.00     0.219 HD
ENDBRANCH   3  11
TORSDOF 3
ENDMDL
MODEL 5
REMARK VINA RESULT:      -3.9      9.508     10.693
REMARK  3 active torsions:
REMARK  status: ('A' for Active; 'I' for Inactive)
REMARK    1  A    between atoms: N_1  and  C_2 
REMARK    2  A    between atoms: C_2  and  C_3 
REMARK    3  A    between atoms: C_5  and  O_6 
ROOT
HETATM    1  C   UNK N   1      22.272  12.678  10.656  0.00  0.00     0.097 A 
HETATM    2  C   UNK N   1      20.899  12.719  10.777  0.00  0.00     0.094 A 
HETATM    3  C   UNK N   1      20.555  13.762   9.946  0.00  0.00     0.162 A 
HETATM    4  N   UNK N   1      21.650  14.294   9.379  0.00  0.00    -0.239 N 
ATOM      5  HN  UNK N   1      21.679  15.075   8.725  1.00  0.00     0.197 HD
HETATM    6  O   UNK N   1      22.666  13.619   9.827  0.00  0.00    -0.238 OA
ENDROOT
BRANCH   1   7
HETATM    7  C   UNK N   1      23.174  11.718  11.354  0.00  0.00     0.178 C 
BRANCH   7   8
HETATM    8  N   UNK N   1      22.754  11.548  12.733  0.00  0.00    -0.424 N 
HETATM    9  H   UNK N   1      22.256  12.299  13.211  0.00  0.00     0.150 HD
HETATM   10  H   UNK N   1      22.955  10.677  13.224  0.00  0.00     0.150 HD
ENDBRANCH   7   8
ENDBRANCH   1   7
BRANCH   3  11
HETATM   11  O   UNK N   1      19.306  14.202   9.722  0.00  0.00    -0.345 OA
HETATM   12  H   UNK N   1      19.024  15.018  10.085  0.00  0.00     0.219 HD
ENDBRANCH   3  11
TORSDOF 3
ENDMDL
MODEL 6
REMARK VINA RESULT:      -3.8     17.373     18.000
REMARK  3 active torsions:
REMARK  status: ('A' for Active; 'I' for Inactive)
REMARK    1  A    between atoms: N_1  and  C_2 
REMARK    2  A    between atoms: C_2  and  C_3 
REMARK    3  A    between atoms: C_5  and  O_6 
ROOT
HETATM    1  C   UNK N   1      35.210  14.654  11.961  0.00  0.00     0.097 A 
HETATM    2  C   UNK N   1      36.019  15.708  11.591  0.00  0.00     0.094 A 
HETATM    3  C   UNK N   1      35.200  16.441  10.762  0.00  0.00     0.162 A 
HETATM    4  N   UNK N   1      33.995  15.857  10.655  0.00  0.00    -0.239 N 
ATOM      5  HN  UNK N   1      33.203  16.191  10.105  1.00  0.00     0.197 HD
HETATM    6  O   UNK N   1      34.034  14.785  11.388  0.00  0.00    -0.238 OA
ENDROOT
BRANCH   1   7
HETATM    7  C   UNK N   1      35.601  13.538  12.868  0.00  0.00     0.178 C 
BRANCH   7   8
HETATM    8  N   UNK N   1      36.927  13.776  13.411  0.00  0.00    -0.424 N 
HETATM    9  H   UNK N   1      37.177  13.404  14.327  0.00  0.00     0.150 HD
HETATM   10  H   UNK N   1      37.608  14.315  12.877  0.00  0.00     0.150 HD
ENDBRANCH   7   8
ENDBRANCH   1   7
BRANCH   3  11
HETATM   11  O   UNK N   1      35.538  17.581  10.140  0.00  0.00    -0.345 OA
HETATM   12  H   UNK N   1      35.000  18.343  10.231  0.00  0.00     0.219 HD
ENDBRANCH   3  11
TORSDOF 3
ENDMDL
MODEL 7
REMARK VINA RESULT:      -3.7     22.294     22.687
REMARK  3 active torsions:
REMARK  status: ('A' for Active; 'I' for Inactive)
REMARK    1  A    between atoms: N_1  and  C_2 
REMARK    2  A    between atoms: C_2  and  C_3 
REMARK    3  A    between atoms: C_5  and  O_6 
ROOT
HETATM    1  C   UNK N   1      43.376  22.321   3.384  0.00  0.00     0.097 A 
HETATM    2  C   UNK N   1      42.353  21.610   2.792  0.00  0.00     0.094 A 
HETATM    3  C   UNK N   1      41.659  22.588   2.115  0.00  0.00     0.162 A 
HETATM    4  N   UNK N   1      42.236  23.787   2.299  0.00  0.00    -0.239 N 
ATOM      5  HN  UNK N   1      41.925  24.678   1.911  1.00  0.00     0.197 HD
HETATM    6  O   UNK N   1      43.266  23.592   3.067  0.00  0.00    -0.238 OA
ENDROOT
BRANCH   1   7
HETATM    7  C   UNK N   1      44.443  21.743   4.250  0.00  0.00     0.178 C 
BRANCH   7   8
HETATM    8  N   UNK N   1      45.683  22.476   4.073  0.00  0.00    -0.424 N 
HETATM    9  H   UNK N   1      46.443  22.362   4.744  0.00  0.00     0.150 HD
HETATM   10  H   UNK N   1      45.795  23.106   3.279  0.00  0.00     0.150 HD
ENDBRANCH   7   8
ENDBRANCH   1   7
BRANCH   3  11
HETATM   11  O   UNK N   1      40.559  22.392   1.371  0.00  0.00    -0.345 OA
HETATM   12  H   UNK N   1      40.551  21.725   0.713  0.00  0.00     0.219 HD
ENDBRANCH   3  11
TORSDOF 3
ENDMDL
MODEL 8
REMARK VINA RESULT:      -3.7     11.092     12.197
REMARK  3 active torsions:
REMARK  status: ('A' for Active; 'I' for Inactive)
REMARK    1  A    between atoms: N_1  and  C_2 
REMARK    2  A    between atoms: C_2  and  C_3 
REMARK    3  A    between atoms: C_5  and  O_6 
ROOT
HETATM    1  C   UNK N   1      23.313  11.868  10.001  0.00  0.00     0.097 A 
HETATM    2  C   UNK N   1      24.200  12.100  11.032  0.00  0.00     0.094 A 
HETATM    3  C   UNK N   1      23.392  12.039  12.145  0.00  0.00     0.162 A 
HETATM    4  N   UNK N   1      22.121  11.789  11.790  0.00  0.00    -0.239 N 
ATOM      5  HN  UNK N   1      21.321  11.694  12.416  1.00  0.00     0.197 HD
HETATM    6  O   UNK N   1      22.107  11.692  10.494  0.00  0.00    -0.238 OA
ENDROOT
BRANCH   1   7
HETATM    7  C   UNK N   1      23.661  11.824   8.553  0.00  0.00     0.178 C 
BRANCH   7   8
HETATM    8  N   UNK N   1      23.695  10.449   8.088  0.00  0.00    -0.424 N 
HETATM    9  H   UNK N   1      22.904  10.066   7.569  0.00  0.00     0.150 HD
HETATM   10  H   UNK N   1      24.508   9.865   8.279  0.00  0.00     0.150 HD
ENDBRANCH   7   8
ENDBRANCH   1   7
BRANCH   3  11
HETATM   11  O   UNK N   1      23.797  12.203  13.414  0.00  0.00    -0.345 OA
HETATM   12  H   UNK N   1      24.552  12.727  13.600  0.00  0.00     0.219 HD
ENDBRANCH   3  11
TORSDOF 3
ENDMDL
MODEL 9
REMARK VINA RESULT:      -3.7     21.817     22.232
REMARK  3 active torsions:
REMARK  status: ('A' for Active; 'I' for Inactive)
REMARK    1  A    between atoms: N_1  and  C_2 
REMARK    2  A    between atoms: C_2  and  C_3 
REMARK    3  A    between atoms: C_5  and  O_6 
ROOT
HETATM    1  C   UNK N   1      42.104  21.924   2.648  0.00  0.00     0.097 A 
HETATM    2  C   UNK N   1      42.943  21.370   3.592  0.00  0.00     0.094 A 
HETATM    3  C   UNK N   1      43.684  22.454   4.009  0.00  0.00     0.162 A 
HETATM    4  N   UNK N   1      43.305  23.563   3.354  0.00  0.00    -0.239 N 
ATOM      5  HN  UNK N   1      43.689  24.500   3.471  1.00  0.00     0.197 HD
HETATM    6  O   UNK N   1      42.353  23.210   2.543  0.00  0.00    -0.238 OA
ENDROOT
BRANCH   1   7
HETATM    7  C   UNK N   1      41.073  21.184   1.866  0.00  0.00     0.178 C 
BRANCH   7   8
HETATM    8  N   UNK N   1      39.902  20.937   2.687  0.00  0.00    -0.424 N 
HETATM    9  H   UNK N   1      39.128  21.601   2.684  0.00  0.00     0.150 HD
HETATM   10  H   UNK N   1      39.852  20.101   3.268  0.00  0.00     0.150 HD
ENDBRANCH   7   8
ENDBRANCH   1   7
BRANCH   3  11
HETATM   11  O   UNK N   1      44.654  22.425   4.937  0.00  0.00    -0.345 OA
HETATM   12  H   UNK N   1      44.433  22.475   5.847  0.00  0.00     0.219 HD
ENDBRANCH   3  11
TORSDOF 3
ENDMDL
