MODEL 1
REMARK VINA RESULT:      -7.3      0.000      0.000
REMARK  3 active torsions:
REMARK  status: ('A' for Active; 'I' for Inactive)
REMARK    1  A    between atoms: C_12  and  C_8 
REMARK    2  A    between atoms: N_23  and  C_8 
REMARK    3  A    between atoms: N_24  and  C_13 
REMARK       I    between atoms: N_23  and  C_14 
ROOT
HETATM    1  C   UNK N   1      37.067  12.487  10.380  0.00  0.00     0.133 A 
HETATM    2  C   UNK N   1      35.799  12.926   9.998  0.00  0.00     0.094 A 
HETATM    3  C   UNK N   1      35.021  13.620  10.940  0.00  0.00     0.145 A 
HETATM    4  C   UNK N   1      36.755  13.404  12.537  0.00  0.00     0.680 A 
HETATM    5 Cl   UNK N   1      35.221  12.593   8.372  0.00  0.00    -0.079 Cl
HETATM    6  N   UNK N   1      37.527  12.744  11.634  0.00  0.00    -0.200 N 
ATOM      7  HN  UNK N   1      38.462  12.437  11.899  1.00  0.00     0.183 HD
HETATM    8  N   UNK N   1      37.267  13.693  13.827  0.00  0.00    -0.215 N 
HETATM    9  N   UNK N   1      35.514  13.830  12.183  0.00  0.00    -0.175 N 
ATOM     10  HN  UNK N   1      34.941  14.319  12.871  1.00  0.00     0.186 HD
HETATM   11  H   UNK N   1      38.220  13.525  14.008  0.00  0.00     0.178 HD
ENDROOT
BRANCH   8  12
HETATM   12  C   UNK N   1      36.438  14.229  14.891  0.00  0.00     0.163 C 
HETATM   13  C   UNK N   1      37.180  15.355  15.585  0.00  0.00     0.041 C 
BRANCH  12  14
HETATM   14  C   UNK N   1      36.097  13.158  15.884  0.00  0.00     0.104 A 
HETATM   15  N   UNK N   1      35.420  13.485  17.019  0.00  0.00    -0.351 N 
HETATM   16  C   UNK N   1      35.095  12.538  17.936  0.00  0.00     0.133 A 
ATOM     17  HN  UNK N   1      35.153  14.456  17.184  1.00  0.00     0.166 HD
HETATM   18  C   UNK N   1      35.463  11.212  17.721  0.00  0.00     0.147 A 
HETATM   19  C   UNK N   1      36.156  10.889  16.558  0.00  0.00     0.133 A 
HETATM   20  F   UNK N   1      35.153  10.254  18.626  0.00  0.00    -0.203 F 
HETATM   21  N   UNK N   1      36.457  11.862  15.660  0.00  0.00    -0.351 N 
ATOM     22  HN  UNK N   1      36.959  11.621  14.806  1.00  0.00     0.166 HD
ENDBRANCH  12  14
ENDBRANCH   8  12
BRANCH   3  23
HETATM   23  N   UNK N   1      33.749  14.156  10.613  0.00  0.00    -0.326 N 
HETATM   24  C   UNK N   1      33.617  15.259   9.961  0.00  0.00     0.123 A 
HETATM   25  C   UNK N   1      34.644  16.076   9.516  0.00  0.00     0.075 A 
HETATM   26  N   UNK N   1      32.425  15.799   9.661  0.00  0.00    -0.285 N 
HETATM   27  C   UNK N   1      33.973  17.125   8.929  0.00  0.00     0.025 A 
HETATM   28  C   UNK N   1      34.610  18.299   8.277  0.00  0.00     0.070 C 
HETATM   29  N   UNK N   1      32.643  16.941   9.027  0.00  0.00    -0.304 N 
HETATM   30  H   UNK N   1      31.950  17.551   8.685  0.00  0.00     0.186 HD
HETATM   31  H   UNK N   1      31.544  15.414   9.875  0.00  0.00     0.188 HD
ATOM     32  HN  UNK N   1      32.912  13.651  10.904  1.00  0.00     0.169 HD
ENDBRANCH   3  23
TORSDOF 3
ENDMDL
MODEL 2
REMARK VINA RESULT:      -7.1      1.488      1.714
REMARK  3 active torsions:
REMARK  status: ('A' for Active; 'I' for Inactive)
REMARK    1  A    between atoms: C_12  and  C_8 
REMARK    2  A    between atoms: N_23  and  C_8 
REMARK    3  A    between atoms: N_24  and  C_13 
REMARK       I    between atoms: N_23  and  C_14 
ROOT
HETATM    1  C   UNK N   1      37.845  12.491  10.864  0.00  0.00     0.133 A 
HETATM    2  C   UNK N   1      37.381  13.698  10.341  0.00  0.00     0.094 A 
HETATM    3  C   UNK N   1      36.798  14.625  11.221  0.00  0.00     0.145 A 
HETATM    4  C   UNK N   1      37.158  13.142  13.030  0.00  0.00     0.680 A 
HETATM    5 Cl   UNK N   1      37.533  14.011   8.619  0.00  0.00    -0.079 Cl
HETATM    6  N   UNK N   1      37.738  12.239  12.196  0.00  0.00    -0.200 N 
ATOM      7  HN  UNK N   1      38.098  11.363  12.574  1.00  0.00     0.183 HD
HETATM    8  N   UNK N   1      37.089  12.877  14.421  0.00  0.00    -0.215 N 
HETATM    9  N   UNK N   1      36.692  14.319  12.536  0.00  0.00    -0.175 N 
ATOM     10  HN  UNK N   1      36.253  14.986  13.170  1.00  0.00     0.186 HD
HETATM   11  H   UNK N   1      37.576  12.101  14.781  0.00  0.00     0.178 HD
ENDROOT
BRANCH   8  12
HETATM   12  C   UNK N   1      36.327  13.708  15.335  0.00  0.00     0.163 C 
HETATM   13  C   UNK N   1      37.168  14.901  15.747  0.00  0.00     0.041 C 
BRANCH  12  14
HETATM   14  C   UNK N   1      35.927  12.926  16.551  0.00  0.00     0.104 A 
HETATM   15  N   UNK N   1      35.443  13.581  17.641  0.00  0.00    -0.351 N 
HETATM   16  C   UNK N   1      35.070  12.900  18.756  0.00  0.00     0.133 A 
ATOM     17  HN  UNK N   1      35.359  14.597  17.622  1.00  0.00     0.166 HD
HETATM   18  C   UNK N   1      35.188  11.513  18.792  0.00  0.00     0.147 A 
HETATM   19  C   UNK N   1      35.686  10.854  17.671  0.00  0.00     0.133 A 
HETATM   20  F   UNK N   1      34.827  10.818  19.895  0.00  0.00    -0.203 F 
HETATM   21  N   UNK N   1      36.041  11.568  16.571  0.00  0.00    -0.351 N 
ATOM     22  HN  UNK N   1      36.399  11.081  15.750  1.00  0.00     0.166 HD
ENDBRANCH  12  14
ENDBRANCH   8  12
BRANCH   3  23
HETATM   23  N   UNK N   1      36.360  15.901  10.783  0.00  0.00    -0.326 N 
HETATM   24  C   UNK N   1      35.201  16.082  10.249  0.00  0.00     0.123 A 
HETATM   25  C   UNK N   1      34.251  15.103  10.004  0.00  0.00     0.075 A 
HETATM   26  N   UNK N   1      34.772  17.274   9.804  0.00  0.00    -0.285 N 
HETATM   27  C   UNK N   1      33.235  15.804   9.394  0.00  0.00     0.025 A 
HETATM   28  C   UNK N   1      31.951  15.225   8.920  0.00  0.00     0.070 C 
HETATM   29  N   UNK N   1      33.567  17.105   9.283  0.00  0.00    -0.304 N 
HETATM   30  H   UNK N   1      33.009  17.810   8.882  0.00  0.00     0.186 HD
HETATM   31  H   UNK N   1      35.266  18.124   9.857  0.00  0.00     0.188 HD
ATOM     32  HN  UNK N   1      36.982  16.701  10.894  1.00  0.00     0.169 HD
ENDBRANCH   3  23
TORSDOF 3
ENDMDL
MODEL 3
REMARK VINA RESULT:      -6.9      6.550     10.948
REMARK  3 active torsions:
REMARK  status: ('A' for Active; 'I' for Inactive)
REMARK    1  A    between atoms: C_12  and  C_8 
REMARK    2  A    between atoms: N_23  and  C_8 
REMARK    3  A    between atoms: N_24  and  C_13 
REMARK       I    between atoms: N_23  and  C_14 
ROOT
HETATM    1  C   UNK N   1      32.239  15.229   5.130  0.00  0.00     0.133 A 
HETATM    2  C   UNK N   1      33.200  15.935   5.854  0.00  0.00     0.094 A 
HETATM    3  C   UNK N   1      32.765  16.928   6.746  0.00  0.00     0.145 A 
HETATM    4  C   UNK N   1      30.517  16.475   6.162  0.00  0.00     0.680 A 
HETATM    5 Cl   UNK N   1      34.903  15.568   5.622  0.00  0.00    -0.079 Cl
HETATM    6  N   UNK N   1      30.919  15.501   5.305  0.00  0.00    -0.200 N 
ATOM      7  HN  UNK N   1      30.222  14.966   4.786  1.00  0.00     0.183 HD
HETATM    8  N   UNK N   1      29.134  16.719   6.358  0.00  0.00    -0.215 N 
HETATM    9  N   UNK N   1      31.440  17.179   6.868  0.00  0.00    -0.175 N 
ATOM     10  HN  UNK N   1      31.128  17.913   7.504  1.00  0.00     0.186 HD
HETATM   11  H   UNK N   1      28.482  16.093   5.967  0.00  0.00     0.178 HD
ENDROOT
BRANCH   8  12
HETATM   12  C   UNK N   1      28.643  17.856   7.113  0.00  0.00     0.163 C 
HETATM   13  C   UNK N   1      27.992  17.365   8.392  0.00  0.00     0.041 C 
BRANCH  12  14
HETATM   14  C   UNK N   1      27.649  18.637   6.306  0.00  0.00     0.104 A 
HETATM   15  N   UNK N   1      27.235  18.156   5.102  0.00  0.00    -0.351 N 
HETATM   16  C   UNK N   1      26.334  18.840   4.350  0.00  0.00     0.133 A 
ATOM     17  HN  UNK N   1      27.606  17.270   4.759  1.00  0.00     0.166 HD
HETATM   18  C   UNK N   1      25.827  20.053   4.809  0.00  0.00     0.147 A 
HETATM   19  C   UNK N   1      26.259  20.535   6.041  0.00  0.00     0.133 A 
HETATM   20  F   UNK N   1      24.933  20.751   4.071  0.00  0.00    -0.203 F 
HETATM   21  N   UNK N   1      27.156  19.821   6.769  0.00  0.00    -0.351 N 
ATOM     22  HN  UNK N   1      27.465  20.174   7.675  1.00  0.00     0.166 HD
ENDBRANCH  12  14
ENDBRANCH   8  12
BRANCH   3  23
HETATM   23  N   UNK N   1      33.671  17.648   7.567  0.00  0.00    -0.326 N 
HETATM   24  C   UNK N   1      34.127  17.166   8.672  0.00  0.00     0.123 A 
HETATM   25  C   UNK N   1      33.802  15.937   9.225  0.00  0.00     0.075 A 
HETATM   26  N   UNK N   1      34.966  17.836   9.478  0.00  0.00    -0.285 N 
HETATM   27  C   UNK N   1      34.514  15.930  10.404  0.00  0.00     0.025 A 
HETATM   28  C   UNK N   1      34.528  14.824  11.396  0.00  0.00     0.070 C 
HETATM   29  N   UNK N   1      35.205  17.078  10.538  0.00  0.00    -0.304 N 
HETATM   30  H   UNK N   1      35.788  17.315  11.294  0.00  0.00     0.186 HD
HETATM   31  H   UNK N   1      35.337  18.732   9.311  0.00  0.00     0.188 HD
ATOM     32  HN  UNK N   1      33.972  18.577   7.273  1.00  0.00     0.169 HD
ENDBRANCH   3  23
TORSDOF 3
ENDMDL
MODEL 4
REMARK VINA RESULT:      -6.8      8.318     11.779
REMARK  3 active torsions:
REMARK  status: ('A' for Active; 'I' for Inactive)
REMARK    1  A    between atoms: C_12  and  C_8 
REMARK    2  A    between atoms: N_23  and  C_8 
REMARK    3  A    between atoms: N_24  and  C_13 
REMARK       I    between atoms: N_23  and  C_14 
ROOT
HETATM    1  C   UNK N   1      26.935  21.001   5.415  0.00  0.00     0.133 A 
HETATM    2  C   UNK N   1      26.720  20.059   4.408  0.00  0.00     0.094 A 
HETATM    3  C   UNK N   1      27.091  18.727   4.652  0.00  0.00     0.145 A 
HETATM    4  C   UNK N   1      27.847  19.328   6.813  0.00  0.00     0.680 A 
HETATM    5 Cl   UNK N   1      26.007  20.567   2.884  0.00  0.00    -0.079 Cl
HETATM    6  N   UNK N   1      27.481  20.619   6.600  0.00  0.00    -0.200 N 
ATOM      7  HN  UNK N   1      27.616  21.310   7.337  1.00  0.00     0.183 HD
HETATM    8  N   UNK N   1      28.381  18.943   8.069  0.00  0.00    -0.215 N 
HETATM    9  N   UNK N   1      27.653  18.400   5.840  0.00  0.00    -0.175 N 
ATOM     10  HN  UNK N   1      27.937  17.435   6.008  1.00  0.00     0.186 HD
HETATM   11  H   UNK N   1      28.359  19.588   8.812  0.00  0.00     0.178 HD
ENDROOT
BRANCH   8  12
HETATM   12  C   UNK N   1      28.956  17.631   8.300  0.00  0.00     0.163 C 
HETATM   13  C   UNK N   1      28.832  17.281   9.770  0.00  0.00     0.041 C 
BRANCH  12  14
HETATM   14  C   UNK N   1      30.401  17.610   7.895  0.00  0.00     0.104 A 
HETATM   15  N   UNK N   1      31.351  18.032   8.773  0.00  0.00    -0.351 N 
HETATM   16  C   UNK N   1      32.667  18.022   8.436  0.00  0.00     0.133 A 
ATOM     17  HN  UNK N   1      31.072  18.361   9.698  1.00  0.00     0.166 HD
HETATM   18  C   UNK N   1      33.054  17.580   7.173  0.00  0.00     0.147 A 
HETATM   19  C   UNK N   1      32.073  17.152   6.283  0.00  0.00     0.133 A 
HETATM   20  F   UNK N   1      34.360  17.568   6.817  0.00  0.00    -0.203 F 
HETATM   21  N   UNK N   1      30.768  17.170   6.658  0.00  0.00    -0.351 N 
ATOM     22  HN  UNK N   1      30.053  16.849   6.006  1.00  0.00     0.166 HD
ENDBRANCH  12  14
ENDBRANCH   8  12
BRANCH   3  23
HETATM   23  N   UNK N   1      26.848  17.696   3.709  0.00  0.00    -0.326 N 
HETATM   24  C   UNK N   1      25.727  17.063   3.657  0.00  0.00     0.123 A 
HETATM   25  C   UNK N   1      24.638  17.258   4.491  0.00  0.00     0.075 A 
HETATM   26  N   UNK N   1      25.481  16.068   2.790  0.00  0.00    -0.285 N 
HETATM   27  C   UNK N   1      23.736  16.316   4.049  0.00  0.00     0.025 A 
HETATM   28  C   UNK N   1      22.376  16.096   4.606  0.00  0.00     0.070 C 
HETATM   29  N   UNK N   1      24.261  15.612   3.028  0.00  0.00    -0.304 N 
HETATM   30  H   UNK N   1      23.814  14.882   2.542  0.00  0.00     0.186 HD
HETATM   31  H   UNK N   1      26.099  15.736   2.099  0.00  0.00     0.188 HD
ATOM     32  HN  UNK N   1      27.585  17.448   3.049  1.00  0.00     0.169 HD
ENDBRANCH   3  23
TORSDOF 3
ENDMDL
MODEL 5
REMARK VINA RESULT:      -6.8      4.988      8.314
REMARK  3 active torsions:
REMARK  status: ('A' for Active; 'I' for Inactive)
REMARK    1  A    between atoms: C_12  and  C_8 
REMARK    2  A    between atoms: N_23  and  C_8 
REMARK    3  A    between atoms: N_24  and  C_13 
REMARK       I    between atoms: N_23  and  C_14 
ROOT
HETATM    1  C   UNK N   1      35.507  16.375  11.442  0.00  0.00     0.133 A 
HETATM    2  C   UNK N   1      35.157  15.027  11.521  0.00  0.00     0.094 A 
HETATM    3  C   UNK N   1      34.344  14.489  10.510  0.00  0.00     0.145 A 
HETATM    4  C   UNK N   1      34.275  16.598   9.437  0.00  0.00     0.680 A 
HETATM    5 Cl   UNK N   1      35.731  14.061  12.872  0.00  0.00    -0.079 Cl
HETATM    6  N   UNK N   1      35.073  17.132  10.399  0.00  0.00    -0.200 N 
ATOM      7  HN  UNK N   1      35.350  18.111  10.338  1.00  0.00     0.183 HD
HETATM    8  N   UNK N   1      33.862  17.394   8.338  0.00  0.00    -0.215 N 
HETATM    9  N   UNK N   1      33.916  15.289   9.504  0.00  0.00    -0.175 N 
ATOM     10  HN  UNK N   1      33.312  14.900   8.780  1.00  0.00     0.186 HD
HETATM   11  H   UNK N   1      34.264  18.284   8.221  0.00  0.00     0.178 HD
ENDROOT
BRANCH   8  12
HETATM   12  C   UNK N   1      32.871  16.943   7.381  0.00  0.00     0.163 C 
HETATM   13  C   UNK N   1      33.255  17.427   5.995  0.00  0.00     0.041 C 
BRANCH  12  14
HETATM   14  C   UNK N   1      31.512  17.468   7.741  0.00  0.00     0.104 A 
HETATM   15  N   UNK N   1      30.467  17.267   6.891  0.00  0.00    -0.351 N 
HETATM   16  C   UNK N   1      29.225  17.728   7.192  0.00  0.00     0.133 A 
ATOM     17  HN  UNK N   1      30.619  16.764   6.017  1.00  0.00     0.166 HD
HETATM   18  C   UNK N   1      29.013  18.421   8.380  0.00  0.00     0.147 A 
HETATM   19  C   UNK N   1      30.089  18.621   9.240  0.00  0.00     0.133 A 
HETATM   20  F   UNK N   1      27.784  18.892   8.694  0.00  0.00    -0.203 F 
HETATM   21  N   UNK N   1      31.315  18.140   8.911  0.00  0.00    -0.351 N 
ATOM     22  HN  UNK N   1      32.100  18.282   9.546  1.00  0.00     0.166 HD
ENDBRANCH  12  14
ENDBRANCH   8  12
BRANCH   3  23
HETATM   23  N   UNK N   1      33.994  13.115  10.480  0.00  0.00    -0.326 N 
HETATM   24  C   UNK N   1      34.718  12.236   9.877  0.00  0.00     0.123 A 
HETATM   25  C   UNK N   1      35.885  12.482   9.170  0.00  0.00     0.075 A 
HETATM   26  N   UNK N   1      34.398  10.934   9.813  0.00  0.00    -0.285 N 
HETATM   27  C   UNK N   1      36.229  11.235   8.697  0.00  0.00     0.025 A 
HETATM   28  C   UNK N   1      37.423  10.927   7.868  0.00  0.00     0.070 C 
HETATM   29  N   UNK N   1      35.323  10.320   9.093  0.00  0.00    -0.304 N 
HETATM   30  H   UNK N   1      35.346   9.359   8.883  0.00  0.00     0.186 HD
HETATM   31  H   UNK N   1      33.612  10.510  10.230  0.00  0.00     0.188 HD
ATOM     32  HN  UNK N   1      33.143  12.812  10.952  1.00  0.00     0.169 HD
ENDBRANCH   3  23
TORSDOF 3
ENDMDL
MODEL 6
REMARK VINA RESULT:      -6.8     12.733     15.927
REMARK  3 active torsions:
REMARK  status: ('A' for Active; 'I' for Inactive)
REMARK    1  A    between atoms: C_12  and  C_8 
REMARK    2  A    between atoms: N_23  and  C_8 
REMARK    3  A    between atoms: N_24  and  C_13 
REMARK       I    between atoms: N_23  and  C_14 
ROOT
HETATM    1  C   UNK N   1      21.030  15.748   6.754  0.00  0.00     0.133 A 
HETATM    2  C   UNK N   1      20.470  15.834   5.480  0.00  0.00     0.094 A 
HETATM    3  C   UNK N   1      21.327  16.055   4.388  0.00  0.00     0.145 A 
HETATM    4  C   UNK N   1      23.187  16.093   5.851  0.00  0.00     0.680 A 
HETATM    5 Cl   UNK N   1      18.731  15.673   5.285  0.00  0.00    -0.079 Cl
HETATM    6  N   UNK N   1      22.375  15.865   6.916  0.00  0.00    -0.200 N 
ATOM      7  HN  UNK N   1      22.779  15.781   7.849  1.00  0.00     0.183 HD
HETATM    8  N   UNK N   1      24.591  16.176   6.036  0.00  0.00    -0.215 N 
HETATM    9  N   UNK N   1      22.657  16.189   4.604  0.00  0.00    -0.175 N 
ATOM     10  HN  UNK N   1      23.275  16.366   3.812  1.00  0.00     0.186 HD
HETATM   11  H   UNK N   1      24.968  15.940   6.914  0.00  0.00     0.178 HD
ENDROOT
BRANCH   8  12
HETATM   12  C   UNK N   1      25.491  16.595   4.979  0.00  0.00     0.163 C 
HETATM   13  C   UNK N   1      26.691  15.668   4.946  0.00  0.00     0.041 C 
BRANCH  12  14
HETATM   14  C   UNK N   1      25.948  18.006   5.203  0.00  0.00     0.104 A 
HETATM   15  N   UNK N   1      26.948  18.256   6.092  0.00  0.00    -0.351 N 
HETATM   16  C   UNK N   1      27.385  19.523   6.314  0.00  0.00     0.133 A 
ATOM     17  HN  UNK N   1      27.376  17.481   6.599  1.00  0.00     0.166 HD
HETATM   18  C   UNK N   1      26.800  20.586   5.630  0.00  0.00     0.147 A 
HETATM   19  C   UNK N   1      25.777  20.318   4.725  0.00  0.00     0.133 A 
HETATM   20  F   UNK N   1      27.218  21.856   5.842  0.00  0.00    -0.203 F 
HETATM   21  N   UNK N   1      25.372  19.038   4.523  0.00  0.00    -0.351 N 
ATOM     22  HN  UNK N   1      24.627  18.845   3.854  1.00  0.00     0.166 HD
ENDBRANCH  12  14
ENDBRANCH   8  12
BRANCH   3  23
HETATM   23  N   UNK N   1      20.847  16.091   3.054  0.00  0.00    -0.326 N 
HETATM   24  C   UNK N   1      20.715  17.195   2.403  0.00  0.00     0.123 A 
HETATM   25  C   UNK N   1      20.981  18.467   2.885  0.00  0.00     0.075 A 
HETATM   26  N   UNK N   1      20.241  17.260   1.148  0.00  0.00    -0.285 N 
HETATM   27  C   UNK N   1      20.639  19.278   1.825  0.00  0.00     0.025 A 
HETATM   28  C   UNK N   1      20.738  20.761   1.807  0.00  0.00     0.070 C 
HETATM   29  N   UNK N   1      20.196  18.534   0.794  0.00  0.00    -0.304 N 
HETATM   30  H   UNK N   1      19.891  18.879  -0.076  0.00  0.00     0.186 HD
HETATM   31  H   UNK N   1      19.973  16.493   0.591  0.00  0.00     0.188 HD
ATOM     32  HN  UNK N   1      20.599  15.215   2.595  1.00  0.00     0.169 HD
ENDBRANCH   3  23
TORSDOF 3
ENDMDL
MODEL 7
REMARK VINA RESULT:      -6.8      5.474      8.324
REMARK  3 active torsions:
REMARK  status: ('A' for Active; 'I' for Inactive)
REMARK    1  A    between atoms: C_12  and  C_8 
REMARK    2  A    between atoms: N_23  and  C_8 
REMARK    3  A    between atoms: N_24  and  C_13 
REMARK       I    between atoms: N_23  and  C_14 
ROOT
HETATM    1  C   UNK N   1      31.449  15.921   3.659  0.00  0.00     0.133 A 
HETATM    2  C   UNK N   1      30.063  15.987   3.803  0.00  0.00     0.094 A 
HETATM    3  C   UNK N   1      29.536  16.229   5.082  0.00  0.00     0.145 A 
HETATM    4  C   UNK N   1      31.727  16.318   5.973  0.00  0.00     0.680 A 
HETATM    5 Cl   UNK N   1      29.034  15.762   2.396  0.00  0.00    -0.079 Cl
HETATM    6  N   UNK N   1      32.255  16.099   4.740  0.00  0.00    -0.200 N 
ATOM      7  HN  UNK N   1      33.267  16.069   4.622  1.00  0.00     0.183 HD
HETATM    8  N   UNK N   1      32.585  16.537   7.080  0.00  0.00    -0.215 N 
HETATM    9  N   UNK N   1      30.379  16.376   6.132  0.00  0.00    -0.175 N 
ATOM     10  HN  UNK N   1      29.994  16.534   7.063  1.00  0.00     0.186 HD
HETATM   11  H   UNK N   1      33.549  16.656   6.917  0.00  0.00     0.178 HD
ENDROOT
BRANCH   8  12
HETATM   12  C   UNK N   1      32.095  16.595   8.444  0.00  0.00     0.163 C 
HETATM   13  C   UNK N   1      31.557  17.985   8.726  0.00  0.00     0.041 C 
BRANCH  12  14
HETATM   14  C   UNK N   1      33.193  16.271   9.414  0.00  0.00     0.104 A 
HETATM   15  N   UNK N   1      34.238  17.132   9.558  0.00  0.00    -0.351 N 
HETATM   16  C   UNK N   1      35.245  16.867  10.430  0.00  0.00     0.133 A 
ATOM     17  HN  UNK N   1      34.265  17.988   9.004  1.00  0.00     0.166 HD
HETATM   18  C   UNK N   1      35.218  15.696  11.184  0.00  0.00     0.147 A 
HETATM   19  C   UNK N   1      34.146  14.823  11.027  0.00  0.00     0.133 A 
HETATM   20  F   UNK N   1      36.215  15.413  12.054  0.00  0.00    -0.203 F 
HETATM   21  N   UNK N   1      33.152  15.125  10.151  0.00  0.00    -0.351 N 
ATOM     22  HN  UNK N   1      32.365  14.486  10.044  1.00  0.00     0.166 HD
ENDBRANCH  12  14
ENDBRANCH   8  12
BRANCH   3  23
HETATM   23  N   UNK N   1      28.143  16.375   5.305  0.00  0.00    -0.326 N 
HETATM   24  C   UNK N   1      27.588  17.530   5.441  0.00  0.00     0.123 A 
HETATM   25  C   UNK N   1      28.233  18.756   5.420  0.00  0.00     0.075 A 
HETATM   26  N   UNK N   1      26.276  17.695   5.676  0.00  0.00    -0.285 N 
HETATM   27  C   UNK N   1      27.209  19.649   5.650  0.00  0.00     0.025 A 
HETATM   28  C   UNK N   1      27.354  21.126   5.724  0.00  0.00     0.070 C 
HETATM   29  N   UNK N   1      26.044  18.992   5.802  0.00  0.00    -0.304 N 
HETATM   30  H   UNK N   1      25.168  19.405   5.977  0.00  0.00     0.186 HD
HETATM   31  H   UNK N   1      25.605  16.977   5.743  0.00  0.00     0.188 HD
ATOM     32  HN  UNK N   1      27.561  15.539   5.358  1.00  0.00     0.169 HD
ENDBRANCH   3  23
TORSDOF 3
ENDMDL
MODEL 8
REMARK VINA RESULT:      -6.7     12.609     15.939
REMARK  3 active torsions:
REMARK  status: ('A' for Active; 'I' for Inactive)
REMARK    1  A    between atoms: C_12  and  C_8 
REMARK    2  A    between atoms: N_23  and  C_8 
REMARK    3  A    between atoms: N_24  and  C_13 
REMARK       I    between atoms: N_23  and  C_14 
ROOT
HETATM    1  C   UNK N   1      22.013  15.749   6.856  0.00  0.00     0.133 A 
HETATM    2  C   UNK N   1      21.087  16.455   6.088  0.00  0.00     0.094 A 
HETATM    3  C   UNK N   1      21.557  17.192   4.988  0.00  0.00     0.145 A 
HETATM    4  C   UNK N   1      23.770  16.505   5.468  0.00  0.00     0.680 A 
HETATM    5 Cl   UNK N   1      19.385  16.407   6.522  0.00  0.00    -0.079 Cl
HETATM    6  N   UNK N   1      23.332  15.775   6.527  0.00  0.00    -0.200 N 
ATOM      7  HN  UNK N   1      24.000  15.240   7.082  1.00  0.00     0.183 HD
HETATM    8  N   UNK N   1      25.145  16.490   5.119  0.00  0.00    -0.215 N 
HETATM    9  N   UNK N   1      22.883  17.206   4.715  0.00  0.00    -0.175 N 
ATOM     10  HN  UNK N   1      23.224  17.756   3.926  1.00  0.00     0.186 HD
HETATM   11  H   UNK N   1      25.741  15.851   5.570  0.00  0.00     0.178 HD
ENDROOT
BRANCH   8  12
HETATM   12  C   UNK N   1      25.704  17.382   4.121  0.00  0.00     0.163 C 
HETATM   13  C   UNK N   1      26.736  16.632   3.301  0.00  0.00     0.041 C 
BRANCH  12  14
HETATM   14  C   UNK N   1      26.343  18.571   4.775  0.00  0.00     0.104 A 
HETATM   15  N   UNK N   1      26.285  19.786   4.163  0.00  0.00    -0.351 N 
HETATM   16  C   UNK N   1      26.852  20.882   4.732  0.00  0.00     0.133 A 
ATOM     17  HN  UNK N   1      25.809  19.876   3.266  1.00  0.00     0.166 HD
HETATM   18  C   UNK N   1      27.509  20.765   5.954  0.00  0.00     0.147 A 
HETATM   19  C   UNK N   1      27.563  19.518   6.569  0.00  0.00     0.133 A 
HETATM   20  F   UNK N   1      28.085  21.844   6.533  0.00  0.00    -0.203 F 
HETATM   21  N   UNK N   1      26.978  18.446   5.975  0.00  0.00    -0.351 N 
ATOM     22  HN  UNK N   1      27.014  17.535   6.431  1.00  0.00     0.166 HD
ENDBRANCH  12  14
ENDBRANCH   8  12
BRANCH   3  23
HETATM   23  N   UNK N   1      20.676  17.885   4.119  0.00  0.00    -0.326 N 
HETATM   24  C   UNK N   1      20.214  17.350   3.042  0.00  0.00     0.123 A 
HETATM   25  C   UNK N   1      20.507  16.082   2.567  0.00  0.00     0.075 A 
HETATM   26  N   UNK N   1      19.399  17.993   2.190  0.00  0.00    -0.285 N 
HETATM   27  C   UNK N   1      19.802  16.023   1.385  0.00  0.00     0.025 A 
HETATM   28  C   UNK N   1      19.763  14.859   0.461  0.00  0.00     0.070 C 
HETATM   29  N   UNK N   1      19.145  17.180   1.177  0.00  0.00    -0.304 N 
HETATM   30  H   UNK N   1      18.573  17.386   0.403  0.00  0.00     0.186 HD
HETATM   31  H   UNK N   1      19.051  18.908   2.300  0.00  0.00     0.188 HD
ATOM     32  HN  UNK N   1      20.400  18.838   4.353  1.00  0.00     0.169 HD
ENDBRANCH   3  23
TORSDOF 3
ENDMDL
MODEL 9
REMARK VINA RESULT:      -6.6      9.277     12.370
REMARK  3 active torsions:
REMARK  status: ('A' for Active; 'I' for Inactive)
REMARK    1  A    between atoms: C_12  and  C_8 
REMARK    2  A    between atoms: N_23  and  C_8 
REMARK    3  A    between atoms: N_24  and  C_13 
REMARK       I    between atoms: N_23  and  C_14 
ROOT
HETATM    1  C   UNK N   1      24.756  17.633   5.009  0.00  0.00     0.133 A 
HETATM    2  C   UNK N   1      26.147  17.538   5.062  0.00  0.00     0.094 A 
HETATM    3  C   UNK N   1      26.715  16.465   5.768  0.00  0.00     0.145 A 
HETATM    4  C   UNK N   1      24.553  15.671   6.311  0.00  0.00     0.680 A 
HETATM    5 Cl   UNK N   1      27.129  18.755   4.261  0.00  0.00    -0.079 Cl
HETATM    6  N   UNK N   1      23.985  16.695   5.621  0.00  0.00    -0.200 N 
ATOM      7  HN  UNK N   1      22.970  16.760   5.561  1.00  0.00     0.183 HD
HETATM    8  N   UNK N   1      23.732  14.682   6.912  0.00  0.00    -0.215 N 
HETATM    9  N   UNK N   1      25.906  15.569   6.381  0.00  0.00    -0.175 N 
ATOM     10  HN  UNK N   1      26.321  14.801   6.907  1.00  0.00     0.186 HD
HETATM   11  H   UNK N   1      22.769  14.681   6.712  0.00  0.00     0.178 HD
ENDROOT
BRANCH   8  12
HETATM   12  C   UNK N   1      24.261  13.673   7.809  0.00  0.00     0.163 C 
HETATM   13  C   UNK N   1      24.682  12.458   7.005  0.00  0.00     0.041 C 
BRANCH  12  14
HETATM   14  C   UNK N   1      23.230  13.277   8.824  0.00  0.00     0.104 A 
HETATM   15  N   UNK N   1      22.090  14.010   8.946  0.00  0.00    -0.351 N 
HETATM   16  C   UNK N   1      21.138  13.675   9.854  0.00  0.00     0.133 A 
ATOM     17  HN  UNK N   1      21.948  14.824   8.347  1.00  0.00     0.166 HD
HETATM   18  C   UNK N   1      21.327  12.569  10.680  0.00  0.00     0.147 A 
HETATM   19  C   UNK N   1      22.497  11.827  10.547  0.00  0.00     0.133 A 
HETATM   20  F   UNK N   1      20.392  12.222  11.594  0.00  0.00    -0.203 F 
HETATM   21  N   UNK N   1      23.424  12.189   9.623  0.00  0.00    -0.351 N 
ATOM     22  HN  UNK N   1      24.277  11.639   9.524  1.00  0.00     0.166 HD
ENDBRANCH  12  14
ENDBRANCH   8  12
BRANCH   3  23
HETATM   23  N   UNK N   1      28.118  16.259   5.817  0.00  0.00    -0.326 N 
HETATM   24  C   UNK N   1      28.850  16.746   6.759  0.00  0.00     0.123 A 
HETATM   25  C   UNK N   1      28.412  17.534   7.812  0.00  0.00     0.075 A 
HETATM   26  N   UNK N   1      30.182  16.586   6.816  0.00  0.00    -0.285 N 
HETATM   27  C   UNK N   1      29.576  17.817   8.492  0.00  0.00     0.025 A 
HETATM   28  C   UNK N   1      29.675  18.638   9.726  0.00  0.00     0.070 C 
HETATM   29  N   UNK N   1      30.626  17.239   7.878  0.00  0.00    -0.304 N 
HETATM   30  H   UNK N   1      31.565  17.294   8.168  0.00  0.00     0.186 HD
HETATM   31  H   UNK N   1      30.730  16.073   6.179  0.00  0.00     0.188 HD
ATOM     32  HN  UNK N   1      28.561  15.707   5.083  1.00  0.00     0.169 HD
ENDBRANCH   3  23
TORSDOF 3
ENDMDL
