REMARK  7 active torsions:
REMARK  status: ('A' for Active; 'I' for Inactive)
REMARK    1  A    between atoms: C_2  and  C_3 
REMARK    2  A    between atoms: C_2  and  N_17 
REMARK    3  A    between atoms: C_6  and  C_9 
REMARK    4  A    between atoms: C_9  and  C_10 
REMARK    5  A    between atoms: C_9  and  O_16 
REMARK    6  A    between atoms: C_10  and  N_11 
REMARK    7  A    between atoms: N_11  and  C_12 
ROOT
HETATM    1  C   UNK N   1       0.384   2.120  -0.013  0.00  0.00    -0.036 A 
HETATM    2  C   UNK N   1       1.418   1.340   0.526  0.00  0.00     0.010 A 
HETATM    3  C   UNK N   1       1.263  -0.042   0.669  0.00  0.00     0.010 A 
HETATM    4  C   UNK N   1       0.075  -0.665   0.262  0.00  0.00    -0.028 A 
HETATM    5  C   UNK N   1      -0.961   0.115  -0.271  0.00  0.00     0.010 A 
HETATM    6  C   UNK N   1      -0.808   1.497  -0.408  0.00  0.00     0.010 A 
ENDROOT
BRANCH   4   7
HETATM    7  C   UNK N   1      -0.073  -2.158   0.404  0.00  0.00     0.168 C 
BRANCH   7   8
HETATM    8  C   UNK N   1       1.029  -2.890  -0.343  0.00  0.00     0.151 C 
BRANCH   8   9
HETATM    9  N   UNK N   1       1.993  -3.417   0.622  0.00  0.00    -0.411 N 
HETATM   10  H   UNK N   1       1.853  -3.405   1.632  0.00  0.00     0.154 HD
BRANCH   9  11
HETATM   11  C   UNK N   1       3.184  -3.964  -0.035  0.00  0.00     0.014 C 
HETATM   12  C   UNK N   1       4.053  -4.614   1.021  0.00  0.00     0.037 C 
HETATM   13  C   UNK N   1       2.822  -5.028  -1.062  0.00  0.00     0.037 C 
HETATM   14  C   UNK N   1       3.990  -2.859  -0.697  0.00  0.00     0.037 C 
ENDBRANCH   9  11
ENDBRANCH   8   9
ENDBRANCH   7   8
BRANCH   7  15
HETATM   15  O   UNK N   1      -1.314  -2.594  -0.068  0.00  0.00    -0.389 OA
HETATM   16  H   UNK N   1      -2.007  -1.999  -0.396  0.00  0.00     0.210 HD
ENDBRANCH   7  15
ENDBRANCH   4   7
BRANCH   1  17
HETATM   17  C   UNK N   1       0.539   3.606  -0.207  0.00  0.00     0.103 C 
HETATM   18  C   UNK N   1      -0.496   4.372   0.597  0.00  0.00     0.037 C 
BRANCH  17  19
HETATM   19  N   UNK N   1       1.869   4.068   0.162  0.00  0.00    -0.422 N 
HETATM   20  H   UNK N   1       2.615   3.423   0.421  0.00  0.00     0.150 HD
HETATM   21  H   UNK N   1       2.061   5.070   0.162  0.00  0.00     0.150 HD
ENDBRANCH  17  19
ENDBRANCH   1  17
TORSDOF 7
