MODEL 1
REMARK VINA RESULT:      -7.4      0.000      0.000
REMARK  6 active torsions:
REMARK  status: ('A' for Active; 'I' for Inactive)
REMARK    1  A    between atoms: C_2  and  C_4 
REMARK    2  A    between atoms: C_4  and  C_5 
REMARK    3  A    between atoms: C_4  and  C_11 
REMARK       I    between atoms: C_11  and  N_13 
REMARK    4  A    between atoms: N_13  and  C_14 
REMARK    5  A    between atoms: C_17  and  C_20 
REMARK       I    between atoms: C_20  and  N_22 
REMARK    6  A    between atoms: N_22  and  O_23 
ROOT
HETATM    1  C   UNK N   1      35.764  13.238  13.142  0.00  0.00     0.231 C 
HETATM    2  O   UNK N   1      34.551  13.288  13.302  0.00  0.00    -0.272 OA
HETATM    3  N   UNK N   1      36.339  13.775  12.035  0.00  0.00    -0.327 N 
HETATM    4  H   UNK N   1      37.265  13.512  11.828  0.00  0.00     0.169 HD
ENDROOT
BRANCH   3   5
HETATM    5  C   UNK N   1      35.701  14.689  11.151  0.00  0.00     0.034 A 
HETATM    6  C   UNK N   1      35.298  14.242   9.888  0.00  0.00     0.030 A 
HETATM    7  C   UNK N   1      34.896  15.159   8.911  0.00  0.00     0.019 A 
HETATM    8  C   UNK N   1      34.921  16.535   9.178  0.00  0.00     0.034 A 
HETATM    9  C   UNK N   1      35.300  16.980  10.451  0.00  0.00     0.019 A 
HETATM   10  C   UNK N   1      35.689  16.066  11.427  0.00  0.00     0.030 A 
BRANCH   8  11
HETATM   11  C   UNK N   1      34.637  17.514   8.110  0.00  0.00     0.275 C 
HETATM   12  O   UNK N   1      34.677  18.714   8.353  0.00  0.00    -0.265 OA
HETATM   13  N   UNK N   1      34.277  17.087   6.878  0.00  0.00    -0.233 N 
HETATM   14  H   UNK N   1      34.251  16.121   6.688  0.00  0.00     0.197 HD
BRANCH  13  15
HETATM   15  O   UNK N   1      33.953  17.957   5.912  0.00  0.00    -0.287 OA
HETATM   16  H   UNK N   1      33.633  17.658   5.047  0.00  0.00     0.244 HD
ENDBRANCH  13  15
ENDBRANCH   8  11
ENDBRANCH   3   5
BRANCH   1  17
HETATM   17  C   UNK N   1      36.662  12.749  14.262  0.00  0.00     0.114 C 
BRANCH  17  18
HETATM   18  C   UNK N   1      36.651  11.220  14.477  0.00  0.00    -0.005 C 
HETATM   19  C   UNK N   1      38.063  10.721  14.739  0.00  0.00     0.011 C 
HETATM   20  C   UNK N   1      36.144  10.478  13.252  0.00  0.00     0.011 C 
ENDBRANCH  17  18
BRANCH  17  21
HETATM   21  C   UNK N   1      36.505  13.603  15.509  0.00  0.00    -0.045 A 
HETATM   22  C   UNK N   1      37.264  14.779  15.625  0.00  0.00     0.008 A 
HETATM   23  C   UNK N   1      37.145  15.594  16.752  0.00  0.00     0.001 A 
HETATM   24  C   UNK N   1      36.272  15.235  17.782  0.00  0.00     0.000 A 
HETATM   25  C   UNK N   1      35.517  14.064  17.681  0.00  0.00     0.001 A 
HETATM   26  C   UNK N   1      35.627  13.253  16.548  0.00  0.00     0.008 A 
ENDBRANCH  17  21
ENDBRANCH   1  17
TORSDOF 6
ENDMDL
MODEL 2
REMARK VINA RESULT:      -7.1      1.441      2.029
REMARK  6 active torsions:
REMARK  status: ('A' for Active; 'I' for Inactive)
REMARK    1  A    between atoms: C_2  and  C_4 
REMARK    2  A    between atoms: C_4  and  C_5 
REMARK    3  A    between atoms: C_4  and  C_11 
REMARK       I    between atoms: C_11  and  N_13 
REMARK    4  A    between atoms: N_13  and  C_14 
REMARK    5  A    between atoms: C_17  and  C_20 
REMARK       I    between atoms: C_20  and  N_22 
REMARK    6  A    between atoms: N_22  and  O_23 
ROOT
HETATM    1  C   UNK N   1      35.448  12.276  13.873  0.00  0.00     0.231 C 
HETATM    2  O   UNK N   1      34.248  12.437  14.057  0.00  0.00    -0.272 OA
HETATM    3  N   UNK N   1      36.060  12.816  12.788  0.00  0.00    -0.327 N 
HETATM    4  H   UNK N   1      36.953  12.474  12.551  0.00  0.00     0.169 HD
ENDROOT
BRANCH   3   5
HETATM    5  C   UNK N   1      35.507  13.838  11.968  0.00  0.00     0.034 A 
HETATM    6  C   UNK N   1      34.910  13.485  10.754  0.00  0.00     0.030 A 
HETATM    7  C   UNK N   1      34.579  14.471   9.818  0.00  0.00     0.019 A 
HETATM    8  C   UNK N   1      34.870  15.819  10.076  0.00  0.00     0.034 A 
HETATM    9  C   UNK N   1      35.444  16.174  11.302  0.00  0.00     0.019 A 
HETATM   10  C   UNK N   1      35.762  15.192  12.239  0.00  0.00     0.030 A 
BRANCH   8  11
HETATM   11  C   UNK N   1      34.656  16.846   9.037  0.00  0.00     0.275 C 
HETATM   12  O   UNK N   1      34.163  16.534   7.960  0.00  0.00    -0.265 OA
HETATM   13  N   UNK N   1      35.056  18.121   9.252  0.00  0.00    -0.233 N 
HETATM   14  H   UNK N   1      35.447  18.366  10.122  0.00  0.00     0.197 HD
BRANCH  13  15
HETATM   15  O   UNK N   1      34.930  19.054   8.299  0.00  0.00    -0.287 OA
HETATM   16  H   UNK N   1      35.679  19.310   7.739  0.00  0.00     0.244 HD
ENDBRANCH  13  15
ENDBRANCH   8  11
ENDBRANCH   3   5
BRANCH   1  17
HETATM   17  C   UNK N   1      36.306  11.635  14.947  0.00  0.00     0.114 C 
BRANCH  17  18
HETATM   18  C   UNK N   1      36.528  10.117  14.775  0.00  0.00    -0.005 C 
HETATM   19  C   UNK N   1      37.809   9.863  13.997  0.00  0.00     0.011 C 
HETATM   20  C   UNK N   1      35.402   9.463  13.993  0.00  0.00     0.011 C 
ENDBRANCH  17  18
BRANCH  17  21
HETATM   21  C   UNK N   1      35.892  12.100  16.334  0.00  0.00    -0.045 A 
HETATM   22  C   UNK N   1      35.737  11.144  17.351  0.00  0.00     0.008 A 
HETATM   23  C   UNK N   1      35.365  11.530  18.640  0.00  0.00     0.001 A 
HETATM   24  C   UNK N   1      35.133  12.878  18.923  0.00  0.00     0.000 A 
HETATM   25  C   UNK N   1      35.278  13.838  17.918  0.00  0.00     0.001 A 
HETATM   26  C   UNK N   1      35.661  13.453  16.630  0.00  0.00     0.008 A 
ENDBRANCH  17  21
ENDBRANCH   1  17
TORSDOF 6
ENDMDL
MODEL 3
REMARK VINA RESULT:      -7.0     17.515     22.106
REMARK  6 active torsions:
REMARK  status: ('A' for Active; 'I' for Inactive)
REMARK    1  A    between atoms: C_2  and  C_4 
REMARK    2  A    between atoms: C_4  and  C_5 
REMARK    3  A    between atoms: C_4  and  C_11 
REMARK       I    between atoms: C_11  and  N_13 
REMARK    4  A    between atoms: N_13  and  C_14 
REMARK    5  A    between atoms: C_17  and  C_20 
REMARK       I    between atoms: C_20  and  N_22 
REMARK    6  A    between atoms: N_22  and  O_23 
ROOT
HETATM    1  C   UNK N   1      27.012  24.951  -4.474  0.00  0.00     0.231 C 
HETATM    2  O   UNK N   1      26.396  24.198  -3.731  0.00  0.00    -0.272 OA
HETATM    3  N   UNK N   1      28.366  24.881  -4.562  0.00  0.00    -0.327 N 
HETATM    4  H   UNK N   1      28.836  25.641  -4.975  0.00  0.00     0.169 HD
ENDROOT
BRANCH   3   5
HETATM    5  C   UNK N   1      29.154  23.791  -4.101  0.00  0.00     0.034 A 
HETATM    6  C   UNK N   1      29.796  23.894  -2.863  0.00  0.00     0.030 A 
HETATM    7  C   UNK N   1      30.766  22.956  -2.491  0.00  0.00     0.019 A 
HETATM    8  C   UNK N   1      31.124  21.922  -3.368  0.00  0.00     0.034 A 
HETATM    9  C   UNK N   1      30.462  21.804  -4.596  0.00  0.00     0.019 A 
HETATM   10  C   UNK N   1      29.488  22.732  -4.961  0.00  0.00     0.030 A 
BRANCH   8  11
HETATM   11  C   UNK N   1      32.244  21.016  -3.045  0.00  0.00     0.275 C 
HETATM   12  O   UNK N   1      32.933  21.223  -2.053  0.00  0.00    -0.265 OA
HETATM   13  N   UNK N   1      32.546  19.990  -3.873  0.00  0.00    -0.233 N 
HETATM   14  H   UNK N   1      31.986  19.825  -4.666  0.00  0.00     0.197 HD
BRANCH  13  15
HETATM   15  O   UNK N   1      33.597  19.195  -3.633  0.00  0.00    -0.287 OA
HETATM   16  H   UNK N   1      33.649  18.298  -4.000  0.00  0.00     0.244 HD
ENDBRANCH  13  15
ENDBRANCH   8  11
ENDBRANCH   3   5
BRANCH   1  17
HETATM   17  C   UNK N   1      26.266  25.844  -5.447  0.00  0.00     0.114 C 
BRANCH  17  18
HETATM   18  C   UNK N   1      26.350  25.401  -6.923  0.00  0.00    -0.005 C 
HETATM   19  C   UNK N   1      25.403  26.237  -7.771  0.00  0.00     0.011 C 
HETATM   20  C   UNK N   1      25.937  23.951  -7.106  0.00  0.00     0.011 C 
ENDBRANCH  17  18
BRANCH  17  21
HETATM   21  C   UNK N   1      26.542  27.313  -5.170  0.00  0.00    -0.045 A 
HETATM   22  C   UNK N   1      25.878  27.938  -4.101  0.00  0.00     0.008 A 
HETATM   23  C   UNK N   1      26.108  29.283  -3.810  0.00  0.00     0.001 A 
HETATM   24  C   UNK N   1      26.997  30.023  -4.593  0.00  0.00     0.000 A 
HETATM   25  C   UNK N   1      27.659  29.415  -5.663  0.00  0.00     0.001 A 
HETATM   26  C   UNK N   1      27.437  28.064  -5.948  0.00  0.00     0.008 A 
ENDBRANCH  17  21
ENDBRANCH   1  17
TORSDOF 6
ENDMDL
MODEL 4
REMARK VINA RESULT:      -6.9      1.736      2.490
REMARK  6 active torsions:
REMARK  status: ('A' for Active; 'I' for Inactive)
REMARK    1  A    between atoms: C_2  and  C_4 
REMARK    2  A    between atoms: C_4  and  C_5 
REMARK    3  A    between atoms: C_4  and  C_11 
REMARK       I    between atoms: C_11  and  N_13 
REMARK    4  A    between atoms: N_13  and  C_14 
REMARK    5  A    between atoms: C_17  and  C_20 
REMARK       I    between atoms: C_20  and  N_22 
REMARK    6  A    between atoms: N_22  and  O_23 
ROOT
HETATM    1  C   UNK N   1      36.304  12.311  14.099  0.00  0.00     0.231 C 
HETATM    2  O   UNK N   1      37.417  12.300  13.589  0.00  0.00    -0.272 OA
HETATM    3  N   UNK N   1      35.353  13.178  13.664  0.00  0.00    -0.327 N 
HETATM    4  H   UNK N   1      34.568  13.321  14.242  0.00  0.00     0.169 HD
ENDROOT
BRANCH   3   5
HETATM    5  C   UNK N   1      35.406  13.893  12.437  0.00  0.00     0.034 A 
HETATM    6  C   UNK N   1      35.848  15.221  12.443  0.00  0.00     0.030 A 
HETATM    7  C   UNK N   1      35.684  16.024  11.310  0.00  0.00     0.019 A 
HETATM    8  C   UNK N   1      35.048  15.516  10.168  0.00  0.00     0.034 A 
HETATM    9  C   UNK N   1      34.630  14.180  10.152  0.00  0.00     0.019 A 
HETATM   10  C   UNK N   1      34.804  13.377  11.277  0.00  0.00     0.030 A 
BRANCH   8  11
HETATM   11  C   UNK N   1      34.743  16.397   9.023  0.00  0.00     0.275 C 
HETATM   12  O   UNK N   1      34.434  15.911   7.941  0.00  0.00    -0.265 OA
HETATM   13  N   UNK N   1      34.858  17.739   9.151  0.00  0.00    -0.233 N 
HETATM   14  H   UNK N   1      35.101  18.124  10.024  0.00  0.00     0.197 HD
BRANCH  13  15
HETATM   15  O   UNK N   1      34.648  18.553   8.108  0.00  0.00    -0.287 OA
HETATM   16  H   UNK N   1      33.839  19.084   8.035  0.00  0.00     0.244 HD
ENDBRANCH  13  15
ENDBRANCH   8  11
ENDBRANCH   3   5
BRANCH   1  17
HETATM   17  C   UNK N   1      35.908  11.235  15.091  0.00  0.00     0.114 C 
BRANCH  17  18
HETATM   18  C   UNK N   1      34.852  10.236  14.573  0.00  0.00    -0.005 C 
HETATM   19  C   UNK N   1      35.138   9.883  13.121  0.00  0.00     0.011 C 
HETATM   20  C   UNK N   1      33.449  10.818  14.615  0.00  0.00     0.011 C 
ENDBRANCH  17  18
BRANCH  17  21
HETATM   21  C   UNK N   1      35.655  11.823  16.471  0.00  0.00    -0.045 A 
HETATM   22  C   UNK N   1      35.469  13.210  16.593  0.00  0.00     0.008 A 
HETATM   23  C   UNK N   1      35.228  13.788  17.840  0.00  0.00     0.001 A 
HETATM   24  C   UNK N   1      35.182  12.986  18.983  0.00  0.00     0.000 A 
HETATM   25  C   UNK N   1      35.373  11.606  18.874  0.00  0.00     0.001 A 
HETATM   26  C   UNK N   1      35.603  11.024  17.624  0.00  0.00     0.008 A 
ENDBRANCH  17  21
ENDBRANCH   1  17
TORSDOF 6
ENDMDL
MODEL 5
REMARK VINA RESULT:      -6.8     14.714     16.605
REMARK  6 active torsions:
REMARK  status: ('A' for Active; 'I' for Inactive)
REMARK    1  A    between atoms: C_2  and  C_4 
REMARK    2  A    between atoms: C_4  and  C_5 
REMARK    3  A    between atoms: C_4  and  C_11 
REMARK       I    between atoms: C_11  and  N_13 
REMARK    4  A    between atoms: N_13  and  C_14 
REMARK    5  A    between atoms: C_17  and  C_20 
REMARK       I    between atoms: C_20  and  N_22 
REMARK    6  A    between atoms: N_22  and  O_23 
ROOT
HETATM    1  C   UNK N   1      20.316  14.820   6.127  0.00  0.00     0.231 C 
HETATM    2  O   UNK N   1      19.144  14.914   5.784  0.00  0.00    -0.272 OA
HETATM    3  N   UNK N   1      21.272  15.584   5.537  0.00  0.00    -0.327 N 
HETATM    4  H   UNK N   1      22.212  15.318   5.664  0.00  0.00     0.169 HD
ENDROOT
BRANCH   3   5
HETATM    5  C   UNK N   1      21.017  16.739   4.748  0.00  0.00     0.034 A 
HETATM    6  C   UNK N   1      20.690  16.580   3.397  0.00  0.00     0.030 A 
HETATM    7  C   UNK N   1      20.674  17.686   2.541  0.00  0.00     0.019 A 
HETATM    8  C   UNK N   1      21.013  18.959   3.022  0.00  0.00     0.034 A 
HETATM    9  C   UNK N   1      21.314  19.122   4.379  0.00  0.00     0.019 A 
HETATM   10  C   UNK N   1      21.319  18.021   5.234  0.00  0.00     0.030 A 
BRANCH   8  11
HETATM   11  C   UNK N   1      21.137  20.103   2.097  0.00  0.00     0.275 C 
HETATM   12  O   UNK N   1      21.628  21.156   2.488  0.00  0.00    -0.265 OA
HETATM   13  N   UNK N   1      20.659  20.010   0.835  0.00  0.00    -0.233 N 
HETATM   14  H   UNK N   1      20.271  19.159   0.525  0.00  0.00     0.197 HD
BRANCH  13  15
HETATM   15  O   UNK N   1      20.704  21.057  -0.000  0.00  0.00    -0.287 OA
HETATM   16  H   UNK N   1      20.304  21.018  -0.883  0.00  0.00     0.244 HD
ENDBRANCH  13  15
ENDBRANCH   8  11
ENDBRANCH   3   5
BRANCH   1  17
HETATM   17  C   UNK N   1      20.694  13.993   7.340  0.00  0.00     0.114 C 
BRANCH  17  18
HETATM   18  C   UNK N   1      21.180  14.812   8.555  0.00  0.00    -0.005 C 
HETATM   19  C   UNK N   1      20.999  14.007   9.832  0.00  0.00     0.011 C 
HETATM   20  C   UNK N   1      20.386  16.095   8.729  0.00  0.00     0.011 C 
ENDBRANCH  17  18
BRANCH  17  21
HETATM   21  C   UNK N   1      21.551  12.799   6.949  0.00  0.00    -0.045 A 
HETATM   22  C   UNK N   1      20.940  11.704   6.317  0.00  0.00     0.008 A 
HETATM   23  C   UNK N   1      21.693  10.591   5.937  0.00  0.00     0.001 A 
HETATM   24  C   UNK N   1      23.065  10.558   6.195  0.00  0.00     0.000 A 
HETATM   25  C   UNK N   1      23.683  11.639   6.829  0.00  0.00     0.001 A 
HETATM   26  C   UNK N   1      22.932  12.758   7.201  0.00  0.00     0.008 A 
ENDBRANCH  17  21
ENDBRANCH   1  17
TORSDOF 6
ENDMDL
MODEL 6
REMARK VINA RESULT:      -6.8      6.671     11.589
REMARK  6 active torsions:
REMARK  status: ('A' for Active; 'I' for Inactive)
REMARK    1  A    between atoms: C_2  and  C_4 
REMARK    2  A    between atoms: C_4  and  C_5 
REMARK    3  A    between atoms: C_4  and  C_11 
REMARK       I    between atoms: C_11  and  N_13 
REMARK    4  A    between atoms: N_13  and  C_14 
REMARK    5  A    between atoms: C_17  and  C_20 
REMARK       I    between atoms: C_20  and  N_22 
REMARK    6  A    between atoms: N_22  and  O_23 
ROOT
HETATM    1  C   UNK N   1      28.657  16.172   5.274  0.00  0.00     0.231 C 
HETATM    2  O   UNK N   1      28.933  15.046   5.668  0.00  0.00    -0.272 OA
HETATM    3  N   UNK N   1      29.307  17.257   5.770  0.00  0.00    -0.327 N 
HETATM    4  H   UNK N   1      28.904  18.142   5.613  0.00  0.00     0.169 HD
ENDROOT
BRANCH   3   5
HETATM    5  C   UNK N   1      30.526  17.209   6.501  0.00  0.00     0.034 A 
HETATM    6  C   UNK N   1      30.499  17.433   7.882  0.00  0.00     0.030 A 
HETATM    7  C   UNK N   1      31.690  17.635   8.587  0.00  0.00     0.019 A 
HETATM    8  C   UNK N   1      32.920  17.646   7.911  0.00  0.00     0.034 A 
HETATM    9  C   UNK N   1      32.948  17.397   6.534  0.00  0.00     0.019 A 
HETATM   10  C   UNK N   1      31.762  17.183   5.835  0.00  0.00     0.030 A 
BRANCH   8  11
HETATM   11  C   UNK N   1      34.164  18.001   8.622  0.00  0.00     0.275 C 
HETATM   12  O   UNK N   1      34.861  18.923   8.213  0.00  0.00    -0.265 OA
HETATM   13  N   UNK N   1      34.566  17.274   9.690  0.00  0.00    -0.233 N 
HETATM   14  H   UNK N   1      33.999  16.538  10.016  0.00  0.00     0.197 HD
BRANCH  13  15
HETATM   15  O   UNK N   1      35.724  17.539  10.309  0.00  0.00    -0.287 OA
HETATM   16  H   UNK N   1      35.863  17.310  11.242  0.00  0.00     0.244 HD
ENDBRANCH  13  15
ENDBRANCH   8  11
ENDBRANCH   3   5
BRANCH   1  17
HETATM   17  C   UNK N   1      27.723  16.362   4.095  0.00  0.00     0.114 C 
BRANCH  17  18
HETATM   18  C   UNK N   1      28.344  16.036   2.720  0.00  0.00    -0.005 C 
HETATM   19  C   UNK N   1      28.072  14.585   2.357  0.00  0.00     0.011 C 
HETATM   20  C   UNK N   1      29.853  16.213   2.722  0.00  0.00     0.011 C 
ENDBRANCH  17  18
BRANCH  17  21
HETATM   21  C   UNK N   1      26.967  17.678   4.196  0.00  0.00    -0.045 A 
HETATM   22  C   UNK N   1      25.636  17.662   4.642  0.00  0.00     0.008 A 
HETATM   23  C   UNK N   1      24.909  18.849   4.754  0.00  0.00     0.001 A 
HETATM   24  C   UNK N   1      25.504  20.065   4.410  0.00  0.00     0.000 A 
HETATM   25  C   UNK N   1      26.826  20.092   3.958  0.00  0.00     0.001 A 
HETATM   26  C   UNK N   1      27.558  18.905   3.856  0.00  0.00     0.008 A 
ENDBRANCH  17  21
ENDBRANCH   1  17
TORSDOF 6
ENDMDL
MODEL 7
REMARK VINA RESULT:      -6.7     14.281     16.487
REMARK  6 active torsions:
REMARK  status: ('A' for Active; 'I' for Inactive)
REMARK    1  A    between atoms: C_2  and  C_4 
REMARK    2  A    between atoms: C_4  and  C_5 
REMARK    3  A    between atoms: C_4  and  C_11 
REMARK       I    between atoms: C_11  and  N_13 
REMARK    4  A    between atoms: N_13  and  C_14 
REMARK    5  A    between atoms: C_17  and  C_20 
REMARK       I    between atoms: C_20  and  N_22 
REMARK    6  A    between atoms: N_22  and  O_23 
ROOT
HETATM    1  C   UNK N   1      21.729  14.821   5.578  0.00  0.00     0.231 C 
HETATM    2  O   UNK N   1      22.779  15.125   5.029  0.00  0.00    -0.272 OA
HETATM    3  N   UNK N   1      20.702  15.708   5.649  0.00  0.00    -0.327 N 
HETATM    4  H   UNK N   1      19.980  15.520   6.292  0.00  0.00     0.169 HD
ENDROOT
BRANCH   3   5
HETATM    5  C   UNK N   1      20.595  16.889   4.865  0.00  0.00     0.034 A 
HETATM    6  C   UNK N   1      20.048  16.804   3.581  0.00  0.00     0.030 A 
HETATM    7  C   UNK N   1      20.150  17.884   2.698  0.00  0.00     0.019 A 
HETATM    8  C   UNK N   1      20.828  19.051   3.081  0.00  0.00     0.034 A 
HETATM    9  C   UNK N   1      21.352  19.145   4.376  0.00  0.00     0.019 A 
HETATM   10  C   UNK N   1      21.240  18.073   5.259  0.00  0.00     0.030 A 
BRANCH   8  11
HETATM   11  C   UNK N   1      21.065  20.137   2.109  0.00  0.00     0.275 C 
HETATM   12  O   UNK N   1      21.628  21.165   2.465  0.00  0.00    -0.265 OA
HETATM   13  N   UNK N   1      20.611  20.022   0.840  0.00  0.00    -0.233 N 
HETATM   14  H   UNK N   1      20.163  19.190   0.559  0.00  0.00     0.197 HD
BRANCH  13  15
HETATM   15  O   UNK N   1      20.759  21.021  -0.040  0.00  0.00    -0.287 OA
HETATM   16  H   UNK N   1      20.606  21.945   0.213  0.00  0.00     0.244 HD
ENDBRANCH  13  15
ENDBRANCH   8  11
ENDBRANCH   3   5
BRANCH   1  17
HETATM   17  C   UNK N   1      21.484  13.391   6.021  0.00  0.00     0.114 C 
BRANCH  17  18
HETATM   18  C   UNK N   1      20.220  12.737   5.423  0.00  0.00    -0.005 C 
HETATM   19  C   UNK N   1      20.252  11.234   5.656  0.00  0.00     0.011 C 
HETATM   20  C   UNK N   1      20.129  12.946   3.921  0.00  0.00     0.011 C 
ENDBRANCH  17  18
BRANCH  17  21
HETATM   21  C   UNK N   1      21.673  13.238   7.522  0.00  0.00    -0.045 A 
HETATM   22  C   UNK N   1      20.804  13.922   8.387  0.00  0.00     0.008 A 
HETATM   23  C   UNK N   1      20.939  13.803   9.771  0.00  0.00     0.001 A 
HETATM   24  C   UNK N   1      21.954  13.006  10.306  0.00  0.00     0.000 A 
HETATM   25  C   UNK N   1      22.829  12.326   9.455  0.00  0.00     0.001 A 
HETATM   26  C   UNK N   1      22.687  12.435   8.068  0.00  0.00     0.008 A 
ENDBRANCH  17  21
ENDBRANCH   1  17
TORSDOF 6
ENDMDL
MODEL 8
REMARK VINA RESULT:      -6.7      5.741     10.558
REMARK  6 active torsions:
REMARK  status: ('A' for Active; 'I' for Inactive)
REMARK    1  A    between atoms: C_2  and  C_4 
REMARK    2  A    between atoms: C_4  and  C_5 
REMARK    3  A    between atoms: C_4  and  C_11 
REMARK       I    between atoms: C_11  and  N_13 
REMARK    4  A    between atoms: N_13  and  C_14 
REMARK    5  A    between atoms: C_17  and  C_20 
REMARK       I    between atoms: C_20  and  N_22 
REMARK    6  A    between atoms: N_22  and  O_23 
ROOT
HETATM    1  C   UNK N   1      29.732  16.729   6.008  0.00  0.00     0.231 C 
HETATM    2  O   UNK N   1      30.460  17.254   5.175  0.00  0.00    -0.272 OA
HETATM    3  N   UNK N   1      30.261  16.119   7.101  0.00  0.00    -0.327 N 
HETATM    4  H   UNK N   1      29.676  15.514   7.613  0.00  0.00     0.169 HD
ENDROOT
BRANCH   3   5
HETATM    5  C   UNK N   1      31.596  16.289   7.560  0.00  0.00     0.034 A 
HETATM    6  C   UNK N   1      32.326  15.164   7.957  0.00  0.00     0.030 A 
HETATM    7  C   UNK N   1      33.539  15.314   8.637  0.00  0.00     0.019 A 
HETATM    8  C   UNK N   1      34.021  16.593   8.952  0.00  0.00     0.034 A 
HETATM    9  C   UNK N   1      33.303  17.719   8.531  0.00  0.00     0.019 A 
HETATM   10  C   UNK N   1      32.100  17.569   7.844  0.00  0.00     0.030 A 
BRANCH   8  11
HETATM   11  C   UNK N   1      35.223  16.758   9.792  0.00  0.00     0.275 C 
HETATM   12  O   UNK N   1      35.602  17.880  10.106  0.00  0.00    -0.265 OA
HETATM   13  N   UNK N   1      35.941  15.675  10.169  0.00  0.00    -0.233 N 
HETATM   14  H   UNK N   1      35.629  14.775   9.917  0.00  0.00     0.197 HD
BRANCH  13  15
HETATM   15  O   UNK N   1      37.070  15.806  10.877  0.00  0.00    -0.287 OA
HETATM   16  H   UNK N   1      37.389  16.676  11.165  0.00  0.00     0.244 HD
ENDBRANCH  13  15
ENDBRANCH   8  11
ENDBRANCH   3   5
BRANCH   1  17
HETATM   17  C   UNK N   1      28.229  16.913   5.935  0.00  0.00     0.114 C 
BRANCH  17  18
HETATM   18  C   UNK N   1      27.499  15.911   5.015  0.00  0.00    -0.005 C 
HETATM   19  C   UNK N   1      26.076  15.696   5.505  0.00  0.00     0.011 C 
HETATM   20  C   UNK N   1      28.172  14.549   5.012  0.00  0.00     0.011 C 
ENDBRANCH  17  18
BRANCH  17  21
HETATM   21  C   UNK N   1      27.860  18.377   5.758  0.00  0.00    -0.045 A 
HETATM   22  C   UNK N   1      27.512  18.838   4.478  0.00  0.00     0.008 A 
HETATM   23  C   UNK N   1      27.161  20.174   4.274  0.00  0.00     0.001 A 
HETATM   24  C   UNK N   1      27.166  21.067   5.348  0.00  0.00     0.000 A 
HETATM   25  C   UNK N   1      27.517  20.621   6.625  0.00  0.00     0.001 A 
HETATM   26  C   UNK N   1      27.858  19.282   6.832  0.00  0.00     0.008 A 
ENDBRANCH  17  21
ENDBRANCH   1  17
TORSDOF 6
ENDMDL
MODEL 9
REMARK VINA RESULT:      -6.5      6.648     10.775
REMARK  6 active torsions:
REMARK  status: ('A' for Active; 'I' for Inactive)
REMARK    1  A    between atoms: C_2  and  C_4 
REMARK    2  A    between atoms: C_4  and  C_5 
REMARK    3  A    between atoms: C_4  and  C_11 
REMARK       I    between atoms: C_11  and  N_13 
REMARK    4  A    between atoms: N_13  and  C_14 
REMARK    5  A    between atoms: C_17  and  C_20 
REMARK       I    between atoms: C_20  and  N_22 
REMARK    6  A    between atoms: N_22  and  O_23 
ROOT
HETATM    1  C   UNK N   1      29.747  15.152   5.515  0.00  0.00     0.231 C 
HETATM    2  O   UNK N   1      30.514  14.354   6.039  0.00  0.00    -0.272 OA
HETATM    3  N   UNK N   1      29.808  16.474   5.823  0.00  0.00    -0.327 N 
HETATM    4  H   UNK N   1      29.039  17.036   5.573  0.00  0.00     0.169 HD
ENDROOT
BRANCH   3   5
HETATM    5  C   UNK N   1      30.899  17.105   6.481  0.00  0.00     0.034 A 
HETATM    6  C   UNK N   1      32.132  17.184   5.827  0.00  0.00     0.030 A 
HETATM    7  C   UNK N   1      33.279  17.572   6.528  0.00  0.00     0.019 A 
HETATM    8  C   UNK N   1      33.209  17.855   7.900  0.00  0.00     0.034 A 
HETATM    9  C   UNK N   1      31.969  17.801   8.549  0.00  0.00     0.019 A 
HETATM   10  C   UNK N   1      30.825  17.426   7.847  0.00  0.00     0.030 A 
BRANCH   8  11
HETATM   11  C   UNK N   1      34.435  18.124   8.676  0.00  0.00     0.275 C 
HETATM   12  O   UNK N   1      35.193  19.023   8.332  0.00  0.00    -0.265 OA
HETATM   13  N   UNK N   1      34.753  17.343   9.734  0.00  0.00    -0.233 N 
HETATM   14  H   UNK N   1      34.137  16.625  10.009  0.00  0.00     0.197 HD
BRANCH  13  15
HETATM   15  O   UNK N   1      35.893  17.529  10.413  0.00  0.00    -0.287 OA
HETATM   16  H   UNK N   1      36.722  17.111  10.134  0.00  0.00     0.244 HD
ENDBRANCH  13  15
ENDBRANCH   8  11
ENDBRANCH   3   5
BRANCH   1  17
HETATM   17  C   UNK N   1      28.845  14.712   4.378  0.00  0.00     0.114 C 
BRANCH  17  18
HETATM   18  C   UNK N   1      28.545  15.807   3.332  0.00  0.00    -0.005 C 
HETATM   19  C   UNK N   1      27.581  15.274   2.283  0.00  0.00     0.011 C 
HETATM   20  C   UNK N   1      29.797  16.248   2.594  0.00  0.00     0.011 C 
ENDBRANCH  17  18
BRANCH  17  21
HETATM   21  C   UNK N   1      27.648  13.930   4.893  0.00  0.00    -0.045 A 
HETATM   22  C   UNK N   1      26.728  14.575   5.735  0.00  0.00     0.008 A 
HETATM   23  C   UNK N   1      25.612  13.894   6.225  0.00  0.00     0.001 A 
HETATM   24  C   UNK N   1      25.411  12.554   5.887  0.00  0.00     0.000 A 
HETATM   25  C   UNK N   1      26.323  11.899   5.055  0.00  0.00     0.001 A 
HETATM   26  C   UNK N   1      27.435  12.583   4.556  0.00  0.00     0.008 A 
ENDBRANCH  17  21
ENDBRANCH   1  17
TORSDOF 6
ENDMDL
