MODEL 1
REMARK VINA RESULT:      -7.6      0.000      0.000
REMARK  25 active torsions:
REMARK  status: ('A' for Active; 'I' for Inactive)
REMARK    1  A    between atoms: C_2  and  C_3 
REMARK    2  A    between atoms: C_3  and  C_5 
REMARK    3  A    between atoms: C_5  and  C_6 
REMARK    4  A    between atoms: C_5  and  N_25 
REMARK       I    between atoms: C_6  and  N_8 
REMARK    5  A    between atoms: C_12  and  C_13 
REMARK       I    between atoms: C_13  and  N_15 
REMARK    6  A    between atoms: C_16  and  N_15 
REMARK    7  A    between atoms: C_16  and  C_17 
REMARK    8  A    between atoms: C_16  and  C_22 
REMARK    9  A    between atoms: C_17  and  C_18 
REMARK   10  A    between atoms: C_18  and  C_19 
REMARK       I    between atoms: C_19  and  N_21 
REMARK   11  A    between atoms: C_22  and  O_24 
REMARK       I    between atoms: N_25  and  C_26 
REMARK   12  A    between atoms: C_26  and  C_28 
REMARK   13  A    between atoms: C_28  and  C_29 
REMARK   14  A    between atoms: C_28  and  N_31 
REMARK   15  A    between atoms: C_29  and  O_30 
REMARK       I    between atoms: N_31  and  C_32 
REMARK   16  A    between atoms: C_32  and  C_34 
REMARK   17  A    between atoms: C_34  and  C_35 
REMARK   18  A    between atoms: C_34  and  N_38 
REMARK       I    between atoms: N_38  and  C_39 
REMARK   19  A    between atoms: C_41  and  C_39 
REMARK       I    between atoms: N_45  and  C_46 
REMARK   20  A    between atoms: C_46  and  C_48 
REMARK   21  A    between atoms: C_48  and  N_50 
REMARK       I    between atoms: N_50  and  C_51 
REMARK   22  A    between atoms: C_51  and  C_53 
REMARK   23  A    between atoms: C_53  and  C_54 
REMARK   24  A    between atoms: C_53  and  N_58 
REMARK   25  A    between atoms: C_54  and  C_55 
REMARK       I    between atoms: C_55  and  N_57 
ROOT
HETATM    1  C   UNK N   1      25.688  15.149   3.351  0.00  0.00     0.200 C 
ENDROOT
BRANCH   1   2
HETATM    2  C   UNK N   1      26.392  15.740   4.533  0.00  0.00     0.243 C 
HETATM    3  N   UNK N   1      27.029  16.935   4.411  0.00  0.00    -0.346 N 
HETATM    4  H   UNK N   1      27.534  17.117   3.585  0.00  0.00     0.163 HD
HETATM    5  O   UNK N   1      26.156  15.272   5.634  0.00  0.00    -0.271 OA
BRANCH   3   6
HETATM    6  C   UNK N   1      26.998  17.957   5.449  0.00  0.00     0.180 C 
BRANCH   6   7
HETATM    7  C   UNK N   1      26.367  19.320   5.068  0.00  0.00     0.013 C 
HETATM    8  C   UNK N   1      26.558  20.479   6.039  0.00  0.00     0.012 C 
BRANCH   7   9
HETATM    9  C   UNK N   1      26.469  19.718   3.597  0.00  0.00     0.002 C 
HETATM   10  C   UNK N   1      25.108  19.945   2.960  0.00  0.00     0.005 C 
ENDBRANCH   7   9
ENDBRANCH   6   7
BRANCH   6  11
HETATM   11  C   UNK N   1      28.412  18.053   6.018  0.00  0.00     0.243 C 
HETATM   12  O   UNK N   1      29.318  18.399   5.271  0.00  0.00    -0.271 OA
HETATM   13  N   UNK N   1      28.714  17.742   7.309  0.00  0.00    -0.337 N 
HETATM   14  C   UNK N   1      27.743  17.348   8.284  0.00  0.00     0.127 C 
HETATM   15  C   UNK N   1      30.071  17.797   7.792  0.00  0.00     0.179 C 
HETATM   16  C   UNK N   1      28.517  17.314   9.593  0.00  0.00     0.022 C 
HETATM   17  C   UNK N   1      29.998  17.301   9.222  0.00  0.00     0.037 C 
BRANCH  15  18
HETATM   18  C   UNK N   1      30.972  16.929   6.952  0.00  0.00     0.241 C 
HETATM   19  O   UNK N   1      30.897  15.715   7.066  0.00  0.00    -0.271 OA
HETATM   20  N   UNK N   1      31.920  17.500   6.158  0.00  0.00    -0.345 N 
HETATM   21  H   UNK N   1      31.946  18.483   6.122  0.00  0.00     0.163 HD
BRANCH  20  22
HETATM   22  C   UNK N   1      32.898  16.775   5.362  0.00  0.00     0.182 C 
BRANCH  22  23
HETATM   23  C   UNK N   1      32.371  15.417   4.875  0.00  0.00     0.045 C 
BRANCH  23  24
HETATM   24  C   UNK N   1      31.891  15.428   3.432  0.00  0.00     0.105 C 
BRANCH  24  25
HETATM   25  C   UNK N   1      30.444  15.780   3.371  0.00  0.00     0.215 C 
HETATM   26  O   UNK N   1      29.626  15.128   3.998  0.00  0.00    -0.274 OA
HETATM   27  N   UNK N   1      30.042  16.826   2.625  0.00  0.00    -0.370 N 
HETATM   28  H   UNK N   1      29.304  17.477   2.671  0.00  0.00     0.159 HD
HETATM   29  H   UNK N   1      30.626  16.977   1.847  0.00  0.00     0.159 HD
ENDBRANCH  24  25
ENDBRANCH  23  24
ENDBRANCH  22  23
BRANCH  22  30
HETATM   30  C   UNK N   1      34.272  16.769   5.989  0.00  0.00     0.163 C 
HETATM   31  O   UNK N   1      34.602  17.635   6.784  0.00  0.00    -0.648 OA
BRANCH  30  32
HETATM   32  O   UNK N   1      35.136  15.780   5.689  0.00  0.00    -0.775 OA
HETATM   33  H   UNK N   1      34.888  14.878   5.726  0.00  0.00     0.167 HD
ENDBRANCH  30  32
ENDBRANCH  22  30
ENDBRANCH  20  22
ENDBRANCH  15  18
ENDBRANCH   6  11
ENDBRANCH   3   6
ENDBRANCH   1   2
BRANCH   1  34
HETATM   34  C   UNK N   1      26.301  15.282   1.949  0.00  0.00     0.199 C 
BRANCH  34  35
HETATM   35  O   UNK N   1      27.640  14.894   1.909  0.00  0.00    -0.398 OA
HETATM   36  H   UNK N   1      28.455  14.377   2.005  0.00  0.00     0.209 HD
ENDBRANCH  34  35
ENDBRANCH   1  34
BRANCH   1  37
HETATM   37  N   UNK N   1      25.001  13.919   3.643  0.00  0.00    -0.344 N 
HETATM   38  C   UNK N   1      23.811  13.565   3.120  0.00  0.00     0.241 C 
HETATM   39  O   UNK N   1      23.351  12.468   3.400  0.00  0.00    -0.271 OA
HETATM   40  H   UNK N   1      25.431  13.292   4.269  0.00  0.00     0.163 HD
BRANCH  38  41
HETATM   41  C   UNK N   1      23.006  14.512   2.271  0.00  0.00     0.180 C 
BRANCH  41  42
HETATM   42  C   UNK N   1      22.715  14.038   0.835  0.00  0.00     0.009 C 
HETATM   43  C   UNK N   1      23.796  13.174   0.206  0.00  0.00     0.012 C 
HETATM   44  C   UNK N   1      21.345  13.408   0.693  0.00  0.00     0.012 C 
ENDBRANCH  41  42
BRANCH  41  45
HETATM   45  N   UNK N   1      21.937  15.076   3.070  0.00  0.00    -0.346 N 
HETATM   46  C   UNK N   1      21.934  16.352   3.529  0.00  0.00     0.241 C 
HETATM   47  O   UNK N   1      22.973  16.986   3.588  0.00  0.00    -0.271 OA
HETATM   48  H   UNK N   1      21.170  14.502   3.291  0.00  0.00     0.163 HD
BRANCH  46  49
HETATM   49  C   UNK N   1      20.623  17.058   3.797  0.00  0.00     0.179 C 
HETATM   50  C   UNK N   1      20.171  17.851   2.573  0.00  0.00     0.037 C 
HETATM   51  C   UNK N   1      20.804  19.234   2.731  0.00  0.00     0.022 C 
HETATM   52  C   UNK N   1      21.025  19.410   4.227  0.00  0.00     0.127 C 
HETATM   53  N   UNK N   1      20.887  18.088   4.774  0.00  0.00    -0.337 N 
HETATM   54  C   UNK N   1      21.009  17.832   6.110  0.00  0.00     0.243 C 
HETATM   55  O   UNK N   1      21.305  18.731   6.885  0.00  0.00    -0.271 OA
BRANCH  54  56
HETATM   56  C   UNK N   1      20.724  16.450   6.641  0.00  0.00     0.172 C 
HETATM   57  C   UNK N   1      19.497  16.410   7.538  0.00  0.00     0.042 C 
BRANCH  56  58
HETATM   58  N   UNK N   1      21.869  15.780   7.231  0.00  0.00    -0.346 N 
HETATM   59  C   UNK N   1      22.342  14.556   6.877  0.00  0.00     0.241 C 
HETATM   60  O   UNK N   1      21.790  13.903   6.004  0.00  0.00    -0.271 OA
HETATM   61  H   UNK N   1      22.343  16.254   7.952  0.00  0.00     0.163 HD
BRANCH  59  62
HETATM   62  C   UNK N   1      23.593  14.022   7.533  0.00  0.00     0.176 C 
BRANCH  62  63
HETATM   63  C   UNK N   1      23.284  13.526   8.944  0.00  0.00     0.136 C 
BRANCH  63  64
HETATM   64  C   UNK N   1      24.408  12.738   9.531  0.00  0.00     0.217 C 
HETATM   65  O   UNK N   1      24.467  11.533   9.350  0.00  0.00    -0.274 OA
HETATM   66  N   UNK N   1      25.380  13.361  10.225  0.00  0.00    -0.370 N 
HETATM   67  H   UNK N   1      25.536  14.013  10.947  0.00  0.00     0.159 HD
HETATM   68  H   UNK N   1      26.251  13.053   9.889  0.00  0.00     0.159 HD
ENDBRANCH  63  64
ENDBRANCH  62  63
BRANCH  62  69
HETATM   69  N   UNK N   1      24.139  12.910   6.771  0.00  0.00    -0.418 N 
HETATM   70  H   UNK N   1      24.011  11.906   6.894  0.00  0.00     0.150 HD
HETATM   71  H   UNK N   1      24.744  13.175   5.992  0.00  0.00     0.150 HD
ENDBRANCH  62  69
ENDBRANCH  59  62
ENDBRANCH  56  58
ENDBRANCH  54  56
ENDBRANCH  46  49
ENDBRANCH  41  45
ENDBRANCH  38  41
ENDBRANCH   1  37
TORSDOF 25
ENDMDL
MODEL 2
REMARK VINA RESULT:      -7.5      1.311      2.264
REMARK  25 active torsions:
REMARK  status: ('A' for Active; 'I' for Inactive)
REMARK    1  A    between atoms: C_2  and  C_3 
REMARK    2  A    between atoms: C_3  and  C_5 
REMARK    3  A    between atoms: C_5  and  C_6 
REMARK    4  A    between atoms: C_5  and  N_25 
REMARK       I    between atoms: C_6  and  N_8 
REMARK    5  A    between atoms: C_12  and  C_13 
REMARK       I    between atoms: C_13  and  N_15 
REMARK    6  A    between atoms: C_16  and  N_15 
REMARK    7  A    between atoms: C_16  and  C_17 
REMARK    8  A    between atoms: C_16  and  C_22 
REMARK    9  A    between atoms: C_17  and  C_18 
REMARK   10  A    between atoms: C_18  and  C_19 
REMARK       I    between atoms: C_19  and  N_21 
REMARK   11  A    between atoms: C_22  and  O_24 
REMARK       I    between atoms: N_25  and  C_26 
REMARK   12  A    between atoms: C_26  and  C_28 
REMARK   13  A    between atoms: C_28  and  C_29 
REMARK   14  A    between atoms: C_28  and  N_31 
REMARK   15  A    between atoms: C_29  and  O_30 
REMARK       I    between atoms: N_31  and  C_32 
REMARK   16  A    between atoms: C_32  and  C_34 
REMARK   17  A    between atoms: C_34  and  C_35 
REMARK   18  A    between atoms: C_34  and  N_38 
REMARK       I    between atoms: N_38  and  C_39 
REMARK   19  A    between atoms: C_41  and  C_39 
REMARK       I    between atoms: N_45  and  C_46 
REMARK   20  A    between atoms: C_46  and  C_48 
REMARK   21  A    between atoms: C_48  and  N_50 
REMARK       I    between atoms: N_50  and  C_51 
REMARK   22  A    between atoms: C_51  and  C_53 
REMARK   23  A    between atoms: C_53  and  C_54 
REMARK   24  A    between atoms: C_53  and  N_58 
REMARK   25  A    between atoms: C_54  and  C_55 
REMARK       I    between atoms: C_55  and  N_57 
ROOT
HETATM    1  C   UNK N   1      25.440  14.479   4.179  0.00  0.00     0.200 C 
ENDROOT
BRANCH   1   2
HETATM    2  C   UNK N   1      26.173  15.282   5.209  0.00  0.00     0.243 C 
HETATM    3  N   UNK N   1      26.809  16.428   4.846  0.00  0.00    -0.346 N 
HETATM    4  H   UNK N   1      27.294  16.446   3.988  0.00  0.00     0.163 HD
HETATM    5  O   UNK N   1      25.964  15.035   6.385  0.00  0.00    -0.271 OA
BRANCH   3   6
HETATM    6  C   UNK N   1      26.804  17.630   5.668  0.00  0.00     0.180 C 
BRANCH   6   7
HETATM    7  C   UNK N   1      26.116  18.883   5.071  0.00  0.00     0.013 C 
HETATM    8  C   UNK N   1      26.447  20.233   5.697  0.00  0.00     0.012 C 
BRANCH   7   9
HETATM    9  C   UNK N   1      25.990  18.917   3.549  0.00  0.00     0.002 C 
HETATM   10  C   UNK N   1      25.815  20.327   3.011  0.00  0.00     0.005 C 
ENDBRANCH   7   9
ENDBRANCH   6   7
BRANCH   6  11
HETATM   11  C   UNK N   1      28.243  17.859   6.127  0.00  0.00     0.243 C 
HETATM   12  O   UNK N   1      29.077  18.178   5.289  0.00  0.00    -0.271 OA
HETATM   13  N   UNK N   1      28.646  17.693   7.416  0.00  0.00    -0.337 N 
HETATM   14  C   UNK N   1      27.765  17.345   8.490  0.00  0.00     0.127 C 
HETATM   15  C   UNK N   1      30.025  17.870   7.797  0.00  0.00     0.179 C 
HETATM   16  C   UNK N   1      28.621  17.482   9.739  0.00  0.00     0.022 C 
HETATM   17  C   UNK N   1      30.074  17.514   9.269  0.00  0.00     0.037 C 
BRANCH  15  18
HETATM   18  C   UNK N   1      30.922  16.973   6.982  0.00  0.00     0.241 C 
HETATM   19  O   UNK N   1      30.941  15.777   7.227  0.00  0.00    -0.271 OA
HETATM   20  N   UNK N   1      31.766  17.513   6.061  0.00  0.00    -0.345 N 
HETATM   21  H   UNK N   1      31.720  18.487   5.920  0.00  0.00     0.163 HD
BRANCH  20  22
HETATM   22  C   UNK N   1      32.732  16.769   5.268  0.00  0.00     0.182 C 
BRANCH  22  23
HETATM   23  C   UNK N   1      34.177  16.988   5.742  0.00  0.00     0.045 C 
BRANCH  23  24
HETATM   24  C   UNK N   1      34.456  16.439   7.132  0.00  0.00     0.105 C 
BRANCH  24  25
HETATM   25  C   UNK N   1      34.449  17.541   8.135  0.00  0.00     0.215 C 
HETATM   26  O   UNK N   1      34.872  18.646   7.837  0.00  0.00    -0.274 OA
HETATM   27  N   UNK N   1      33.968  17.316   9.372  0.00  0.00    -0.370 N 
HETATM   28  H   UNK N   1      33.522  17.860  10.060  0.00  0.00     0.159 HD
HETATM   29  H   UNK N   1      34.093  16.382   9.658  0.00  0.00     0.159 HD
ENDBRANCH  24  25
ENDBRANCH  23  24
ENDBRANCH  22  23
BRANCH  22  30
HETATM   30  C   UNK N   1      32.493  16.899   3.782  0.00  0.00     0.163 C 
HETATM   31  O   UNK N   1      33.272  16.414   2.977  0.00  0.00    -0.648 OA
BRANCH  30  32
HETATM   32  O   UNK N   1      31.392  17.537   3.339  0.00  0.00    -0.775 OA
HETATM   33  H   UNK N   1      30.772  17.920   3.927  0.00  0.00     0.167 HD
ENDBRANCH  30  32
ENDBRANCH  22  30
ENDBRANCH  20  22
ENDBRANCH  15  18
ENDBRANCH   6  11
ENDBRANCH   3   6
ENDBRANCH   1   2
BRANCH   1  34
HETATM   34  C   UNK N   1      26.097  14.194   2.820  0.00  0.00     0.199 C 
BRANCH  34  35
HETATM   35  O   UNK N   1      26.114  15.312   1.987  0.00  0.00    -0.398 OA
HETATM   36  H   UNK N   1      26.168  15.877   1.199  0.00  0.00     0.209 HD
ENDBRANCH  34  35
ENDBRANCH   1  34
BRANCH   1  37
HETATM   37  N   UNK N   1      24.624  13.434   4.735  0.00  0.00    -0.344 N 
HETATM   38  C   UNK N   1      23.411  13.080   4.268  0.00  0.00     0.241 C 
HETATM   39  O   UNK N   1      22.834  12.138   4.788  0.00  0.00    -0.271 OA
HETATM   40  H   UNK N   1      24.976  12.942   5.512  0.00  0.00     0.163 HD
BRANCH  38  41
HETATM   41  C   UNK N   1      22.723  13.862   3.181  0.00  0.00     0.180 C 
BRANCH  41  42
HETATM   42  C   UNK N   1      22.607  13.152   1.819  0.00  0.00     0.009 C 
HETATM   43  C   UNK N   1      21.250  12.535   1.523  0.00  0.00     0.012 C 
HETATM   44  C   UNK N   1      23.091  14.011   0.669  0.00  0.00     0.012 C 
ENDBRANCH  41  42
BRANCH  41  45
HETATM   45  N   UNK N   1      21.568  14.537   3.738  0.00  0.00    -0.346 N 
HETATM   46  C   UNK N   1      21.636  15.710   4.415  0.00  0.00     0.241 C 
HETATM   47  O   UNK N   1      22.694  16.087   4.885  0.00  0.00    -0.271 OA
HETATM   48  H   UNK N   1      20.685  14.120   3.618  0.00  0.00     0.163 HD
BRANCH  46  49
HETATM   49  C   UNK N   1      20.446  16.644   4.431  0.00  0.00     0.179 C 
HETATM   50  C   UNK N   1      20.214  17.256   3.051  0.00  0.00     0.037 C 
HETATM   51  C   UNK N   1      21.058  18.531   3.027  0.00  0.00     0.022 C 
HETATM   52  C   UNK N   1      21.206  18.946   4.484  0.00  0.00     0.127 C 
HETATM   53  N   UNK N   1      20.813  17.786   5.236  0.00  0.00    -0.337 N 
HETATM   54  C   UNK N   1      20.803  17.767   6.601  0.00  0.00     0.243 C 
HETATM   55  O   UNK N   1      21.194  18.739   7.234  0.00  0.00    -0.271 OA
BRANCH  54  56
HETATM   56  C   UNK N   1      20.257  16.567   7.333  0.00  0.00     0.172 C 
HETATM   57  C   UNK N   1      19.208  16.942   8.368  0.00  0.00     0.042 C 
BRANCH  56  58
HETATM   58  N   UNK N   1      21.268  15.670   7.864  0.00  0.00    -0.346 N 
HETATM   59  C   UNK N   1      21.239  14.313   7.797  0.00  0.00     0.241 C 
HETATM   60  O   UNK N   1      20.299  13.735   7.271  0.00  0.00    -0.271 OA
HETATM   61  H   UNK N   1      22.042  16.082   8.313  0.00  0.00     0.163 HD
BRANCH  59  62
HETATM   62  C   UNK N   1      22.405  13.515   8.329  0.00  0.00     0.176 C 
BRANCH  62  63
HETATM   63  C   UNK N   1      22.357  13.455   9.854  0.00  0.00     0.136 C 
BRANCH  63  64
HETATM   64  C   UNK N   1      23.273  12.417  10.414  0.00  0.00     0.217 C 
HETATM   65  O   UNK N   1      22.867  11.282  10.596  0.00  0.00    -0.274 OA
HETATM   66  N   UNK N   1      24.557  12.723  10.680  0.00  0.00    -0.370 N 
HETATM   67  H   UNK N   1      25.131  13.387  11.126  0.00  0.00     0.159 HD
HETATM   68  H   UNK N   1      25.132  12.029  10.285  0.00  0.00     0.159 HD
ENDBRANCH  63  64
ENDBRANCH  62  63
BRANCH  62  69
HETATM   69  N   UNK N   1      22.372  12.152   7.820  0.00  0.00    -0.418 N 
HETATM   70  H   UNK N   1      23.088  11.620   7.327  0.00  0.00     0.150 HD
HETATM   71  H   UNK N   1      21.498  11.652   7.983  0.00  0.00     0.150 HD
ENDBRANCH  62  69
ENDBRANCH  59  62
ENDBRANCH  56  58
ENDBRANCH  54  56
ENDBRANCH  46  49
ENDBRANCH  41  45
ENDBRANCH  38  41
ENDBRANCH   1  37
TORSDOF 25
ENDMDL
MODEL 3
REMARK VINA RESULT:      -6.9      2.381      6.720
REMARK  25 active torsions:
REMARK  status: ('A' for Active; 'I' for Inactive)
REMARK    1  A    between atoms: C_2  and  C_3 
REMARK    2  A    between atoms: C_3  and  C_5 
REMARK    3  A    between atoms: C_5  and  C_6 
REMARK    4  A    between atoms: C_5  and  N_25 
REMARK       I    between atoms: C_6  and  N_8 
REMARK    5  A    between atoms: C_12  and  C_13 
REMARK       I    between atoms: C_13  and  N_15 
REMARK    6  A    between atoms: C_16  and  N_15 
REMARK    7  A    between atoms: C_16  and  C_17 
REMARK    8  A    between atoms: C_16  and  C_22 
REMARK    9  A    between atoms: C_17  and  C_18 
REMARK   10  A    between atoms: C_18  and  C_19 
REMARK       I    between atoms: C_19  and  N_21 
REMARK   11  A    between atoms: C_22  and  O_24 
REMARK       I    between atoms: N_25  and  C_26 
REMARK   12  A    between atoms: C_26  and  C_28 
REMARK   13  A    between atoms: C_28  and  C_29 
REMARK   14  A    between atoms: C_28  and  N_31 
REMARK   15  A    between atoms: C_29  and  O_30 
REMARK       I    between atoms: N_31  and  C_32 
REMARK   16  A    between atoms: C_32  and  C_34 
REMARK   17  A    between atoms: C_34  and  C_35 
REMARK   18  A    between atoms: C_34  and  N_38 
REMARK       I    between atoms: N_38  and  C_39 
REMARK   19  A    between atoms: C_41  and  C_39 
REMARK       I    between atoms: N_45  and  C_46 
REMARK   20  A    between atoms: C_46  and  C_48 
REMARK   21  A    between atoms: C_48  and  N_50 
REMARK       I    between atoms: N_50  and  C_51 
REMARK   22  A    between atoms: C_51  and  C_53 
REMARK   23  A    between atoms: C_53  and  C_54 
REMARK   24  A    between atoms: C_53  and  N_58 
REMARK   25  A    between atoms: C_54  and  C_55 
REMARK       I    between atoms: C_55  and  N_57 
ROOT
HETATM    1  C   UNK N   1      20.600  16.885   7.450  0.00  0.00     0.200 C 
ENDROOT
BRANCH   1   2
HETATM    2  C   UNK N   1      21.415  17.911   6.724  0.00  0.00     0.243 C 
HETATM    3  N   UNK N   1      22.545  17.536   6.070  0.00  0.00    -0.346 N 
HETATM    4  H   UNK N   1      23.133  16.867   6.492  0.00  0.00     0.163 HD
HETATM    5  O   UNK N   1      20.909  19.001   6.515  0.00  0.00    -0.271 OA
BRANCH   3   6
HETATM    6  C   UNK N   1      22.926  18.079   4.773  0.00  0.00     0.180 C 
BRANCH   6   7
HETATM    7  C   UNK N   1      22.236  17.465   3.529  0.00  0.00     0.013 C 
HETATM    8  C   UNK N   1      21.991  15.961   3.530  0.00  0.00     0.012 C 
BRANCH   7   9
HETATM    9  C   UNK N   1      21.095  18.281   2.925  0.00  0.00     0.002 C 
HETATM   10  C   UNK N   1      19.961  17.408   2.415  0.00  0.00     0.005 C 
ENDBRANCH   7   9
ENDBRANCH   6   7
BRANCH   6  11
HETATM   11  C   UNK N   1      24.453  18.067   4.718  0.00  0.00     0.243 C 
HETATM   12  O   UNK N   1      25.047  17.148   5.267  0.00  0.00    -0.271 OA
HETATM   13  N   UNK N   1      25.181  19.046   4.115  0.00  0.00    -0.337 N 
HETATM   14  C   UNK N   1      24.604  20.158   3.422  0.00  0.00     0.127 C 
HETATM   15  C   UNK N   1      26.622  19.022   4.131  0.00  0.00     0.179 C 
HETATM   16  C   UNK N   1      25.789  20.842   2.757  0.00  0.00     0.022 C 
HETATM   17  C   UNK N   1      27.042  20.307   3.446  0.00  0.00     0.037 C 
BRANCH  15  18
HETATM   18  C   UNK N   1      27.139  18.956   5.545  0.00  0.00     0.241 C 
HETATM   19  O   UNK N   1      26.941  19.904   6.291  0.00  0.00    -0.271 OA
HETATM   20  N   UNK N   1      27.898  17.898   5.943  0.00  0.00    -0.345 N 
HETATM   21  H   UNK N   1      28.040  17.173   5.291  0.00  0.00     0.163 HD
BRANCH  20  22
HETATM   22  C   UNK N   1      28.519  17.753   7.250  0.00  0.00     0.182 C 
BRANCH  22  23
HETATM   23  C   UNK N   1      29.943  17.185   7.166  0.00  0.00     0.045 C 
BRANCH  23  24
HETATM   24  C   UNK N   1      30.782  17.450   8.407  0.00  0.00     0.105 C 
BRANCH  24  25
HETATM   25  C   UNK N   1      32.233  17.390   8.072  0.00  0.00     0.215 C 
HETATM   26  O   UNK N   1      32.596  17.383   6.908  0.00  0.00    -0.274 OA
HETATM   27  N   UNK N   1      33.145  17.349   9.062  0.00  0.00    -0.370 N 
HETATM   28  H   UNK N   1      34.075  17.656   9.171  0.00  0.00     0.159 HD
HETATM   29  H   UNK N   1      32.801  16.906   9.870  0.00  0.00     0.159 HD
ENDBRANCH  24  25
ENDBRANCH  23  24
ENDBRANCH  22  23
BRANCH  22  30
HETATM   30  C   UNK N   1      27.603  17.105   8.262  0.00  0.00     0.163 C 
HETATM   31  O   UNK N   1      27.712  17.350   9.453  0.00  0.00    -0.648 OA
BRANCH  30  32
HETATM   32  O   UNK N   1      26.636  16.266   7.843  0.00  0.00    -0.775 OA
HETATM   33  H   UNK N   1      26.826  15.513   7.321  0.00  0.00     0.167 HD
ENDBRANCH  30  32
ENDBRANCH  22  30
ENDBRANCH  20  22
ENDBRANCH  15  18
ENDBRANCH   6  11
ENDBRANCH   3   6
ENDBRANCH   1   2
BRANCH   1  34
HETATM   34  C   UNK N   1      19.867  17.265   8.746  0.00  0.00     0.199 C 
BRANCH  34  35
HETATM   35  O   UNK N   1      19.929  18.632   9.017  0.00  0.00    -0.398 OA
HETATM   36  H   UNK N   1      20.004  19.593   8.907  0.00  0.00     0.209 HD
ENDBRANCH  34  35
ENDBRANCH   1  34
BRANCH   1  37
HETATM   37  N   UNK N   1      19.934  15.954   6.580  0.00  0.00    -0.344 N 
HETATM   38  C   UNK N   1      20.234  14.644   6.488  0.00  0.00     0.241 C 
HETATM   39  O   UNK N   1      19.560  13.938   5.753  0.00  0.00    -0.271 OA
HETATM   40  H   UNK N   1      19.208  16.298   6.011  0.00  0.00     0.163 HD
BRANCH  38  41
HETATM   41  C   UNK N   1      21.417  14.051   7.205  0.00  0.00     0.180 C 
BRANCH  41  42
HETATM   42  C   UNK N   1      21.092  13.234   8.469  0.00  0.00     0.009 C 
HETATM   43  C   UNK N   1      22.157  12.234   8.886  0.00  0.00     0.012 C 
HETATM   44  C   UNK N   1      20.658  14.104   9.632  0.00  0.00     0.012 C 
ENDBRANCH  41  42
BRANCH  41  45
HETATM   45  N   UNK N   1      22.348  13.520   6.229  0.00  0.00    -0.346 N 
HETATM   46  C   UNK N   1      23.655  13.875   6.166  0.00  0.00     0.241 C 
HETATM   47  O   UNK N   1      24.040  14.901   6.699  0.00  0.00    -0.271 OA
HETATM   48  H   UNK N   1      22.012  12.866   5.575  0.00  0.00     0.163 HD
BRANCH  46  49
HETATM   49  C   UNK N   1      24.674  12.912   5.598  0.00  0.00     0.179 C 
HETATM   50  C   UNK N   1      26.063  13.186   6.170  0.00  0.00     0.037 C 
HETATM   51  C   UNK N   1      26.693  14.213   5.229  0.00  0.00     0.022 C 
HETATM   52  C   UNK N   1      25.993  14.019   3.891  0.00  0.00     0.127 C 
HETATM   53  N   UNK N   1      24.829  13.235   4.199  0.00  0.00    -0.337 N 
HETATM   54  C   UNK N   1      23.938  12.841   3.241  0.00  0.00     0.243 C 
HETATM   55  O   UNK N   1      24.080  13.204   2.081  0.00  0.00    -0.271 OA
BRANCH  54  56
HETATM   56  C   UNK N   1      22.808  11.910   3.602  0.00  0.00     0.172 C 
HETATM   57  C   UNK N   1      23.229  10.449   3.591  0.00  0.00     0.042 C 
BRANCH  56  58
HETATM   58  N   UNK N   1      21.577  12.141   2.869  0.00  0.00    -0.346 N 
HETATM   59  C   UNK N   1      20.339  11.722   3.245  0.00  0.00     0.241 C 
HETATM   60  O   UNK N   1      20.185  11.075   4.270  0.00  0.00    -0.271 OA
HETATM   61  H   UNK N   1      21.644  12.644   2.026  0.00  0.00     0.163 HD
BRANCH  59  62
HETATM   62  C   UNK N   1      19.138  12.105   2.414  0.00  0.00     0.176 C 
BRANCH  62  63
HETATM   63  C   UNK N   1      18.994  13.624   2.357  0.00  0.00     0.136 C 
BRANCH  63  64
HETATM   64  C   UNK N   1      19.343  14.180   1.015  0.00  0.00     0.217 C 
HETATM   65  O   UNK N   1      20.492  14.123   0.613  0.00  0.00    -0.274 OA
HETATM   66  N   UNK N   1      18.382  14.708   0.232  0.00  0.00    -0.370 N 
HETATM   67  H   UNK N   1      17.626  15.339   0.233  0.00  0.00     0.159 HD
HETATM   68  H   UNK N   1      18.467  14.324  -0.669  0.00  0.00     0.159 HD
ENDBRANCH  63  64
ENDBRANCH  62  63
BRANCH  62  69
HETATM   69  N   UNK N   1      19.274  11.611   1.053  0.00  0.00    -0.418 N 
HETATM   70  H   UNK N   1      19.465  12.116   0.188  0.00  0.00     0.150 HD
HETATM   71  H   UNK N   1      19.161  10.602   0.946  0.00  0.00     0.150 HD
ENDBRANCH  62  69
ENDBRANCH  59  62
ENDBRANCH  56  58
ENDBRANCH  54  56
ENDBRANCH  46  49
ENDBRANCH  41  45
ENDBRANCH  38  41
ENDBRANCH   1  37
TORSDOF 25
ENDMDL
MODEL 4
REMARK VINA RESULT:      -6.8      2.453      6.148
REMARK  25 active torsions:
REMARK  status: ('A' for Active; 'I' for Inactive)
REMARK    1  A    between atoms: C_2  and  C_3 
REMARK    2  A    between atoms: C_3  and  C_5 
REMARK    3  A    between atoms: C_5  and  C_6 
REMARK    4  A    between atoms: C_5  and  N_25 
REMARK       I    between atoms: C_6  and  N_8 
REMARK    5  A    between atoms: C_12  and  C_13 
REMARK       I    between atoms: C_13  and  N_15 
REMARK    6  A    between atoms: C_16  and  N_15 
REMARK    7  A    between atoms: C_16  and  C_17 
REMARK    8  A    between atoms: C_16  and  C_22 
REMARK    9  A    between atoms: C_17  and  C_18 
REMARK   10  A    between atoms: C_18  and  C_19 
REMARK       I    between atoms: C_19  and  N_21 
REMARK   11  A    between atoms: C_22  and  O_24 
REMARK       I    between atoms: N_25  and  C_26 
REMARK   12  A    between atoms: C_26  and  C_28 
REMARK   13  A    between atoms: C_28  and  C_29 
REMARK   14  A    between atoms: C_28  and  N_31 
REMARK   15  A    between atoms: C_29  and  O_30 
REMARK       I    between atoms: N_31  and  C_32 
REMARK   16  A    between atoms: C_32  and  C_34 
REMARK   17  A    between atoms: C_34  and  C_35 
REMARK   18  A    between atoms: C_34  and  N_38 
REMARK       I    between atoms: N_38  and  C_39 
REMARK   19  A    between atoms: C_41  and  C_39 
REMARK       I    between atoms: N_45  and  C_46 
REMARK   20  A    between atoms: C_46  and  C_48 
REMARK   21  A    between atoms: C_48  and  N_50 
REMARK       I    between atoms: N_50  and  C_51 
REMARK   22  A    between atoms: C_51  and  C_53 
REMARK   23  A    between atoms: C_53  and  C_54 
REMARK   24  A    between atoms: C_53  and  N_58 
REMARK   25  A    between atoms: C_54  and  C_55 
REMARK       I    between atoms: C_55  and  N_57 
ROOT
HETATM    1  C   UNK N   1      23.937  13.853   2.354  0.00  0.00     0.200 C 
ENDROOT
BRANCH   1   2
HETATM    2  C   UNK N   1      25.195  14.666   2.343  0.00  0.00     0.243 C 
HETATM    3  N   UNK N   1      26.085  14.547   3.363  0.00  0.00    -0.346 N 
HETATM    4  H   UNK N   1      25.739  14.463   4.282  0.00  0.00     0.163 HD
HETATM    5  O   UNK N   1      25.515  15.213   1.301  0.00  0.00    -0.271 OA
BRANCH   3   6
HETATM    6  C   UNK N   1      27.527  14.540   3.158  0.00  0.00     0.180 C 
BRANCH   6   7
HETATM    7  C   UNK N   1      28.210  13.153   3.054  0.00  0.00     0.013 C 
HETATM    8  C   UNK N   1      27.752  12.068   4.023  0.00  0.00     0.012 C 
BRANCH   7   9
HETATM    9  C   UNK N   1      28.489  12.647   1.640  0.00  0.00     0.002 C 
HETATM   10  C   UNK N   1      29.935  12.222   1.448  0.00  0.00     0.005 C 
ENDBRANCH   7   9
ENDBRANCH   6   7
BRANCH   6  11
HETATM   11  C   UNK N   1      28.130  15.462   4.216  0.00  0.00     0.243 C 
HETATM   12  O   UNK N   1      27.494  15.665   5.242  0.00  0.00    -0.271 OA
HETATM   13  N   UNK N   1      29.325  16.093   4.054  0.00  0.00    -0.337 N 
HETATM   14  C   UNK N   1      30.171  15.921   2.913  0.00  0.00     0.127 C 
HETATM   15  C   UNK N   1      29.834  16.997   5.056  0.00  0.00     0.179 C 
HETATM   16  C   UNK N   1      31.455  16.648   3.283  0.00  0.00     0.022 C 
HETATM   17  C   UNK N   1      31.118  17.548   4.470  0.00  0.00     0.037 C 
BRANCH  15  18
HETATM   18  C   UNK N   1      28.840  18.094   5.338  0.00  0.00     0.241 C 
HETATM   19  O   UNK N   1      28.563  18.355   6.499  0.00  0.00    -0.271 OA
HETATM   20  N   UNK N   1      28.193  18.706   4.309  0.00  0.00    -0.345 N 
HETATM   21  H   UNK N   1      28.444  18.440   3.395  0.00  0.00     0.163 HD
BRANCH  20  22
HETATM   22  C   UNK N   1      27.160  19.721   4.450  0.00  0.00     0.182 C 
BRANCH  22  23
HETATM   23  C   UNK N   1      27.555  20.832   5.433  0.00  0.00     0.045 C 
BRANCH  23  24
HETATM   24  C   UNK N   1      26.369  21.562   6.042  0.00  0.00     0.105 C 
BRANCH  24  25
HETATM   25  C   UNK N   1      26.263  21.255   7.496  0.00  0.00     0.215 C 
HETATM   26  O   UNK N   1      25.621  21.984   8.233  0.00  0.00    -0.274 OA
HETATM   27  N   UNK N   1      26.874  20.163   7.994  0.00  0.00    -0.370 N 
HETATM   28  H   UNK N   1      26.703  19.544   8.740  0.00  0.00     0.159 HD
HETATM   29  H   UNK N   1      27.688  19.928   7.492  0.00  0.00     0.159 HD
ENDBRANCH  24  25
ENDBRANCH  23  24
ENDBRANCH  22  23
BRANCH  22  30
HETATM   30  C   UNK N   1      25.782  19.129   4.634  0.00  0.00     0.163 C 
HETATM   31  O   UNK N   1      24.863  19.438   3.892  0.00  0.00    -0.648 OA
BRANCH  30  32
HETATM   32  O   UNK N   1      25.571  18.229   5.613  0.00  0.00    -0.775 OA
HETATM   33  H   UNK N   1      25.091  18.444   6.388  0.00  0.00     0.167 HD
ENDBRANCH  30  32
ENDBRANCH  22  30
ENDBRANCH  20  22
ENDBRANCH  15  18
ENDBRANCH   6  11
ENDBRANCH   3   6
ENDBRANCH   1   2
BRANCH   1  34
HETATM   34  C   UNK N   1      22.835  14.133   1.321  0.00  0.00     0.199 C 
BRANCH  34  35
HETATM   35  O   UNK N   1      23.264  13.937   0.009  0.00  0.00    -0.398 OA
HETATM   36  H   UNK N   1      23.412  14.058  -0.942  0.00  0.00     0.209 HD
ENDBRANCH  34  35
ENDBRANCH   1  34
BRANCH   1  37
HETATM   37  N   UNK N   1      24.142  12.478   2.726  0.00  0.00    -0.344 N 
HETATM   38  C   UNK N   1      23.458  11.838   3.694  0.00  0.00     0.241 C 
HETATM   39  O   UNK N   1      23.681  10.652   3.883  0.00  0.00    -0.271 OA
HETATM   40  H   UNK N   1      24.829  11.969   2.238  0.00  0.00     0.163 HD
BRANCH  38  41
HETATM   41  C   UNK N   1      22.493  12.564   4.593  0.00  0.00     0.180 C 
BRANCH  41  42
HETATM   42  C   UNK N   1      21.004  12.234   4.378  0.00  0.00     0.009 C 
HETATM   43  C   UNK N   1      20.303  11.598   5.567  0.00  0.00     0.012 C 
HETATM   44  C   UNK N   1      20.218  13.407   3.830  0.00  0.00     0.012 C 
ENDBRANCH  41  42
BRANCH  41  45
HETATM   45  N   UNK N   1      23.031  12.604   5.937  0.00  0.00    -0.346 N 
HETATM   46  C   UNK N   1      23.626  13.696   6.478  0.00  0.00     0.241 C 
HETATM   47  O   UNK N   1      24.044  14.586   5.758  0.00  0.00    -0.271 OA
HETATM   48  H   UNK N   1      22.961  11.792   6.489  0.00  0.00     0.163 HD
BRANCH  46  49
HETATM   49  C   UNK N   1      23.609  13.904   7.976  0.00  0.00     0.179 C 
HETATM   50  C   UNK N   1      24.546  12.921   8.674  0.00  0.00     0.037 C 
HETATM   51  C   UNK N   1      23.694  11.684   8.961  0.00  0.00     0.022 C 
HETATM   52  C   UNK N   1      22.259  12.188   9.031  0.00  0.00     0.127 C 
HETATM   53  N   UNK N   1      22.305  13.500   8.446  0.00  0.00    -0.337 N 
HETATM   54  C   UNK N   1      21.197  14.290   8.334  0.00  0.00     0.243 C 
HETATM   55  O   UNK N   1      20.102  13.869   8.683  0.00  0.00    -0.271 OA
BRANCH  54  56
HETATM   56  C   UNK N   1      21.329  15.706   7.833  0.00  0.00     0.172 C 
HETATM   57  C   UNK N   1      20.492  16.691   8.634  0.00  0.00     0.042 C 
BRANCH  56  58
HETATM   58  N   UNK N   1      21.151  15.860   6.400  0.00  0.00    -0.346 N 
HETATM   59  C   UNK N   1      21.737  16.810   5.625  0.00  0.00     0.241 C 
HETATM   60  O   UNK N   1      22.475  17.650   6.119  0.00  0.00    -0.271 OA
HETATM   61  H   UNK N   1      20.554  15.219   5.951  0.00  0.00     0.163 HD
BRANCH  59  62
HETATM   62  C   UNK N   1      21.514  16.797   4.131  0.00  0.00     0.176 C 
BRANCH  62  63
HETATM   63  C   UNK N   1      20.065  17.148   3.807  0.00  0.00     0.136 C 
BRANCH  63  64
HETATM   64  C   UNK N   1      19.854  17.417   2.353  0.00  0.00     0.217 C 
HETATM   65  O   UNK N   1      20.478  16.781   1.519  0.00  0.00    -0.274 OA
HETATM   66  N   UNK N   1      18.948  18.332   1.959  0.00  0.00    -0.370 N 
HETATM   67  H   UNK N   1      18.645  19.256   2.115  0.00  0.00     0.159 HD
HETATM   68  H   UNK N   1      18.381  17.931   1.262  0.00  0.00     0.159 HD
ENDBRANCH  63  64
ENDBRANCH  62  63
BRANCH  62  69
HETATM   69  N   UNK N   1      22.375  17.767   3.473  0.00  0.00    -0.418 N 
HETATM   70  H   UNK N   1      22.545  18.748   3.695  0.00  0.00     0.150 HD
HETATM   71  H   UNK N   1      22.889  17.412   2.666  0.00  0.00     0.150 HD
ENDBRANCH  62  69
ENDBRANCH  59  62
ENDBRANCH  56  58
ENDBRANCH  54  56
ENDBRANCH  46  49
ENDBRANCH  41  45
ENDBRANCH  38  41
ENDBRANCH   1  37
TORSDOF 25
ENDMDL
MODEL 5
REMARK VINA RESULT:      -6.7      1.808      4.690
REMARK  25 active torsions:
REMARK  status: ('A' for Active; 'I' for Inactive)
REMARK    1  A    between atoms: C_2  and  C_3 
REMARK    2  A    between atoms: C_3  and  C_5 
REMARK    3  A    between atoms: C_5  and  C_6 
REMARK    4  A    between atoms: C_5  and  N_25 
REMARK       I    between atoms: C_6  and  N_8 
REMARK    5  A    between atoms: C_12  and  C_13 
REMARK       I    between atoms: C_13  and  N_15 
REMARK    6  A    between atoms: C_16  and  N_15 
REMARK    7  A    between atoms: C_16  and  C_17 
REMARK    8  A    between atoms: C_16  and  C_22 
REMARK    9  A    between atoms: C_17  and  C_18 
REMARK   10  A    between atoms: C_18  and  C_19 
REMARK       I    between atoms: C_19  and  N_21 
REMARK   11  A    between atoms: C_22  and  O_24 
REMARK       I    between atoms: N_25  and  C_26 
REMARK   12  A    between atoms: C_26  and  C_28 
REMARK   13  A    between atoms: C_28  and  C_29 
REMARK   14  A    between atoms: C_28  and  N_31 
REMARK   15  A    between atoms: C_29  and  O_30 
REMARK       I    between atoms: N_31  and  C_32 
REMARK   16  A    between atoms: C_32  and  C_34 
REMARK   17  A    between atoms: C_34  and  C_35 
REMARK   18  A    between atoms: C_34  and  N_38 
REMARK       I    between atoms: N_38  and  C_39 
REMARK   19  A    between atoms: C_41  and  C_39 
REMARK       I    between atoms: N_45  and  C_46 
REMARK   20  A    between atoms: C_46  and  C_48 
REMARK   21  A    between atoms: C_48  and  N_50 
REMARK       I    between atoms: N_50  and  C_51 
REMARK   22  A    between atoms: C_51  and  C_53 
REMARK   23  A    between atoms: C_53  and  C_54 
REMARK   24  A    between atoms: C_53  and  N_58 
REMARK   25  A    between atoms: C_54  and  C_55 
REMARK       I    between atoms: C_55  and  N_57 
ROOT
HETATM    1  C   UNK N   1      26.481  14.863   3.239  0.00  0.00     0.200 C 
ENDROOT
BRANCH   1   2
HETATM    2  C   UNK N   1      27.166  15.693   4.281  0.00  0.00     0.243 C 
HETATM    3  N   UNK N   1      27.164  17.048   4.173  0.00  0.00    -0.346 N 
HETATM    4  H   UNK N   1      27.284  17.449   3.281  0.00  0.00     0.163 HD
HETATM    5  O   UNK N   1      27.478  15.154   5.330  0.00  0.00    -0.271 OA
BRANCH   3   6
HETATM    6  C   UNK N   1      26.993  17.932   5.318  0.00  0.00     0.180 C 
BRANCH   6   7
HETATM    7  C   UNK N   1      26.294  19.290   5.054  0.00  0.00     0.013 C 
HETATM    8  C   UNK N   1      26.575  20.427   6.029  0.00  0.00     0.012 C 
BRANCH   7   9
HETATM    9  C   UNK N   1      26.213  19.728   3.593  0.00  0.00     0.002 C 
HETATM   10  C   UNK N   1      24.868  20.345   3.244  0.00  0.00     0.005 C 
ENDBRANCH   7   9
ENDBRANCH   6   7
BRANCH   6  11
HETATM   11  C   UNK N   1      28.356  18.046   5.998  0.00  0.00     0.243 C 
HETATM   12  O   UNK N   1      29.320  18.375   5.318  0.00  0.00    -0.271 OA
HETATM   13  N   UNK N   1      28.552  17.768   7.316  0.00  0.00    -0.337 N 
HETATM   14  C   UNK N   1      27.506  17.396   8.218  0.00  0.00     0.127 C 
HETATM   15  C   UNK N   1      29.865  17.838   7.906  0.00  0.00     0.179 C 
HETATM   16  C   UNK N   1      28.170  17.396   9.586  0.00  0.00     0.022 C 
HETATM   17  C   UNK N   1      29.677  17.378   9.337  0.00  0.00     0.037 C 
BRANCH  15  18
HETATM   18  C   UNK N   1      30.832  16.952   7.164  0.00  0.00     0.241 C 
HETATM   19  O   UNK N   1      30.751  15.741   7.305  0.00  0.00    -0.271 OA
HETATM   20  N   UNK N   1      31.838  17.505   6.433  0.00  0.00    -0.345 N 
HETATM   21  H   UNK N   1      31.865  18.488   6.372  0.00  0.00     0.163 HD
BRANCH  20  22
HETATM   22  C   UNK N   1      32.878  16.764   5.737  0.00  0.00     0.182 C 
BRANCH  22  23
HETATM   23  C   UNK N   1      34.254  16.911   6.404  0.00  0.00     0.045 C 
BRANCH  23  24
HETATM   24  C   UNK N   1      34.259  17.853   7.596  0.00  0.00     0.105 C 
BRANCH  24  25
HETATM   25  C   UNK N   1      34.394  17.082   8.864  0.00  0.00     0.215 C 
HETATM   26  O   UNK N   1      35.446  17.090   9.480  0.00  0.00    -0.274 OA
HETATM   27  N   UNK N   1      33.345  16.378   9.332  0.00  0.00    -0.370 N 
HETATM   28  H   UNK N   1      33.024  16.109  10.223  0.00  0.00     0.159 HD
HETATM   29  H   UNK N   1      32.760  16.053   8.610  0.00  0.00     0.159 HD
ENDBRANCH  24  25
ENDBRANCH  23  24
ENDBRANCH  22  23
BRANCH  22  30
HETATM   30  C   UNK N   1      32.839  16.969   4.241  0.00  0.00     0.163 C 
HETATM   31  O   UNK N   1      33.531  16.292   3.497  0.00  0.00    -0.648 OA
BRANCH  30  32
HETATM   32  O   UNK N   1      32.010  17.893   3.717  0.00  0.00    -0.775 OA
HETATM   33  H   UNK N   1      31.672  18.601   4.228  0.00  0.00     0.167 HD
ENDBRANCH  30  32
ENDBRANCH  22  30
ENDBRANCH  20  22
ENDBRANCH  15  18
ENDBRANCH   6  11
ENDBRANCH   3   6
ENDBRANCH   1   2
BRANCH   1  34
HETATM   34  C   UNK N   1      26.419  15.356   1.786  0.00  0.00     0.199 C 
BRANCH  34  35
HETATM   35  O   UNK N   1      25.216  15.032   1.159  0.00  0.00    -0.398 OA
HETATM   36  H   UNK N   1      24.352  14.634   0.967  0.00  0.00     0.209 HD
ENDBRANCH  34  35
ENDBRANCH   1  34
BRANCH   1  37
HETATM   37  N   UNK N   1      26.635  13.446   3.436  0.00  0.00    -0.344 N 
HETATM   38  C   UNK N   1      25.683  12.636   3.937  0.00  0.00     0.241 C 
HETATM   39  O   UNK N   1      25.910  11.437   4.006  0.00  0.00    -0.271 OA
HETATM   40  H   UNK N   1      27.497  13.040   3.187  0.00  0.00     0.163 HD
BRANCH  38  41
HETATM   41  C   UNK N   1      24.389  13.178   4.481  0.00  0.00     0.180 C 
BRANCH  41  42
HETATM   42  C   UNK N   1      23.114  12.728   3.744  0.00  0.00     0.009 C 
HETATM   43  C   UNK N   1      22.217  11.779   4.520  0.00  0.00     0.012 C 
HETATM   44  C   UNK N   1      22.330  13.890   3.169  0.00  0.00     0.012 C 
ENDBRANCH  41  42
BRANCH  41  45
HETATM   45  N   UNK N   1      24.429  13.142   5.929  0.00  0.00    -0.346 N 
HETATM   46  C   UNK N   1      24.241  14.232   6.714  0.00  0.00     0.241 C 
HETATM   47  O   UNK N   1      24.365  15.352   6.250  0.00  0.00    -0.271 OA
HETATM   48  H   UNK N   1      24.603  12.279   6.368  0.00  0.00     0.163 HD
BRANCH  46  49
HETATM   49  C   UNK N   1      23.696  14.070   8.116  0.00  0.00     0.179 C 
HETATM   50  C   UNK N   1      24.594  13.158   8.948  0.00  0.00     0.037 C 
HETATM   51  C   UNK N   1      24.063  11.743   8.712  0.00  0.00     0.022 C 
HETATM   52  C   UNK N   1      22.600  11.918   8.331  0.00  0.00     0.127 C 
HETATM   53  N   UNK N   1      22.470  13.313   8.010  0.00  0.00    -0.337 N 
HETATM   54  C   UNK N   1      21.284  13.868   7.625  0.00  0.00     0.243 C 
HETATM   55  O   UNK N   1      20.292  13.165   7.482  0.00  0.00    -0.271 OA
BRANCH  54  56
HETATM   56  C   UNK N   1      21.179  15.359   7.429  0.00  0.00     0.172 C 
HETATM   57  C   UNK N   1      20.641  16.074   8.658  0.00  0.00     0.042 C 
BRANCH  56  58
HETATM   58  N   UNK N   1      20.503  15.763   6.209  0.00  0.00    -0.346 N 
HETATM   59  C   UNK N   1      20.803  16.858   5.461  0.00  0.00     0.241 C 
HETATM   60  O   UNK N   1      21.698  17.619   5.800  0.00  0.00    -0.271 OA
HETATM   61  H   UNK N   1      19.763  15.195   5.897  0.00  0.00     0.163 HD
BRANCH  59  62
HETATM   62  C   UNK N   1      20.058  17.107   4.171  0.00  0.00     0.176 C 
BRANCH  62  63
HETATM   63  C   UNK N   1      21.036  17.438   3.047  0.00  0.00     0.136 C 
BRANCH  63  64
HETATM   64  C   UNK N   1      20.345  17.900   1.807  0.00  0.00     0.217 C 
HETATM   65  O   UNK N   1      19.869  17.085   1.035  0.00  0.00    -0.274 OA
HETATM   66  N   UNK N   1      20.211  19.217   1.559  0.00  0.00    -0.370 N 
HETATM   67  H   UNK N   1      20.709  20.066   1.529  0.00  0.00     0.159 HD
HETATM   68  H   UNK N   1      19.273  19.397   1.322  0.00  0.00     0.159 HD
ENDBRANCH  63  64
ENDBRANCH  62  63
BRANCH  62  69
HETATM   69  N   UNK N   1      19.298  15.930   3.780  0.00  0.00    -0.418 N 
HETATM   70  H   UNK N   1      18.360  15.636   4.052  0.00  0.00     0.150 HD
HETATM   71  H   UNK N   1      19.776  15.302   3.133  0.00  0.00     0.150 HD
ENDBRANCH  62  69
ENDBRANCH  59  62
ENDBRANCH  56  58
ENDBRANCH  54  56
ENDBRANCH  46  49
ENDBRANCH  41  45
ENDBRANCH  38  41
ENDBRANCH   1  37
TORSDOF 25
ENDMDL
MODEL 6
REMARK VINA RESULT:      -6.3      2.429      5.552
REMARK  25 active torsions:
REMARK  status: ('A' for Active; 'I' for Inactive)
REMARK    1  A    between atoms: C_2  and  C_3 
REMARK    2  A    between atoms: C_3  and  C_5 
REMARK    3  A    between atoms: C_5  and  C_6 
REMARK    4  A    between atoms: C_5  and  N_25 
REMARK       I    between atoms: C_6  and  N_8 
REMARK    5  A    between atoms: C_12  and  C_13 
REMARK       I    between atoms: C_13  and  N_15 
REMARK    6  A    between atoms: C_16  and  N_15 
REMARK    7  A    between atoms: C_16  and  C_17 
REMARK    8  A    between atoms: C_16  and  C_22 
REMARK    9  A    between atoms: C_17  and  C_18 
REMARK   10  A    between atoms: C_18  and  C_19 
REMARK       I    between atoms: C_19  and  N_21 
REMARK   11  A    between atoms: C_22  and  O_24 
REMARK       I    between atoms: N_25  and  C_26 
REMARK   12  A    between atoms: C_26  and  C_28 
REMARK   13  A    between atoms: C_28  and  C_29 
REMARK   14  A    between atoms: C_28  and  N_31 
REMARK   15  A    between atoms: C_29  and  O_30 
REMARK       I    between atoms: N_31  and  C_32 
REMARK   16  A    between atoms: C_32  and  C_34 
REMARK   17  A    between atoms: C_34  and  C_35 
REMARK   18  A    between atoms: C_34  and  N_38 
REMARK       I    between atoms: N_38  and  C_39 
REMARK   19  A    between atoms: C_41  and  C_39 
REMARK       I    between atoms: N_45  and  C_46 
REMARK   20  A    between atoms: C_46  and  C_48 
REMARK   21  A    between atoms: C_48  and  N_50 
REMARK       I    between atoms: N_50  and  C_51 
REMARK   22  A    between atoms: C_51  and  C_53 
REMARK   23  A    between atoms: C_53  and  C_54 
REMARK   24  A    between atoms: C_53  and  N_58 
REMARK   25  A    between atoms: C_54  and  C_55 
REMARK       I    between atoms: C_55  and  N_57 
ROOT
HETATM    1  C   UNK N   1      26.642  14.952   3.707  0.00  0.00     0.200 C 
ENDROOT
BRANCH   1   2
HETATM    2  C   UNK N   1      27.877  14.875   4.552  0.00  0.00     0.243 C 
HETATM    3  N   UNK N   1      28.646  15.983   4.725  0.00  0.00    -0.346 N 
HETATM    4  H   UNK N   1      28.794  16.579   3.954  0.00  0.00     0.163 HD
HETATM    5  O   UNK N   1      28.019  13.902   5.272  0.00  0.00    -0.271 OA
BRANCH   3   6
HETATM    6  C   UNK N   1      29.260  16.327   6.000  0.00  0.00     0.180 C 
BRANCH   6   7
HETATM    7  C   UNK N   1      29.027  17.768   6.521  0.00  0.00     0.013 C 
HETATM    8  C   UNK N   1      28.327  18.749   5.588  0.00  0.00     0.012 C 
BRANCH   7   9
HETATM    9  C   UNK N   1      28.606  17.891   7.984  0.00  0.00     0.002 C 
HETATM   10  C   UNK N   1      29.671  18.553   8.843  0.00  0.00     0.005 C 
ENDBRANCH   7   9
ENDBRANCH   6   7
BRANCH   6  11
HETATM   11  C   UNK N   1      30.729  15.919   5.908  0.00  0.00     0.243 C 
HETATM   12  O   UNK N   1      31.223  15.309   6.848  0.00  0.00    -0.271 OA
HETATM   13  N   UNK N   1      31.520  16.230   4.845  0.00  0.00    -0.337 N 
HETATM   14  C   UNK N   1      31.057  16.919   3.679  0.00  0.00     0.127 C 
HETATM   15  C   UNK N   1      32.916  15.870   4.822  0.00  0.00     0.179 C 
HETATM   16  C   UNK N   1      32.226  16.846   2.709  0.00  0.00     0.022 C 
HETATM   17  C   UNK N   1      33.453  16.463   3.535  0.00  0.00     0.037 C 
BRANCH  15  18
HETATM   18  C   UNK N   1      33.631  16.428   6.027  0.00  0.00     0.241 C 
HETATM   19  O   UNK N   1      33.951  17.607   6.029  0.00  0.00    -0.271 OA
HETATM   20  N   UNK N   1      33.997  15.600   7.044  0.00  0.00    -0.345 N 
HETATM   21  H   UNK N   1      33.727  14.655   6.976  0.00  0.00     0.163 HD
BRANCH  20  22
HETATM   22  C   UNK N   1      34.755  15.997   8.219  0.00  0.00     0.182 C 
BRANCH  22  23
HETATM   23  C   UNK N   1      35.232  14.795   9.047  0.00  0.00     0.045 C 
BRANCH  23  24
HETATM   24  C   UNK N   1      36.202  15.162  10.158  0.00  0.00     0.105 C 
BRANCH  24  25
HETATM   25  C   UNK N   1      35.566  14.955  11.490  0.00  0.00     0.215 C 
HETATM   26  O   UNK N   1      34.379  14.683  11.569  0.00  0.00    -0.274 OA
HETATM   27  N   UNK N   1      36.307  15.064  12.609  0.00  0.00    -0.370 N 
HETATM   28  H   UNK N   1      36.284  14.661  13.506  0.00  0.00     0.159 HD
HETATM   29  H   UNK N   1      37.051  15.700  12.504  0.00  0.00     0.159 HD
ENDBRANCH  24  25
ENDBRANCH  23  24
ENDBRANCH  22  23
BRANCH  22  30
HETATM   30  C   UNK N   1      34.093  17.114   8.991  0.00  0.00     0.163 C 
HETATM   31  O   UNK N   1      34.718  18.115   9.307  0.00  0.00    -0.648 OA
BRANCH  30  32
HETATM   32  O   UNK N   1      32.788  17.019   9.313  0.00  0.00    -0.775 OA
HETATM   33  H   UNK N   1      32.398  17.564   9.966  0.00  0.00     0.167 HD
ENDBRANCH  30  32
ENDBRANCH  22  30
ENDBRANCH  20  22
ENDBRANCH  15  18
ENDBRANCH   6  11
ENDBRANCH   3   6
ENDBRANCH   1   2
BRANCH   1  34
HETATM   34  C   UNK N   1      26.477  16.094   2.693  0.00  0.00     0.199 C 
BRANCH  34  35
HETATM   35  O   UNK N   1      26.152  15.637   1.416  0.00  0.00    -0.398 OA
HETATM   36  H   UNK N   1      26.177  15.470   0.461  0.00  0.00     0.209 HD
ENDBRANCH  34  35
ENDBRANCH   1  34
BRANCH   1  37
HETATM   37  N   UNK N   1      26.125  13.666   3.323  0.00  0.00    -0.344 N 
HETATM   38  C   UNK N   1      24.834  13.297   3.432  0.00  0.00     0.241 C 
HETATM   39  O   UNK N   1      24.501  12.197   3.020  0.00  0.00    -0.271 OA
HETATM   40  H   UNK N   1      26.759  13.009   2.954  0.00  0.00     0.163 HD
BRANCH  38  41
HETATM   41  C   UNK N   1      23.816  14.172   4.114  0.00  0.00     0.180 C 
BRANCH  41  42
HETATM   42  C   UNK N   1      22.592  14.561   3.264  0.00  0.00     0.009 C 
HETATM   43  C   UNK N   1      22.876  14.799   1.790  0.00  0.00     0.012 C 
HETATM   44  C   UNK N   1      21.421  13.621   3.460  0.00  0.00     0.012 C 
ENDBRANCH  41  42
BRANCH  41  45
HETATM   45  N   UNK N   1      23.626  13.710   5.474  0.00  0.00    -0.346 N 
HETATM   46  C   UNK N   1      23.831  14.485   6.568  0.00  0.00     0.241 C 
HETATM   47  O   UNK N   1      24.507  15.495   6.486  0.00  0.00    -0.271 OA
HETATM   48  H   UNK N   1      23.332  12.781   5.611  0.00  0.00     0.163 HD
BRANCH  46  49
HETATM   49  C   UNK N   1      23.074  14.204   7.847  0.00  0.00     0.179 C 
HETATM   50  C   UNK N   1      23.717  13.055   8.620  0.00  0.00     0.037 C 
HETATM   51  C   UNK N   1      23.048  11.786   8.092  0.00  0.00     0.022 C 
HETATM   52  C   UNK N   1      21.689  12.232   7.570  0.00  0.00     0.127 C 
HETATM   53  N   UNK N   1      21.789  13.663   7.470  0.00  0.00    -0.337 N 
HETATM   54  C   UNK N   1      20.752  14.440   7.040  0.00  0.00     0.243 C 
HETATM   55  O   UNK N   1      19.708  13.923   6.663  0.00  0.00    -0.271 OA
BRANCH  54  56
HETATM   56  C   UNK N   1      20.870  15.943   7.081  0.00  0.00     0.172 C 
HETATM   57  C   UNK N   1      19.818  16.587   7.969  0.00  0.00     0.042 C 
BRANCH  56  58
HETATM   58  N   UNK N   1      20.966  16.578   5.779  0.00  0.00    -0.346 N 
HETATM   59  C   UNK N   1      21.454  17.823   5.538  0.00  0.00     0.241 C 
HETATM   60  O   UNK N   1      21.846  18.528   6.456  0.00  0.00    -0.271 OA
HETATM   61  H   UNK N   1      20.650  16.061   5.003  0.00  0.00     0.163 HD
BRANCH  59  62
HETATM   62  C   UNK N   1      21.560  18.320   4.115  0.00  0.00     0.176 C 
BRANCH  62  63
HETATM   63  C   UNK N   1      20.801  19.634   3.953  0.00  0.00     0.136 C 
BRANCH  63  64
HETATM   64  C   UNK N   1      21.179  20.361   2.704  0.00  0.00     0.217 C 
HETATM   65  O   UNK N   1      22.110  21.148   2.715  0.00  0.00    -0.274 OA
HETATM   66  N   UNK N   1      20.519  20.118   1.555  0.00  0.00    -0.370 N 
HETATM   67  H   UNK N   1      19.616  20.041   1.168  0.00  0.00     0.159 HD
HETATM   68  H   UNK N   1      21.179  19.961   0.842  0.00  0.00     0.159 HD
ENDBRANCH  63  64
ENDBRANCH  62  63
BRANCH  62  69
HETATM   69  N   UNK N   1      22.951  18.551   3.753  0.00  0.00    -0.418 N 
HETATM   70  H   UNK N   1      23.349  18.941   2.900  0.00  0.00     0.150 HD
HETATM   71  H   UNK N   1      23.632  18.283   4.464  0.00  0.00     0.150 HD
ENDBRANCH  62  69
ENDBRANCH  59  62
ENDBRANCH  56  58
ENDBRANCH  54  56
ENDBRANCH  46  49
ENDBRANCH  41  45
ENDBRANCH  38  41
ENDBRANCH   1  37
TORSDOF 25
ENDMDL
MODEL 7
REMARK VINA RESULT:      -6.2      2.650      8.944
REMARK  25 active torsions:
REMARK  status: ('A' for Active; 'I' for Inactive)
REMARK    1  A    between atoms: C_2  and  C_3 
REMARK    2  A    between atoms: C_3  and  C_5 
REMARK    3  A    between atoms: C_5  and  C_6 
REMARK    4  A    between atoms: C_5  and  N_25 
REMARK       I    between atoms: C_6  and  N_8 
REMARK    5  A    between atoms: C_12  and  C_13 
REMARK       I    between atoms: C_13  and  N_15 
REMARK    6  A    between atoms: C_16  and  N_15 
REMARK    7  A    between atoms: C_16  and  C_17 
REMARK    8  A    between atoms: C_16  and  C_22 
REMARK    9  A    between atoms: C_17  and  C_18 
REMARK   10  A    between atoms: C_18  and  C_19 
REMARK       I    between atoms: C_19  and  N_21 
REMARK   11  A    between atoms: C_22  and  O_24 
REMARK       I    between atoms: N_25  and  C_26 
REMARK   12  A    between atoms: C_26  and  C_28 
REMARK   13  A    between atoms: C_28  and  C_29 
REMARK   14  A    between atoms: C_28  and  N_31 
REMARK   15  A    between atoms: C_29  and  O_30 
REMARK       I    between atoms: N_31  and  C_32 
REMARK   16  A    between atoms: C_32  and  C_34 
REMARK   17  A    between atoms: C_34  and  C_35 
REMARK   18  A    between atoms: C_34  and  N_38 
REMARK       I    between atoms: N_38  and  C_39 
REMARK   19  A    between atoms: C_41  and  C_39 
REMARK       I    between atoms: N_45  and  C_46 
REMARK   20  A    between atoms: C_46  and  C_48 
REMARK   21  A    between atoms: C_48  and  N_50 
REMARK       I    between atoms: N_50  and  C_51 
REMARK   22  A    between atoms: C_51  and  C_53 
REMARK   23  A    between atoms: C_53  and  C_54 
REMARK   24  A    between atoms: C_53  and  N_58 
REMARK   25  A    between atoms: C_54  and  C_55 
REMARK       I    between atoms: C_55  and  N_57 
ROOT
HETATM    1  C   UNK N   1      24.796  13.090   3.069  0.00  0.00     0.200 C 
ENDROOT
BRANCH   1   2
HETATM    2  C   UNK N   1      23.633  13.364   3.974  0.00  0.00     0.243 C 
HETATM    3  N   UNK N   1      23.509  12.677   5.140  0.00  0.00    -0.346 N 
HETATM    4  H   UNK N   1      23.730  11.717   5.147  0.00  0.00     0.163 HD
HETATM    5  O   UNK N   1      22.976  14.371   3.773  0.00  0.00    -0.271 OA
BRANCH   3   6
HETATM    6  C   UNK N   1      23.063  13.298   6.380  0.00  0.00     0.180 C 
BRANCH   6   7
HETATM    7  C   UNK N   1      23.494  12.611   7.700  0.00  0.00     0.013 C 
HETATM    8  C   UNK N   1      24.823  13.037   8.313  0.00  0.00     0.012 C 
BRANCH   7   9
HETATM    9  C   UNK N   1      22.386  12.371   8.723  0.00  0.00     0.002 C 
HETATM   10  C   UNK N   1      22.374  13.416   9.826  0.00  0.00     0.005 C 
ENDBRANCH   7   9
ENDBRANCH   6   7
BRANCH   6  11
HETATM   11  C   UNK N   1      21.558  13.522   6.247  0.00  0.00     0.243 C 
HETATM   12  O   UNK N   1      20.856  12.575   5.915  0.00  0.00    -0.271 OA
HETATM   13  N   UNK N   1      20.967  14.731   6.452  0.00  0.00    -0.337 N 
HETATM   14  C   UNK N   1      21.673  15.906   6.864  0.00  0.00     0.127 C 
HETATM   15  C   UNK N   1      19.549  14.910   6.266  0.00  0.00     0.179 C 
HETATM   16  C   UNK N   1      20.579  16.921   7.155  0.00  0.00     0.022 C 
HETATM   17  C   UNK N   1      19.307  16.388   6.498  0.00  0.00     0.037 C 
BRANCH  15  18
HETATM   18  C   UNK N   1      19.137  14.496   4.876  0.00  0.00     0.241 C 
HETATM   19  O   UNK N   1      18.103  13.860   4.732  0.00  0.00    -0.271 OA
HETATM   20  N   UNK N   1      19.960  14.742   3.821  0.00  0.00    -0.345 N 
HETATM   21  H   UNK N   1      20.790  15.241   4.002  0.00  0.00     0.163 HD
BRANCH  20  22
HETATM   22  C   UNK N   1      19.716  14.326   2.449  0.00  0.00     0.182 C 
BRANCH  22  23
HETATM   23  C   UNK N   1      20.204  12.897   2.170  0.00  0.00     0.045 C 
BRANCH  23  24
HETATM   24  C   UNK N   1      19.565  12.259   0.947  0.00  0.00     0.105 C 
BRANCH  24  25
HETATM   25  C   UNK N   1      20.137  10.903   0.712  0.00  0.00     0.215 C 
HETATM   26  O   UNK N   1      19.420   9.918   0.756  0.00  0.00    -0.274 OA
HETATM   27  N   UNK N   1      21.450  10.769   0.445  0.00  0.00    -0.370 N 
HETATM   28  H   UNK N   1      21.999  10.136  -0.072  0.00  0.00     0.159 HD
HETATM   29  H   UNK N   1      21.992  11.473   0.869  0.00  0.00     0.159 HD
ENDBRANCH  24  25
ENDBRANCH  23  24
ENDBRANCH  22  23
BRANCH  22  30
HETATM   30  C   UNK N   1      20.122  15.375   1.440  0.00  0.00     0.163 C 
HETATM   31  O   UNK N   1      21.171  15.279   0.823  0.00  0.00    -0.648 OA
BRANCH  30  32
HETATM   32  O   UNK N   1      19.303  16.417   1.198  0.00  0.00    -0.775 OA
HETATM   33  H   UNK N   1      19.631  17.282   1.056  0.00  0.00     0.167 HD
ENDBRANCH  30  32
ENDBRANCH  22  30
ENDBRANCH  20  22
ENDBRANCH  15  18
ENDBRANCH   6  11
ENDBRANCH   3   6
ENDBRANCH   1   2
BRANCH   1  34
HETATM   34  C   UNK N   1      25.093  11.652   2.619  0.00  0.00     0.199 C 
BRANCH  34  35
HETATM   35  O   UNK N   1      24.062  11.103   1.858  0.00  0.00    -0.398 OA
HETATM   36  H   UNK N   1      23.423  10.476   1.483  0.00  0.00     0.209 HD
ENDBRANCH  34  35
ENDBRANCH   1  34
BRANCH   1  37
HETATM   37  N   UNK N   1      25.038  14.133   2.109  0.00  0.00    -0.344 N 
HETATM   38  C   UNK N   1      26.137  14.913   2.088  0.00  0.00     0.241 C 
HETATM   39  O   UNK N   1      26.259  15.730   1.188  0.00  0.00    -0.271 OA
HETATM   40  H   UNK N   1      24.354  14.287   1.418  0.00  0.00     0.163 HD
BRANCH  38  41
HETATM   41  C   UNK N   1      27.169  14.855   3.182  0.00  0.00     0.180 C 
BRANCH  41  42
HETATM   42  C   UNK N   1      28.080  13.613   3.175  0.00  0.00     0.009 C 
HETATM   43  C   UNK N   1      29.329  13.730   2.317  0.00  0.00     0.012 C 
HETATM   44  C   UNK N   1      28.407  13.120   4.570  0.00  0.00     0.012 C 
ENDBRANCH  41  42
BRANCH  41  45
HETATM   45  N   UNK N   1      27.752  16.170   3.357  0.00  0.00    -0.346 N 
HETATM   46  C   UNK N   1      27.775  16.831   4.541  0.00  0.00     0.241 C 
HETATM   47  O   UNK N   1      27.014  16.511   5.437  0.00  0.00    -0.271 OA
HETATM   48  H   UNK N   1      28.153  16.608   2.573  0.00  0.00     0.163 HD
BRANCH  46  49
HETATM   49  C   UNK N   1      28.864  17.842   4.822  0.00  0.00     0.179 C 
HETATM   50  C   UNK N   1      30.244  17.193   4.744  0.00  0.00     0.037 C 
HETATM   51  C   UNK N   1      30.529  16.679   6.155  0.00  0.00     0.022 C 
HETATM   52  C   UNK N   1      29.695  17.553   7.081  0.00  0.00     0.127 C 
HETATM   53  N   UNK N   1      28.754  18.209   6.215  0.00  0.00    -0.337 N 
HETATM   54  C   UNK N   1      27.826  19.095   6.680  0.00  0.00     0.243 C 
HETATM   55  O   UNK N   1      27.730  19.314   7.880  0.00  0.00    -0.271 OA
BRANCH  54  56
HETATM   56  C   UNK N   1      26.954  19.851   5.709  0.00  0.00     0.172 C 
HETATM   57  C   UNK N   1      26.971  21.351   5.953  0.00  0.00     0.042 C 
BRANCH  56  58
HETATM   58  N   UNK N   1      25.609  19.324   5.568  0.00  0.00    -0.346 N 
HETATM   59  C   UNK N   1      24.907  19.238   4.407  0.00  0.00     0.241 C 
HETATM   60  O   UNK N   1      25.389  19.638   3.357  0.00  0.00    -0.271 OA
HETATM   61  H   UNK N   1      25.165  19.002   6.385  0.00  0.00     0.163 HD
BRANCH  59  62
HETATM   62  C   UNK N   1      23.541  18.595   4.406  0.00  0.00     0.176 C 
BRANCH  62  63
HETATM   63  C   UNK N   1      22.634  19.273   3.382  0.00  0.00     0.136 C 
BRANCH  63  64
HETATM   64  C   UNK N   1      21.195  19.236   3.781  0.00  0.00     0.217 C 
HETATM   65  O   UNK N   1      20.665  20.232   4.242  0.00  0.00    -0.274 OA
HETATM   66  N   UNK N   1      20.471  18.115   3.593  0.00  0.00    -0.370 N 
HETATM   67  H   UNK N   1      20.477  17.142   3.740  0.00  0.00     0.159 HD
HETATM   68  H   UNK N   1      19.629  18.359   3.147  0.00  0.00     0.159 HD
ENDBRANCH  63  64
ENDBRANCH  62  63
BRANCH  62  69
HETATM   69  N   UNK N   1      23.636  17.184   4.064  0.00  0.00    -0.418 N 
HETATM   70  H   UNK N   1      23.358  16.361   4.597  0.00  0.00     0.150 HD
HETATM   71  H   UNK N   1      24.044  16.988   3.150  0.00  0.00     0.150 HD
ENDBRANCH  62  69
ENDBRANCH  59  62
ENDBRANCH  56  58
ENDBRANCH  54  56
ENDBRANCH  46  49
ENDBRANCH  41  45
ENDBRANCH  38  41
ENDBRANCH   1  37
TORSDOF 25
ENDMDL
MODEL 8
REMARK VINA RESULT:      -6.2      2.311      5.399
REMARK  25 active torsions:
REMARK  status: ('A' for Active; 'I' for Inactive)
REMARK    1  A    between atoms: C_2  and  C_3 
REMARK    2  A    between atoms: C_3  and  C_5 
REMARK    3  A    between atoms: C_5  and  C_6 
REMARK    4  A    between atoms: C_5  and  N_25 
REMARK       I    between atoms: C_6  and  N_8 
REMARK    5  A    between atoms: C_12  and  C_13 
REMARK       I    between atoms: C_13  and  N_15 
REMARK    6  A    between atoms: C_16  and  N_15 
REMARK    7  A    between atoms: C_16  and  C_17 
REMARK    8  A    between atoms: C_16  and  C_22 
REMARK    9  A    between atoms: C_17  and  C_18 
REMARK   10  A    between atoms: C_18  and  C_19 
REMARK       I    between atoms: C_19  and  N_21 
REMARK   11  A    between atoms: C_22  and  O_24 
REMARK       I    between atoms: N_25  and  C_26 
REMARK   12  A    between atoms: C_26  and  C_28 
REMARK   13  A    between atoms: C_28  and  C_29 
REMARK   14  A    between atoms: C_28  and  N_31 
REMARK   15  A    between atoms: C_29  and  O_30 
REMARK       I    between atoms: N_31  and  C_32 
REMARK   16  A    between atoms: C_32  and  C_34 
REMARK   17  A    between atoms: C_34  and  C_35 
REMARK   18  A    between atoms: C_34  and  N_38 
REMARK       I    between atoms: N_38  and  C_39 
REMARK   19  A    between atoms: C_41  and  C_39 
REMARK       I    between atoms: N_45  and  C_46 
REMARK   20  A    between atoms: C_46  and  C_48 
REMARK   21  A    between atoms: C_48  and  N_50 
REMARK       I    between atoms: N_50  and  C_51 
REMARK   22  A    between atoms: C_51  and  C_53 
REMARK   23  A    between atoms: C_53  and  C_54 
REMARK   24  A    between atoms: C_53  and  N_58 
REMARK   25  A    between atoms: C_54  and  C_55 
REMARK       I    between atoms: C_55  and  N_57 
ROOT
HETATM    1  C   UNK N   1      20.695  16.204   6.698  0.00  0.00     0.200 C 
ENDROOT
BRANCH   1   2
HETATM    2  C   UNK N   1      21.636  17.364   6.580  0.00  0.00     0.243 C 
HETATM    3  N   UNK N   1      22.676  17.303   5.707  0.00  0.00    -0.346 N 
HETATM    4  H   UNK N   1      23.167  16.453   5.617  0.00  0.00     0.163 HD
HETATM    5  O   UNK N   1      21.299  18.428   7.070  0.00  0.00    -0.271 OA
BRANCH   3   6
HETATM    6  C   UNK N   1      23.098  18.439   4.899  0.00  0.00     0.180 C 
BRANCH   6   7
HETATM    7  C   UNK N   1      22.143  18.878   3.759  0.00  0.00     0.013 C 
HETATM    8  C   UNK N   1      22.578  20.054   2.893  0.00  0.00     0.012 C 
BRANCH   7   9
HETATM    9  C   UNK N   1      21.462  17.752   2.985  0.00  0.00     0.002 C 
HETATM   10  C   UNK N   1      20.047  18.109   2.563  0.00  0.00     0.005 C 
ENDBRANCH   7   9
ENDBRANCH   6   7
BRANCH   6  11
HETATM   11  C   UNK N   1      24.530  18.155   4.448  0.00  0.00     0.243 C 
HETATM   12  O   UNK N   1      24.768  17.082   3.907  0.00  0.00    -0.271 OA
HETATM   13  N   UNK N   1      25.556  19.026   4.647  0.00  0.00    -0.337 N 
HETATM   14  C   UNK N   1      25.403  20.317   5.246  0.00  0.00     0.127 C 
HETATM   15  C   UNK N   1      26.903  18.697   4.252  0.00  0.00     0.179 C 
HETATM   16  C   UNK N   1      26.759  20.981   5.061  0.00  0.00     0.022 C 
HETATM   17  C   UNK N   1      27.745  19.866   4.720  0.00  0.00     0.037 C 
BRANCH  15  18
HETATM   18  C   UNK N   1      27.346  17.406   4.892  0.00  0.00     0.241 C 
HETATM   19  O   UNK N   1      27.184  17.257   6.094  0.00  0.00    -0.271 OA
HETATM   20  N   UNK N   1      28.006  16.473   4.153  0.00  0.00    -0.345 N 
HETATM   21  H   UNK N   1      28.124  16.657   3.193  0.00  0.00     0.163 HD
BRANCH  20  22
HETATM   22  C   UNK N   1      28.551  15.226   4.666  0.00  0.00     0.182 C 
BRANCH  22  23
HETATM   23  C   UNK N   1      30.069  15.115   4.455  0.00  0.00     0.045 C 
BRANCH  23  24
HETATM   24  C   UNK N   1      30.865  15.058   5.748  0.00  0.00     0.105 C 
BRANCH  24  25
HETATM   25  C   UNK N   1      31.481  13.711   5.917  0.00  0.00     0.215 C 
HETATM   26  O   UNK N   1      32.343  13.531   6.761  0.00  0.00    -0.274 OA
HETATM   27  N   UNK N   1      31.077  12.690   5.138  0.00  0.00    -0.370 N 
HETATM   28  H   UNK N   1      31.012  11.713   5.241  0.00  0.00     0.159 HD
HETATM   29  H   UNK N   1      30.774  12.992   4.251  0.00  0.00     0.159 HD
ENDBRANCH  24  25
ENDBRANCH  23  24
ENDBRANCH  22  23
BRANCH  22  30
HETATM   30  C   UNK N   1      27.734  14.021   4.263  0.00  0.00     0.163 C 
HETATM   31  O   UNK N   1      26.902  14.097   3.373  0.00  0.00    -0.648 OA
BRANCH  30  32
HETATM   32  O   UNK N   1      27.945  12.840   4.875  0.00  0.00    -0.775 OA
HETATM   33  H   UNK N   1      28.090  12.780   5.798  0.00  0.00     0.167 HD
ENDBRANCH  30  32
ENDBRANCH  22  30
ENDBRANCH  20  22
ENDBRANCH  15  18
ENDBRANCH   6  11
ENDBRANCH   3   6
ENDBRANCH   1   2
BRANCH   1  34
HETATM   34  C   UNK N   1      20.233  15.731   8.085  0.00  0.00     0.199 C 
BRANCH  34  35
HETATM   35  O   UNK N   1      20.085  14.347   8.159  0.00  0.00    -0.398 OA
HETATM   36  H   UNK N   1      19.925  13.451   8.497  0.00  0.00     0.209 HD
ENDBRANCH  34  35
ENDBRANCH   1  34
BRANCH   1  37
HETATM   37  N   UNK N   1      19.730  16.133   5.635  0.00  0.00    -0.344 N 
HETATM   38  C   UNK N   1      19.576  15.078   4.811  0.00  0.00     0.241 C 
HETATM   39  O   UNK N   1      18.683  15.110   3.978  0.00  0.00    -0.271 OA
HETATM   40  H   UNK N   1      19.140  16.909   5.499  0.00  0.00     0.163 HD
BRANCH  38  41
HETATM   41  C   UNK N   1      20.521  13.906   4.841  0.00  0.00     0.180 C 
BRANCH  41  42
HETATM   42  C   UNK N   1      19.877  12.537   5.125  0.00  0.00     0.009 C 
HETATM   43  C   UNK N   1      19.516  11.722   3.894  0.00  0.00     0.012 C 
HETATM   44  C   UNK N   1      20.666  11.716   6.125  0.00  0.00     0.012 C 
ENDBRANCH  41  42
BRANCH  41  45
HETATM   45  N   UNK N   1      21.477  14.038   3.760  0.00  0.00    -0.346 N 
HETATM   46  C   UNK N   1      22.816  14.148   3.949  0.00  0.00     0.241 C 
HETATM   47  O   UNK N   1      23.257  14.483   5.034  0.00  0.00    -0.271 OA
HETATM   48  H   UNK N   1      21.136  14.048   2.837  0.00  0.00     0.163 HD
BRANCH  46  49
HETATM   49  C   UNK N   1      23.773  13.680   2.876  0.00  0.00     0.179 C 
HETATM   50  C   UNK N   1      23.549  14.445   1.573  0.00  0.00     0.037 C 
HETATM   51  C   UNK N   1      22.495  13.643   0.809  0.00  0.00     0.022 C 
HETATM   52  C   UNK N   1      22.619  12.216   1.324  0.00  0.00     0.127 C 
HETATM   53  N   UNK N   1      23.394  12.329   2.529  0.00  0.00    -0.337 N 
HETATM   54  C   UNK N   1      23.731  11.245   3.288  0.00  0.00     0.243 C 
HETATM   55  O   UNK N   1      23.322  10.131   2.987  0.00  0.00    -0.271 OA
BRANCH  54  56
HETATM   56  C   UNK N   1      24.655  11.409   4.468  0.00  0.00     0.172 C 
HETATM   57  C   UNK N   1      25.755  10.361   4.499  0.00  0.00     0.042 C 
BRANCH  56  58
HETATM   58  N   UNK N   1      23.983  11.550   5.747  0.00  0.00    -0.346 N 
HETATM   59  C   UNK N   1      24.449  12.251   6.815  0.00  0.00     0.241 C 
HETATM   60  O   UNK N   1      25.529  12.821   6.764  0.00  0.00    -0.271 OA
HETATM   61  H   UNK N   1      23.115  11.099   5.850  0.00  0.00     0.163 HD
BRANCH  59  62
HETATM   62  C   UNK N   1      23.599  12.370   8.058  0.00  0.00     0.176 C 
BRANCH  62  63
HETATM   63  C   UNK N   1      24.460  12.214   9.308  0.00  0.00     0.136 C 
BRANCH  63  64
HETATM   64  C   UNK N   1      23.643  12.027  10.544  0.00  0.00     0.217 C 
HETATM   65  O   UNK N   1      22.486  11.653  10.458  0.00  0.00    -0.274 OA
HETATM   66  N   UNK N   1      24.195  12.231  11.756  0.00  0.00    -0.370 N 
HETATM   67  H   UNK N   1      24.733  12.871  12.277  0.00  0.00     0.159 HD
HETATM   68  H   UNK N   1      23.984  11.460  12.330  0.00  0.00     0.159 HD
ENDBRANCH  63  64
ENDBRANCH  62  63
BRANCH  62  69
HETATM   69  N   UNK N   1      22.948  13.670   8.114  0.00  0.00    -0.418 N 
HETATM   70  H   UNK N   1      22.430  14.174   7.395  0.00  0.00     0.150 HD
HETATM   71  H   UNK N   1      23.021  14.151   9.011  0.00  0.00     0.150 HD
ENDBRANCH  62  69
ENDBRANCH  59  62
ENDBRANCH  56  58
ENDBRANCH  54  56
ENDBRANCH  46  49
ENDBRANCH  41  45
ENDBRANCH  38  41
ENDBRANCH   1  37
TORSDOF 25
ENDMDL
MODEL 9
REMARK VINA RESULT:      -6.1      2.273      8.227
REMARK  25 active torsions:
REMARK  status: ('A' for Active; 'I' for Inactive)
REMARK    1  A    between atoms: C_2  and  C_3 
REMARK    2  A    between atoms: C_3  and  C_5 
REMARK    3  A    between atoms: C_5  and  C_6 
REMARK    4  A    between atoms: C_5  and  N_25 
REMARK       I    between atoms: C_6  and  N_8 
REMARK    5  A    between atoms: C_12  and  C_13 
REMARK       I    between atoms: C_13  and  N_15 
REMARK    6  A    between atoms: C_16  and  N_15 
REMARK    7  A    between atoms: C_16  and  C_17 
REMARK    8  A    between atoms: C_16  and  C_22 
REMARK    9  A    between atoms: C_17  and  C_18 
REMARK   10  A    between atoms: C_18  and  C_19 
REMARK       I    between atoms: C_19  and  N_21 
REMARK   11  A    between atoms: C_22  and  O_24 
REMARK       I    between atoms: N_25  and  C_26 
REMARK   12  A    between atoms: C_26  and  C_28 
REMARK   13  A    between atoms: C_28  and  C_29 
REMARK   14  A    between atoms: C_28  and  N_31 
REMARK   15  A    between atoms: C_29  and  O_30 
REMARK       I    between atoms: N_31  and  C_32 
REMARK   16  A    between atoms: C_32  and  C_34 
REMARK   17  A    between atoms: C_34  and  C_35 
REMARK   18  A    between atoms: C_34  and  N_38 
REMARK       I    between atoms: N_38  and  C_39 
REMARK   19  A    between atoms: C_41  and  C_39 
REMARK       I    between atoms: N_45  and  C_46 
REMARK   20  A    between atoms: C_46  and  C_48 
REMARK   21  A    between atoms: C_48  and  N_50 
REMARK       I    between atoms: N_50  and  C_51 
REMARK   22  A    between atoms: C_51  and  C_53 
REMARK   23  A    between atoms: C_53  and  C_54 
REMARK   24  A    between atoms: C_53  and  N_58 
REMARK   25  A    between atoms: C_54  and  C_55 
REMARK       I    between atoms: C_55  and  N_57 
ROOT
HETATM    1  C   UNK N   1      25.777  13.135   3.815  0.00  0.00     0.200 C 
ENDROOT
BRANCH   1   2
HETATM    2  C   UNK N   1      24.601  13.113   4.742  0.00  0.00     0.243 C 
HETATM    3  N   UNK N   1      23.810  12.009   4.802  0.00  0.00    -0.346 N 
HETATM    4  H   UNK N   1      23.594  11.538   3.963  0.00  0.00     0.163 HD
HETATM    5  O   UNK N   1      24.535  13.972   5.606  0.00  0.00    -0.271 OA
BRANCH   3   6
HETATM    6  C   UNK N   1      23.265  11.493   6.050  0.00  0.00     0.180 C 
BRANCH   6   7
HETATM    7  C   UNK N   1      23.087   9.957   6.153  0.00  0.00     0.013 C 
HETATM    8  C   UNK N   1      23.174   9.151   4.862  0.00  0.00     0.012 C 
BRANCH   7   9
HETATM    9  C   UNK N   1      23.750   9.284   7.353  0.00  0.00     0.002 C 
HETATM   10  C   UNK N   1      23.861   7.778   7.187  0.00  0.00     0.005 C 
ENDBRANCH   7   9
ENDBRANCH   6   7
BRANCH   6  11
HETATM   11  C   UNK N   1      22.001  12.297   6.348  0.00  0.00     0.243 C 
HETATM   12  O   UNK N   1      21.111  12.314   5.507  0.00  0.00    -0.271 OA
HETATM   13  N   UNK N   1      21.832  13.017   7.491  0.00  0.00    -0.337 N 
HETATM   14  C   UNK N   1      22.787  13.059   8.557  0.00  0.00     0.127 C 
HETATM   15  C   UNK N   1      20.644  13.803   7.709  0.00  0.00     0.179 C 
HETATM   16  C   UNK N   1      22.073  13.807   9.672  0.00  0.00     0.022 C 
HETATM   17  C   UNK N   1      20.879  14.511   9.029  0.00  0.00     0.037 C 
BRANCH  15  18
HETATM   18  C   UNK N   1      20.440  14.786   6.585  0.00  0.00     0.241 C 
HETATM   19  O   UNK N   1      19.310  14.970   6.159  0.00  0.00    -0.271 OA
HETATM   20  N   UNK N   1      21.516  15.376   5.994  0.00  0.00    -0.345 N 
HETATM   21  H   UNK N   1      22.404  15.174   6.369  0.00  0.00     0.163 HD
BRANCH  20  22
HETATM   22  C   UNK N   1      21.460  16.278   4.855  0.00  0.00     0.182 C 
BRANCH  22  23
HETATM   23  C   UNK N   1      22.364  15.825   3.699  0.00  0.00     0.045 C 
BRANCH  23  24
HETATM   24  C   UNK N   1      21.818  14.637   2.924  0.00  0.00     0.105 C 
BRANCH  24  25
HETATM   25  C   UNK N   1      21.830  14.923   1.462  0.00  0.00     0.215 C 
HETATM   26  O   UNK N   1      22.762  14.551   0.770  0.00  0.00    -0.274 OA
HETATM   27  N   UNK N   1      20.802  15.592   0.904  0.00  0.00    -0.370 N 
HETATM   28  H   UNK N   1      20.372  15.603   0.018  0.00  0.00     0.159 HD
HETATM   29  H   UNK N   1      20.379  16.220   1.533  0.00  0.00     0.159 HD
ENDBRANCH  24  25
ENDBRANCH  23  24
ENDBRANCH  22  23
BRANCH  22  30
HETATM   30  C   UNK N   1      21.570  17.731   5.255  0.00  0.00     0.163 C 
HETATM   31  O   UNK N   1      21.061  18.609   4.575  0.00  0.00    -0.648 OA
BRANCH  30  32
HETATM   32  O   UNK N   1      22.215  18.061   6.391  0.00  0.00    -0.775 OA
HETATM   33  H   UNK N   1      21.970  17.704   7.221  0.00  0.00     0.167 HD
ENDBRANCH  30  32
ENDBRANCH  22  30
ENDBRANCH  20  22
ENDBRANCH  15  18
ENDBRANCH   6  11
ENDBRANCH   3   6
ENDBRANCH   1   2
BRANCH   1  34
HETATM   34  C   UNK N   1      26.691  11.905   3.706  0.00  0.00     0.199 C 
BRANCH  34  35
HETATM   35  O   UNK N   1      26.925  11.525   2.385  0.00  0.00    -0.398 OA
HETATM   36  H   UNK N   1      27.163  11.004   1.602  0.00  0.00     0.209 HD
ENDBRANCH  34  35
ENDBRANCH   1  34
BRANCH   1  37
HETATM   37  N   UNK N   1      25.545  13.878   2.606  0.00  0.00    -0.344 N 
HETATM   38  C   UNK N   1      25.920  15.158   2.410  0.00  0.00     0.241 C 
HETATM   39  O   UNK N   1      25.718  15.667   1.318  0.00  0.00    -0.271 OA
HETATM   40  H   UNK N   1      25.080  13.420   1.869  0.00  0.00     0.163 HD
BRANCH  38  41
HETATM   41  C   UNK N   1      26.505  15.989   3.520  0.00  0.00     0.180 C 
BRANCH  41  42
HETATM   42  C   UNK N   1      28.030  15.882   3.702  0.00  0.00     0.009 C 
HETATM   43  C   UNK N   1      28.821  17.113   3.290  0.00  0.00     0.012 C 
HETATM   44  C   UNK N   1      28.422  15.406   5.086  0.00  0.00     0.012 C 
ENDBRANCH  41  42
BRANCH  41  45
HETATM   45  N   UNK N   1      25.873  17.293   3.522  0.00  0.00    -0.346 N 
HETATM   46  C   UNK N   1      25.280  17.841   4.611  0.00  0.00     0.241 C 
HETATM   47  O   UNK N   1      24.945  17.136   5.547  0.00  0.00    -0.271 OA
HETATM   48  H   UNK N   1      25.875  17.811   2.685  0.00  0.00     0.163 HD
BRANCH  46  49
HETATM   49  C   UNK N   1      25.197  19.344   4.752  0.00  0.00     0.179 C 
HETATM   50  C   UNK N   1      24.227  19.936   3.732  0.00  0.00     0.037 C 
HETATM   51  C   UNK N   1      25.072  20.224   2.491  0.00  0.00     0.022 C 
HETATM   52  C   UNK N   1      26.494  20.410   3.003  0.00  0.00     0.127 C 
HETATM   53  N   UNK N   1      26.472  19.881   4.339  0.00  0.00    -0.337 N 
HETATM   54  C   UNK N   1      27.576  19.877   5.142  0.00  0.00     0.243 C 
HETATM   55  O   UNK N   1      28.651  20.278   4.715  0.00  0.00    -0.271 OA
BRANCH  54  56
HETATM   56  C   UNK N   1      27.461  19.430   6.578  0.00  0.00     0.172 C 
HETATM   57  C   UNK N   1      26.870  20.503   7.478  0.00  0.00     0.042 C 
BRANCH  56  58
HETATM   58  N   UNK N   1      28.670  18.845   7.128  0.00  0.00    -0.346 N 
HETATM   59  C   UNK N   1      28.734  17.712   7.877  0.00  0.00     0.241 C 
HETATM   60  O   UNK N   1      27.718  17.096   8.163  0.00  0.00    -0.271 OA
HETATM   61  H   UNK N   1      29.518  19.309   6.942  0.00  0.00     0.163 HD
BRANCH  59  62
HETATM   62  C   UNK N   1      30.078  17.183   8.317  0.00  0.00     0.176 C 
BRANCH  62  63
HETATM   63  C   UNK N   1      31.064  17.201   7.151  0.00  0.00     0.136 C 
BRANCH  63  64
HETATM   64  C   UNK N   1      32.482  17.077   7.601  0.00  0.00     0.217 C 
HETATM   65  O   UNK N   1      32.769  16.314   8.508  0.00  0.00    -0.274 OA
HETATM   66  N   UNK N   1      33.451  17.776   6.980  0.00  0.00    -0.370 N 
HETATM   67  H   UNK N   1      33.691  18.677   6.663  0.00  0.00     0.159 HD
HETATM   68  H   UNK N   1      34.190  17.163   6.763  0.00  0.00     0.159 HD
ENDBRANCH  63  64
ENDBRANCH  62  63
BRANCH  62  69
HETATM   69  N   UNK N   1      30.628  17.999   9.389  0.00  0.00    -0.418 N 
HETATM   70  H   UNK N   1      31.485  17.881   9.927  0.00  0.00     0.150 HD
HETATM   71  H   UNK N   1      30.069  18.815   9.640  0.00  0.00     0.150 HD
ENDBRANCH  62  69
ENDBRANCH  59  62
ENDBRANCH  56  58
ENDBRANCH  54  56
ENDBRANCH  46  49
ENDBRANCH  41  45
ENDBRANCH  38  41
ENDBRANCH   1  37
TORSDOF 25
ENDMDL
