MODEL 1
REMARK VINA RESULT:      -8.7      0.000      0.000
REMARK  5 active torsions:
REMARK  status: ('A' for Active; 'I' for Inactive)
REMARK    1  A    between atoms: C_12  and  C_7 
REMARK    2  A    between atoms: C_21  and  O_37 
REMARK    3  A    between atoms: C_22  and  C_34 
REMARK    4  A    between atoms: C_26  and  O_31 
REMARK    5  A    between atoms: C_34  and  C_35 
ROOT
HETATM    1  C   UNK N   1      27.009  15.962   4.976  0.00  0.00     0.167 C 
HETATM    2  C   UNK N   1      27.503  16.010   3.540  0.00  0.00     0.072 C 
HETATM    3  C   UNK N   1      28.221  14.683   3.395  0.00  0.00     0.159 A 
HETATM    4  C   UNK N   1      29.562  14.881   2.796  0.00  0.00     0.084 A 
HETATM    5  O   UNK N   1      28.514  14.270   2.079  0.00  0.00    -0.369 OA
HETATM    6  C   UNK N   1      30.596  13.968   3.422  0.00  0.00     0.040 C 
HETATM    7  C   UNK N   1      30.759  14.374   4.887  0.00  0.00     0.004 C 
HETATM    8  C   UNK N   1      32.130  14.949   5.207  0.00  0.00     0.007 C 
HETATM    9  C   UNK N   1      32.179  16.469   5.082  0.00  0.00     0.011 C 
HETATM   10  C   UNK N   1      32.899  17.027   6.333  0.00  0.00     0.133 C 
HETATM   11  C   UNK N   1      32.028  17.774   7.382  0.00  0.00     0.089 C 
HETATM   12  C   UNK N   1      30.751  17.078   7.837  0.00  0.00     0.144 C 
HETATM   13  O   UNK N   1      30.483  15.968   7.405  0.00  0.00    -0.297 OA
HETATM   14  C   UNK N   1      29.823  17.687   8.891  0.00  0.00     0.040 C 
HETATM   15  C   UNK N   1      28.361  17.713   8.401  0.00  0.00     0.142 C 
HETATM   16  C   UNK N   1      28.129  18.727   7.275  0.00  0.00     0.144 C 
HETATM   17  C   UNK N   1      27.610  18.076   6.033  0.00  0.00     0.262 C 
HETATM   18  O   UNK N   1      27.055  18.758   5.185  0.00  0.00    -0.265 OA
HETATM   19  O   UNK N   1      27.708  16.729   5.891  0.00  0.00    -0.311 OA
HETATM   20  C   UNK N   1      30.218  19.098   9.316  0.00  0.00     0.026 C 
HETATM   21  C   UNK N   1      29.919  16.797  10.122  0.00  0.00     0.026 C 
HETATM   22  C   UNK N   1      32.928  16.774   3.788  0.00  0.00     0.012 C 
HETATM   23  C   UNK N   1      29.992  16.160   2.096  0.00  0.00     0.049 C 
ENDROOT
BRANCH   1  24
HETATM   24  C   UNK N   1      25.528  15.931   5.166  0.00  0.00    -0.026 A 
HETATM   25  C   UNK N   1      24.678  16.524   4.216  0.00  0.00     0.040 A 
HETATM   26  C   UNK N   1      23.309  16.543   4.461  0.00  0.00     0.050 A 
HETATM   27  N   UNK N   1      22.382  17.095   3.616  0.00  0.00    -0.353 N 
HETATM   28  C   UNK N   1      22.807  15.982   5.635  0.00  0.00     0.033 A 
HETATM   29  C   UNK N   1      21.120  16.971   4.122  0.00  0.00     0.048 A 
ATOM     30  HN  UNK N   1      22.605  17.540   2.727  1.00  0.00     0.166 HD
HETATM   31  C   UNK N   1      19.899  17.468   3.443  0.00  0.00     0.076 C 
HETATM   32  S   UNK N   1      21.174  16.192   5.588  0.00  0.00    -0.075 SA
HETATM   33  C   UNK N   1      23.614  15.395   6.594  0.00  0.00     0.022 A 
HETATM   34  C   UNK N   1      24.995  15.380   6.355  0.00  0.00     0.011 A 
ENDBRANCH   1  24
BRANCH  15  35
HETATM   35  O   UNK N   1      27.481  17.992   9.453  0.00  0.00    -0.394 OA
HETATM   36  H   UNK N   1      27.740  17.830  10.374  0.00  0.00     0.210 HD
ENDBRANCH  15  35
BRANCH  11  37
HETATM   37  C   UNK N   1      32.913  17.955   8.616  0.00  0.00     0.041 C 
BRANCH  37  38
HETATM   38  C   UNK N   1      33.548  16.672   9.033  0.00  0.00    -0.036 C 
HETATM   39  C   UNK N   1      34.736  16.689   9.632  0.00  0.00     0.007 C 
ENDBRANCH  37  38
ENDBRANCH  11  37
BRANCH  10  40
HETATM   40  O   UNK N   1      34.000  17.825   5.993  0.00  0.00    -0.394 OA
HETATM   41  H   UNK N   1      34.946  17.619   5.945  0.00  0.00     0.210 HD
ENDBRANCH  10  40
TORSDOF 5
ENDMDL
MODEL 2
REMARK VINA RESULT:      -8.5     12.242     15.506
REMARK  5 active torsions:
REMARK  status: ('A' for Active; 'I' for Inactive)
REMARK    1  A    between atoms: C_12  and  C_7 
REMARK    2  A    between atoms: C_21  and  O_37 
REMARK    3  A    between atoms: C_22  and  C_34 
REMARK    4  A    between atoms: C_26  and  O_31 
REMARK    5  A    between atoms: C_34  and  C_35 
ROOT
HETATM    1  C   UNK N   1      31.871  21.369  -6.088  0.00  0.00     0.167 C 
HETATM    2  C   UNK N   1      31.452  20.073  -6.760  0.00  0.00     0.072 C 
HETATM    3  C   UNK N   1      31.323  20.483  -8.214  0.00  0.00     0.159 A 
HETATM    4  C   UNK N   1      30.036  20.010  -8.775  0.00  0.00     0.084 A 
HETATM    5  O   UNK N   1      31.266  19.437  -9.158  0.00  0.00    -0.369 OA
HETATM    6  C   UNK N   1      29.426  21.029  -9.716  0.00  0.00     0.040 C 
HETATM    7  C   UNK N   1      29.062  22.268  -8.897  0.00  0.00     0.004 C 
HETATM    8  C   UNK N   1      27.565  22.521  -8.814  0.00  0.00     0.007 C 
HETATM    9  C   UNK N   1      26.923  21.878  -7.587  0.00  0.00     0.011 C 
HETATM   10  C   UNK N   1      25.995  22.928  -6.930  0.00  0.00     0.133 C 
HETATM   11  C   UNK N   1      26.461  23.544  -5.580  0.00  0.00     0.089 C 
HETATM   12  C   UNK N   1      27.891  24.065  -5.518  0.00  0.00     0.144 C 
HETATM   13  O   UNK N   1      28.593  24.020  -6.517  0.00  0.00    -0.297 OA
HETATM   14  C   UNK N   1      28.464  24.726  -4.262  0.00  0.00     0.040 C 
HETATM   15  C   UNK N   1      29.813  24.095  -3.864  0.00  0.00     0.142 C 
HETATM   16  C   UNK N   1      29.666  22.667  -3.325  0.00  0.00     0.144 C 
HETATM   17  C   UNK N   1      30.445  21.681  -4.135  0.00  0.00     0.262 C 
HETATM   18  O   UNK N   1      30.716  20.591  -3.654  0.00  0.00    -0.265 OA
HETATM   19  O   UNK N   1      30.893  22.031  -5.368  0.00  0.00    -0.311 OA
HETATM   20  C   UNK N   1      27.527  24.673  -3.059  0.00  0.00     0.026 C 
HETATM   21  C   UNK N   1      28.683  26.193  -4.604  0.00  0.00     0.026 C 
HETATM   22  C   UNK N   1      26.162  20.653  -8.087  0.00  0.00     0.012 C 
HETATM   23  C   UNK N   1      29.161  18.960  -8.109  0.00  0.00     0.049 C 
ENDROOT
BRANCH   1  24
HETATM   24  C   UNK N   1      33.236  21.388  -5.481  0.00  0.00    -0.026 A 
HETATM   25  C   UNK N   1      34.022  22.553  -5.540  0.00  0.00     0.040 A 
HETATM   26  C   UNK N   1      35.316  22.515  -5.031  0.00  0.00     0.050 A 
HETATM   27  N   UNK N   1      36.179  23.579  -5.035  0.00  0.00    -0.353 N 
HETATM   28  C   UNK N   1      35.808  21.333  -4.478  0.00  0.00     0.033 A 
HETATM   29  C   UNK N   1      37.378  23.244  -4.476  0.00  0.00     0.048 A 
ATOM     30  HN  UNK N   1      35.955  24.501  -5.408  1.00  0.00     0.166 HD
HETATM   31  C   UNK N   1      38.521  24.178  -4.334  0.00  0.00     0.076 C 
HETATM   32  S   UNK N   1      37.349  21.654  -3.992  0.00  0.00    -0.075 SA
HETATM   33  C   UNK N   1      35.065  20.167  -4.407  0.00  0.00     0.022 A 
HETATM   34  C   UNK N   1      33.763  20.199  -4.926  0.00  0.00     0.011 A 
ENDBRANCH   1  24
BRANCH  15  35
HETATM   35  O   UNK N   1      30.472  24.876  -2.906  0.00  0.00    -0.394 OA
HETATM   36  H   UNK N   1      30.138  24.934  -1.997  0.00  0.00     0.210 HD
ENDBRANCH  15  35
BRANCH  11  37
HETATM   37  C   UNK N   1      25.532  24.728  -5.312  0.00  0.00     0.041 C 
BRANCH  37  38
HETATM   38  C   UNK N   1      25.588  25.734  -6.412  0.00  0.00    -0.036 C 
HETATM   39  C   UNK N   1      25.235  26.994  -6.171  0.00  0.00     0.007 C 
ENDBRANCH  37  38
ENDBRANCH  11  37
BRANCH  10  40
HETATM   40  O   UNK N   1      24.682  22.458  -6.796  0.00  0.00    -0.394 OA
HETATM   41  H   UNK N   1      23.855  22.925  -6.600  0.00  0.00     0.210 HD
ENDBRANCH  10  40
TORSDOF 5
ENDMDL
MODEL 3
REMARK VINA RESULT:      -8.0      1.667      2.307
REMARK  5 active torsions:
REMARK  status: ('A' for Active; 'I' for Inactive)
REMARK    1  A    between atoms: C_12  and  C_7 
REMARK    2  A    between atoms: C_21  and  O_37 
REMARK    3  A    between atoms: C_22  and  C_34 
REMARK    4  A    between atoms: C_26  and  O_31 
REMARK    5  A    between atoms: C_34  and  C_35 
ROOT
HETATM    1  C   UNK N   1      26.893  15.093   5.470  0.00  0.00     0.167 C 
HETATM    2  C   UNK N   1      27.129  15.096   3.970  0.00  0.00     0.072 C 
HETATM    3  C   UNK N   1      27.973  13.853   3.768  0.00  0.00     0.159 A 
HETATM    4  C   UNK N   1      29.159  14.160   2.935  0.00  0.00     0.084 A 
HETATM    5  O   UNK N   1      28.090  13.384   2.444  0.00  0.00    -0.369 OA
HETATM    6  C   UNK N   1      30.389  13.417   3.415  0.00  0.00     0.040 C 
HETATM    7  C   UNK N   1      30.744  13.942   4.807  0.00  0.00     0.004 C 
HETATM    8  C   UNK N   1      32.066  14.692   4.853  0.00  0.00     0.007 C 
HETATM    9  C   UNK N   1      31.903  16.195   4.645  0.00  0.00     0.011 C 
HETATM   10  C   UNK N   1      32.747  16.919   5.720  0.00  0.00     0.133 C 
HETATM   11  C   UNK N   1      31.978  17.634   6.867  0.00  0.00     0.089 C 
HETATM   12  C   UNK N   1      30.893  16.831   7.573  0.00  0.00     0.144 C 
HETATM   13  O   UNK N   1      30.696  15.670   7.250  0.00  0.00    -0.297 OA
HETATM   14  C   UNK N   1      30.085  17.403   8.741  0.00  0.00     0.040 C 
HETATM   15  C   UNK N   1      28.571  17.226   8.513  0.00  0.00     0.142 C 
HETATM   16  C   UNK N   1      28.027  18.125   7.396  0.00  0.00     0.144 C 
HETATM   17  C   UNK N   1      27.394  17.332   6.299  0.00  0.00     0.262 C 
HETATM   18  O   UNK N   1      26.623  17.885   5.527  0.00  0.00    -0.265 OA
HETATM   19  O   UNK N   1      27.634  15.999   6.210  0.00  0.00    -0.311 OA
HETATM   20  C   UNK N   1      30.366  18.877   9.019  0.00  0.00     0.026 C 
HETATM   21  C   UNK N   1      30.497  16.620   9.979  0.00  0.00     0.026 C 
HETATM   22  C   UNK N   1      32.381  16.491   3.225  0.00  0.00     0.012 C 
HETATM   23  C   UNK N   1      29.302  15.426   2.106  0.00  0.00     0.049 C 
ENDROOT
BRANCH   1  24
HETATM   24  C   UNK N   1      25.481  14.907   5.918  0.00  0.00    -0.026 A 
HETATM   25  C   UNK N   1      25.202  14.284   7.148  0.00  0.00     0.040 A 
HETATM   26  C   UNK N   1      23.877  14.059   7.501  0.00  0.00     0.050 A 
HETATM   27  N   UNK N   1      23.479  13.457   8.666  0.00  0.00    -0.353 N 
HETATM   28  C   UNK N   1      22.854  14.448   6.637  0.00  0.00     0.033 A 
HETATM   29  C   UNK N   1      22.119  13.367   8.735  0.00  0.00     0.048 A 
ATOM     30  HN  UNK N   1      24.116  13.121   9.388  1.00  0.00     0.166 HD
HETATM   31  C   UNK N   1      21.381  12.765   9.873  0.00  0.00     0.076 C 
HETATM   32  S   UNK N   1      21.440  14.024   7.369  0.00  0.00    -0.075 SA
HETATM   33  C   UNK N   1      23.090  15.059   5.417  0.00  0.00     0.022 A 
HETATM   34  C   UNK N   1      24.426  15.282   5.054  0.00  0.00     0.011 A 
ENDBRANCH   1  24
BRANCH  15  35
HETATM   35  O   UNK N   1      27.851  17.477   9.688  0.00  0.00    -0.394 OA
HETATM   36  H   UNK N   1      27.388  16.760  10.149  0.00  0.00     0.210 HD
ENDBRANCH  15  35
BRANCH  11  37
HETATM   37  C   UNK N   1      33.027  18.003   7.916  0.00  0.00     0.041 C 
BRANCH  37  38
HETATM   38  C   UNK N   1      33.875  16.832   8.283  0.00  0.00    -0.036 C 
HETATM   39  C   UNK N   1      34.413  16.764   9.499  0.00  0.00     0.007 C 
ENDBRANCH  37  38
ENDBRANCH  11  37
BRANCH  10  40
HETATM   40  O   UNK N   1      33.667  17.812   5.154  0.00  0.00    -0.394 OA
HETATM   41  H   UNK N   1      33.615  18.768   4.998  0.00  0.00     0.210 HD
ENDBRANCH  10  40
TORSDOF 5
ENDMDL
MODEL 4
REMARK VINA RESULT:      -7.7      4.094      8.968
REMARK  5 active torsions:
REMARK  status: ('A' for Active; 'I' for Inactive)
REMARK    1  A    between atoms: C_12  and  C_7 
REMARK    2  A    between atoms: C_21  and  O_37 
REMARK    3  A    between atoms: C_22  and  C_34 
REMARK    4  A    between atoms: C_26  and  O_31 
REMARK    5  A    between atoms: C_34  and  C_35 
ROOT
HETATM    1  C   UNK N   1      31.158  16.244   7.254  0.00  0.00     0.167 C 
HETATM    2  C   UNK N   1      30.379  17.546   7.181  0.00  0.00     0.072 C 
HETATM    3  C   UNK N   1      29.048  17.167   7.800  0.00  0.00     0.159 A 
HETATM    4  C   UNK N   1      27.929  17.625   6.944  0.00  0.00     0.084 A 
HETATM    5  O   UNK N   1      28.210  18.234   8.184  0.00  0.00    -0.369 OA
HETATM    6  C   UNK N   1      26.799  16.616   6.910  0.00  0.00     0.040 C 
HETATM    7  C   UNK N   1      27.319  15.350   6.227  0.00  0.00     0.004 C 
HETATM    8  C   UNK N   1      26.649  15.062   4.892  0.00  0.00     0.007 C 
HETATM    9  C   UNK N   1      27.404  15.661   3.709  0.00  0.00     0.011 C 
HETATM   10  C   UNK N   1      27.507  14.576   2.611  0.00  0.00     0.133 C 
HETATM   11  C   UNK N   1      28.904  13.939   2.368  0.00  0.00     0.089 C 
HETATM   12  C   UNK N   1      29.660  13.448   3.597  0.00  0.00     0.144 C 
HETATM   13  O   UNK N   1      29.139  13.532   4.698  0.00  0.00    -0.297 OA
HETATM   14  C   UNK N   1      31.029  12.770   3.494  0.00  0.00     0.040 C 
HETATM   15  C   UNK N   1      32.048  13.421   4.450  0.00  0.00     0.142 C 
HETATM   16  C   UNK N   1      32.457  14.832   4.013  0.00  0.00     0.144 C 
HETATM   17  C   UNK N   1      32.148  15.854   5.059  0.00  0.00     0.262 C 
HETATM   18  O   UNK N   1      32.710  16.938   5.024  0.00  0.00    -0.265 OA
HETATM   19  O   UNK N   1      31.294  15.543   6.068  0.00  0.00    -0.311 OA
HETATM   20  C   UNK N   1      31.612  12.773   2.085  0.00  0.00     0.026 C 
HETATM   21  C   UNK N   1      30.825  11.316   3.899  0.00  0.00     0.026 C 
HETATM   22  C   UNK N   1      26.606  16.881   3.257  0.00  0.00     0.012 C 
HETATM   23  C   UNK N   1      28.085  18.639   5.823  0.00  0.00     0.049 C 
ENDROOT
BRANCH   1  24
HETATM   24  C   UNK N   1      32.360  16.240   8.140  0.00  0.00    -0.026 A 
HETATM   25  C   UNK N   1      32.556  15.199   9.066  0.00  0.00     0.040 A 
HETATM   26  C   UNK N   1      33.646  15.264   9.927  0.00  0.00     0.050 A 
HETATM   27  N   UNK N   1      33.940  14.318  10.873  0.00  0.00    -0.353 N 
HETATM   28  C   UNK N   1      34.517  16.351   9.861  0.00  0.00     0.033 A 
HETATM   29  C   UNK N   1      35.063  14.652  11.573  0.00  0.00     0.048 A 
ATOM     30  HN  UNK N   1      33.391  13.474  11.035  1.00  0.00     0.166 HD
HETATM   31  C   UNK N   1      35.639  13.831  12.665  0.00  0.00     0.076 C 
HETATM   32  S   UNK N   1      35.665  16.097  11.015  0.00  0.00    -0.075 SA
HETATM   33  C   UNK N   1      34.353  17.395   8.967  0.00  0.00     0.022 A 
HETATM   34  C   UNK N   1      33.251  17.338   8.102  0.00  0.00     0.011 A 
ENDBRANCH   1  24
BRANCH  15  35
HETATM   35  O   UNK N   1      33.198  12.632   4.574  0.00  0.00    -0.394 OA
HETATM   36  H   UNK N   1      34.077  13.006   4.408  0.00  0.00     0.210 HD
ENDBRANCH  15  35
BRANCH  11  37
HETATM   37  C   UNK N   1      28.667  12.728   1.465  0.00  0.00     0.041 C 
BRANCH  37  38
HETATM   38  C   UNK N   1      27.649  11.802   2.040  0.00  0.00    -0.036 C 
HETATM   39  C   UNK N   1      26.744  11.240   1.242  0.00  0.00     0.007 C 
ENDBRANCH  37  38
ENDBRANCH  11  37
BRANCH  10  40
HETATM   40  O   UNK N   1      26.979  15.013   1.389  0.00  0.00    -0.394 OA
HETATM   41  H   UNK N   1      26.918  15.900   1.002  0.00  0.00     0.210 HD
ENDBRANCH  10  40
TORSDOF 5
ENDMDL
MODEL 5
REMARK VINA RESULT:      -7.7      4.244      9.249
REMARK  5 active torsions:
REMARK  status: ('A' for Active; 'I' for Inactive)
REMARK    1  A    between atoms: C_12  and  C_7 
REMARK    2  A    between atoms: C_21  and  O_37 
REMARK    3  A    between atoms: C_22  and  C_34 
REMARK    4  A    between atoms: C_26  and  O_31 
REMARK    5  A    between atoms: C_34  and  C_35 
ROOT
HETATM    1  C   UNK N   1      26.199  13.916   3.201  0.00  0.00     0.167 C 
HETATM    2  C   UNK N   1      25.799  12.474   2.939  0.00  0.00     0.072 C 
HETATM    3  C   UNK N   1      25.459  12.491   1.462  0.00  0.00     0.159 A 
HETATM    4  C   UNK N   1      24.152  11.835   1.222  0.00  0.00     0.084 A 
HETATM    5  O   UNK N   1      25.365  11.236   0.827  0.00  0.00    -0.369 OA
HETATM    6  C   UNK N   1      23.353  12.551   0.152  0.00  0.00     0.040 C 
HETATM    7  C   UNK N   1      23.001  13.943   0.678  0.00  0.00     0.004 C 
HETATM    8  C   UNK N   1      21.511  14.145   0.905  0.00  0.00     0.007 C 
HETATM    9  C   UNK N   1      21.077  13.814   2.331  0.00  0.00     0.011 C 
HETATM   10  C   UNK N   1      20.162  14.958   2.828  0.00  0.00     0.133 C 
HETATM   11  C   UNK N   1      20.744  15.919   3.903  0.00  0.00     0.089 C 
HETATM   12  C   UNK N   1      22.127  16.498   3.632  0.00  0.00     0.144 C 
HETATM   13  O   UNK N   1      22.700  16.228   2.588  0.00  0.00    -0.297 OA
HETATM   14  C   UNK N   1      22.799  17.484   4.590  0.00  0.00     0.040 C 
HETATM   15  C   UNK N   1      24.232  17.035   4.941  0.00  0.00     0.142 C 
HETATM   16  C   UNK N   1      24.263  15.789   5.834  0.00  0.00     0.144 C 
HETATM   17  C   UNK N   1      25.007  14.661   5.195  0.00  0.00     0.262 C 
HETATM   18  O   UNK N   1      25.418  13.743   5.890  0.00  0.00    -0.265 OA
HETATM   19  O   UNK N   1      25.270  14.700   3.863  0.00  0.00    -0.311 OA
HETATM   20  C   UNK N   1      22.027  17.704   5.888  0.00  0.00     0.026 C 
HETATM   21  C   UNK N   1      22.861  18.822   3.865  0.00  0.00     0.026 C 
HETATM   22  C   UNK N   1      20.356  12.471   2.264  0.00  0.00     0.012 C 
HETATM   23  C   UNK N   1      23.449  10.957   2.245  0.00  0.00     0.049 C 
ENDROOT
BRANCH   1  24
HETATM   24  C   UNK N   1      27.623  14.149   3.587  0.00  0.00    -0.026 A 
HETATM   25  C   UNK N   1      28.242  15.380   3.307  0.00  0.00     0.040 A 
HETATM   26  C   UNK N   1      29.589  15.538   3.612  0.00  0.00     0.050 A 
HETATM   27  N   UNK N   1      30.304  16.684   3.383  0.00  0.00    -0.353 N 
HETATM   28  C   UNK N   1      30.299  14.481   4.183  0.00  0.00     0.033 A 
HETATM   29  C   UNK N   1      31.603  16.543   3.778  0.00  0.00     0.048 A 
ATOM     30  HN  UNK N   1      29.917  17.532   2.970  1.00  0.00     0.166 HD
HETATM   31  C   UNK N   1      32.629  17.607   3.660  0.00  0.00     0.076 C 
HETATM   32  S   UNK N   1      31.841  15.019   4.396  0.00  0.00    -0.075 SA
HETATM   33  C   UNK N   1      29.724  13.255   4.468  0.00  0.00     0.022 A 
HETATM   34  C   UNK N   1      28.367  13.089   4.156  0.00  0.00     0.011 A 
ENDBRANCH   1  24
BRANCH  15  35
HETATM   35  O   UNK N   1      24.943  18.063   5.571  0.00  0.00    -0.394 OA
HETATM   36  H   UNK N   1      25.911  18.032   5.631  0.00  0.00     0.210 HD
ENDBRANCH  15  35
BRANCH  11  37
HETATM   37  C   UNK N   1      19.768  17.093   3.994  0.00  0.00     0.041 C 
BRANCH  37  38
HETATM   38  C   UNK N   1      19.618  17.789   2.684  0.00  0.00    -0.036 C 
HETATM   39  C   UNK N   1      19.509  19.115   2.652  0.00  0.00     0.007 C 
ENDBRANCH  37  38
ENDBRANCH  11  37
BRANCH  10  40
HETATM   40  O   UNK N   1      18.915  14.484   3.258  0.00  0.00    -0.394 OA
HETATM   41  H   UNK N   1      18.387  14.700   4.042  0.00  0.00     0.210 HD
ENDBRANCH  10  40
TORSDOF 5
ENDMDL
MODEL 6
REMARK VINA RESULT:      -7.6      4.034      6.215
REMARK  5 active torsions:
REMARK  status: ('A' for Active; 'I' for Inactive)
REMARK    1  A    between atoms: C_12  and  C_7 
REMARK    2  A    between atoms: C_21  and  O_37 
REMARK    3  A    between atoms: C_22  and  C_34 
REMARK    4  A    between atoms: C_26  and  O_31 
REMARK    5  A    between atoms: C_34  and  C_35 
ROOT
HETATM    1  C   UNK N   1      32.366  15.439   5.622  0.00  0.00     0.167 C 
HETATM    2  C   UNK N   1      32.870  15.378   4.191  0.00  0.00     0.072 C 
HETATM    3  C   UNK N   1      32.623  13.929   3.817  0.00  0.00     0.159 A 
HETATM    4  C   UNK N   1      33.832  13.338   3.200  0.00  0.00     0.084 A 
HETATM    5  O   UNK N   1      32.677  13.618   2.443  0.00  0.00    -0.369 OA
HETATM    6  C   UNK N   1      34.041  11.902   3.637  0.00  0.00     0.040 C 
HETATM    7  C   UNK N   1      34.331  11.904   5.139  0.00  0.00     0.004 C 
HETATM    8  C   UNK N   1      35.742  11.453   5.484  0.00  0.00     0.007 C 
HETATM    9  C   UNK N   1      36.727  12.614   5.587  0.00  0.00     0.011 C 
HETATM   10  C   UNK N   1      37.560  12.419   6.876  0.00  0.00     0.133 C 
HETATM   11  C   UNK N   1      37.275  13.384   8.061  0.00  0.00     0.089 C 
HETATM   12  C   UNK N   1      35.816  13.573   8.459  0.00  0.00     0.144 C 
HETATM   13  O   UNK N   1      34.946  12.944   7.877  0.00  0.00    -0.297 OA
HETATM   14  C   UNK N   1      35.400  14.466   9.631  0.00  0.00     0.040 C 
HETATM   15  C   UNK N   1      34.300  15.461   9.211  0.00  0.00     0.142 C 
HETATM   16  C   UNK N   1      34.812  16.550   8.262  0.00  0.00     0.144 C 
HETATM   17  C   UNK N   1      34.079  16.547   6.959  0.00  0.00     0.262 C 
HETATM   18  O   UNK N   1      34.117  17.540   6.247  0.00  0.00    -0.265 OA
HETATM   19  O   UNK N   1      33.333  15.467   6.613  0.00  0.00    -0.311 OA
HETATM   20  C   UNK N   1      36.556  15.250  10.246  0.00  0.00     0.026 C 
HETATM   21  C   UNK N   1      34.851  13.542  10.709  0.00  0.00     0.026 C 
HETATM   22  C   UNK N   1      37.581  12.572   4.323  0.00  0.00     0.012 C 
HETATM   23  C   UNK N   1      35.002  14.159   2.682  0.00  0.00     0.049 C 
ENDROOT
BRANCH   1  24
HETATM   24  C   UNK N   1      31.175  16.305   5.868  0.00  0.00    -0.026 A 
HETATM   25  C   UNK N   1      30.567  16.996   4.804  0.00  0.00     0.040 A 
HETATM   26  C   UNK N   1      29.506  17.851   5.078  0.00  0.00     0.050 A 
HETATM   27  N   UNK N   1      28.838  18.582   4.131  0.00  0.00    -0.353 N 
HETATM   28  C   UNK N   1      29.068  18.012   6.393  0.00  0.00     0.033 A 
HETATM   29  C   UNK N   1      27.850  19.335   4.695  0.00  0.00     0.048 A 
ATOM     30  HN  UNK N   1      29.051  18.565   3.134  1.00  0.00     0.166 HD
HETATM   31  C   UNK N   1      26.949  20.233   3.933  0.00  0.00     0.076 C 
HETATM   32  S   UNK N   1      27.821  19.088   6.338  0.00  0.00    -0.075 SA
HETATM   33  C   UNK N   1      29.644  17.354   7.465  0.00  0.00     0.022 A 
HETATM   34  C   UNK N   1      30.719  16.495   7.194  0.00  0.00     0.011 A 
ENDBRANCH   1  24
BRANCH  15  35
HETATM   35  O   UNK N   1      33.718  16.071  10.330  0.00  0.00    -0.394 OA
HETATM   36  H   UNK N   1      32.830  15.818  10.627  0.00  0.00     0.210 HD
ENDBRANCH  15  35
BRANCH  11  37
HETATM   37  C   UNK N   1      38.005  12.799   9.270  0.00  0.00     0.041 C 
BRANCH  37  38
HETATM   38  C   UNK N   1      37.601  11.387   9.529  0.00  0.00    -0.036 C 
HETATM   39  C   UNK N   1      37.508  10.948  10.782  0.00  0.00     0.007 C 
ENDBRANCH  37  38
ENDBRANCH  11  37
BRANCH  10  40
HETATM   40  O   UNK N   1      38.937  12.402   6.614  0.00  0.00    -0.394 OA
HETATM   41  H   UNK N   1      39.463  11.866   6.002  0.00  0.00     0.210 HD
ENDBRANCH  10  40
TORSDOF 5
ENDMDL
MODEL 7
REMARK VINA RESULT:      -7.4      6.340     10.468
REMARK  5 active torsions:
REMARK  status: ('A' for Active; 'I' for Inactive)
REMARK    1  A    between atoms: C_12  and  C_7 
REMARK    2  A    between atoms: C_21  and  O_37 
REMARK    3  A    between atoms: C_22  and  C_34 
REMARK    4  A    between atoms: C_26  and  O_31 
REMARK    5  A    between atoms: C_34  and  C_35 
ROOT
HETATM    1  C   UNK N   1      35.937  12.673   9.342  0.00  0.00     0.167 C 
HETATM    2  C   UNK N   1      36.156  11.326   8.675  0.00  0.00     0.072 C 
HETATM    3  C   UNK N   1      37.470  11.530   7.946  0.00  0.00     0.159 A 
HETATM    4  C   UNK N   1      37.361  11.072   6.542  0.00  0.00     0.084 A 
HETATM    5  O   UNK N   1      38.122  10.365   7.494  0.00  0.00    -0.369 OA
HETATM    6  C   UNK N   1      38.112  11.984   5.594  0.00  0.00     0.040 C 
HETATM    7  C   UNK N   1      37.428  13.351   5.613  0.00  0.00     0.004 C 
HETATM    8  C   UNK N   1      36.771  13.718   4.291  0.00  0.00     0.007 C 
HETATM    9  C   UNK N   1      35.302  13.306   4.224  0.00  0.00     0.011 C 
HETATM   10  C   UNK N   1      34.498  14.503   3.663  0.00  0.00     0.133 C 
HETATM   11  C   UNK N   1      33.582  15.273   4.656  0.00  0.00     0.089 C 
HETATM   12  C   UNK N   1      34.205  15.696   5.980  0.00  0.00     0.144 C 
HETATM   13  O   UNK N   1      35.384  15.458   6.195  0.00  0.00    -0.297 OA
HETATM   14  C   UNK N   1      33.425  16.490   7.032  0.00  0.00     0.040 C 
HETATM   15  C   UNK N   1      33.528  15.831   8.421  0.00  0.00     0.142 C 
HETATM   16  C   UNK N   1      32.756  14.510   8.511  0.00  0.00     0.144 C 
HETATM   17  C   UNK N   1      33.646  13.365   8.873  0.00  0.00     0.262 C 
HETATM   18  O   UNK N   1      33.153  12.339   9.319  0.00  0.00    -0.265 OA
HETATM   19  O   UNK N   1      34.992  13.501   8.761  0.00  0.00    -0.311 OA
HETATM   20  C   UNK N   1      31.950  16.678   6.690  0.00  0.00     0.026 C 
HETATM   21  C   UNK N   1      34.059  17.874   7.089  0.00  0.00     0.026 C 
HETATM   22  C   UNK N   1      35.236  12.078   3.321  0.00  0.00     0.012 C 
HETATM   23  C   UNK N   1      36.232  10.194   6.026  0.00  0.00     0.049 C 
ENDROOT
BRANCH   1  24
HETATM   24  C   UNK N   1      35.964  12.685  10.836  0.00  0.00    -0.026 A 
HETATM   25  C   UNK N   1      36.376  13.837  11.529  0.00  0.00     0.040 A 
HETATM   26  C   UNK N   1      36.460  13.791  12.916  0.00  0.00     0.050 A 
HETATM   27  N   UNK N   1      36.853  14.842  13.702  0.00  0.00    -0.353 N 
HETATM   28  C   UNK N   1      36.142  12.612  13.591  0.00  0.00     0.033 A 
HETATM   29  C   UNK N   1      36.845  14.501  15.023  0.00  0.00     0.048 A 
ATOM     30  HN  UNK N   1      37.116  15.761  13.346  1.00  0.00     0.166 HD
HETATM   31  C   UNK N   1      37.221  15.422  16.123  0.00  0.00     0.076 C 
HETATM   32  S   UNK N   1      36.361  12.921  15.194  0.00  0.00    -0.075 SA
HETATM   33  C   UNK N   1      35.738  11.458  12.942  0.00  0.00     0.022 A 
HETATM   34  C   UNK N   1      35.658  11.498  11.542  0.00  0.00     0.011 A 
ENDBRANCH   1  24
BRANCH  15  35
HETATM   35  O   UNK N   1      33.071  16.694   9.424  0.00  0.00    -0.394 OA
HETATM   36  H   UNK N   1      33.441  16.654  10.320  0.00  0.00     0.210 HD
ENDBRANCH  15  35
BRANCH  11  37
HETATM   37  C   UNK N   1      33.146  16.546   3.930  0.00  0.00     0.041 C 
BRANCH  37  38
HETATM   38  C   UNK N   1      31.943  16.313   3.081  0.00  0.00    -0.036 C 
HETATM   39  C   UNK N   1      30.788  16.892   3.402  0.00  0.00     0.007 C 
ENDBRANCH  37  38
ENDBRANCH  11  37
BRANCH  10  40
HETATM   40  O   UNK N   1      33.755  14.151   2.528  0.00  0.00    -0.394 OA
HETATM   41  H   UNK N   1      33.049  14.620   2.058  0.00  0.00     0.210 HD
ENDBRANCH  10  40
TORSDOF 5
ENDMDL
MODEL 8
REMARK VINA RESULT:      -7.3      6.293     10.476
REMARK  5 active torsions:
REMARK  status: ('A' for Active; 'I' for Inactive)
REMARK    1  A    between atoms: C_12  and  C_7 
REMARK    2  A    between atoms: C_21  and  O_37 
REMARK    3  A    between atoms: C_22  and  C_34 
REMARK    4  A    between atoms: C_26  and  O_31 
REMARK    5  A    between atoms: C_34  and  C_35 
ROOT
HETATM    1  C   UNK N   1      34.209  14.314   9.242  0.00  0.00     0.167 C 
HETATM    2  C   UNK N   1      34.344  15.783   8.882  0.00  0.00     0.072 C 
HETATM    3  C   UNK N   1      32.899  16.222   8.748  0.00  0.00     0.159 A 
HETATM    4  C   UNK N   1      32.699  16.972   7.486  0.00  0.00     0.084 A 
HETATM    5  O   UNK N   1      32.665  17.612   8.741  0.00  0.00    -0.369 OA
HETATM    6  C   UNK N   1      31.369  16.642   6.841  0.00  0.00     0.040 C 
HETATM    7  C   UNK N   1      31.400  15.173   6.420  0.00  0.00     0.004 C 
HETATM    8  C   UNK N   1      31.359  14.973   4.913  0.00  0.00     0.007 C 
HETATM    9  C   UNK N   1      32.748  14.882   4.288  0.00  0.00     0.011 C 
HETATM   10  C   UNK N   1      32.754  13.680   3.314  0.00  0.00     0.133 C 
HETATM   11  C   UNK N   1      33.555  12.419   3.743  0.00  0.00     0.089 C 
HETATM   12  C   UNK N   1      33.306  11.891   5.150  0.00  0.00     0.144 C 
HETATM   13  O   UNK N   1      32.476  12.437   5.861  0.00  0.00    -0.297 OA
HETATM   14  C   UNK N   1      34.002  10.637   5.685  0.00  0.00     0.040 C 
HETATM   15  C   UNK N   1      34.656  10.902   7.056  0.00  0.00     0.142 C 
HETATM   16  C   UNK N   1      35.879  11.823   6.964  0.00  0.00     0.144 C 
HETATM   17  C   UNK N   1      35.712  13.058   7.789  0.00  0.00     0.262 C 
HETATM   18  O   UNK N   1      36.699  13.709   8.101  0.00  0.00    -0.265 OA
HETATM   19  O   UNK N   1      34.477  13.407   8.232  0.00  0.00    -0.311 OA
HETATM   20  C   UNK N   1      35.060  10.072   4.742  0.00  0.00     0.026 C 
HETATM   21  C   UNK N   1      32.923   9.575   5.846  0.00  0.00     0.026 C 
HETATM   22  C   UNK N   1      32.996  16.212   3.583  0.00  0.00     0.012 C 
HETATM   23  C   UNK N   1      33.838  17.534   6.650  0.00  0.00     0.049 C 
ENDROOT
BRANCH   1  24
HETATM   24  C   UNK N   1      34.690  13.918  10.600  0.00  0.00    -0.026 A 
HETATM   25  C   UNK N   1      35.266  14.874  11.456  0.00  0.00     0.040 A 
HETATM   26  C   UNK N   1      35.771  14.458  12.682  0.00  0.00     0.050 A 
HETATM   27  N   UNK N   1      36.359  15.291  13.598  0.00  0.00    -0.353 N 
HETATM   28  C   UNK N   1      35.702  13.112  13.040  0.00  0.00     0.033 A 
HETATM   29  C   UNK N   1      36.763  14.601  14.704  0.00  0.00     0.048 A 
ATOM     30  HN  UNK N   1      36.479  16.295  13.470  1.00  0.00     0.166 HD
HETATM   31  C   UNK N   1      37.434  15.221  15.872  0.00  0.00     0.076 C 
HETATM   32  S   UNK N   1      36.392  12.991  14.531  0.00  0.00    -0.075 SA
HETATM   33  C   UNK N   1      35.147  12.143  12.222  0.00  0.00     0.022 A 
HETATM   34  C   UNK N   1      34.643  12.556  10.980  0.00  0.00     0.011 A 
ENDBRANCH   1  24
BRANCH  15  35
HETATM   35  O   UNK N   1      35.034   9.704   7.674  0.00  0.00    -0.394 OA
HETATM   36  H   UNK N   1      34.370   9.045   7.928  0.00  0.00     0.210 HD
ENDBRANCH  15  35
BRANCH  11  37
HETATM   37  C   UNK N   1      33.161  11.312   2.764  0.00  0.00     0.041 C 
BRANCH  37  38
HETATM   38  C   UNK N   1      31.683  11.116   2.719  0.00  0.00    -0.036 C 
HETATM   39  C   UNK N   1      31.186   9.893   2.551  0.00  0.00     0.007 C 
ENDBRANCH  37  38
ENDBRANCH  11  37
BRANCH  10  40
HETATM   40  O   UNK N   1      33.140  14.055   2.020  0.00  0.00    -0.394 OA
HETATM   41  H   UNK N   1      33.879  13.762   1.465  0.00  0.00     0.210 HD
ENDBRANCH  10  40
TORSDOF 5
ENDMDL
MODEL 9
REMARK VINA RESULT:      -7.2      7.322     10.444
REMARK  5 active torsions:
REMARK  status: ('A' for Active; 'I' for Inactive)
REMARK    1  A    between atoms: C_12  and  C_7 
REMARK    2  A    between atoms: C_21  and  O_37 
REMARK    3  A    between atoms: C_22  and  C_34 
REMARK    4  A    between atoms: C_26  and  O_31 
REMARK    5  A    between atoms: C_34  and  C_35 
ROOT
HETATM    1  C   UNK N   1      34.325  12.360   9.215  0.00  0.00     0.167 C 
HETATM    2  C   UNK N   1      34.793  11.353   8.179  0.00  0.00     0.072 C 
HETATM    3  C   UNK N   1      33.733  10.272   8.268  0.00  0.00     0.159 A 
HETATM    4  C   UNK N   1      34.362   8.935   8.376  0.00  0.00     0.084 A 
HETATM    5  O   UNK N   1      33.692   9.346   7.206  0.00  0.00    -0.369 OA
HETATM    6  C   UNK N   1      33.604   8.033   9.327  0.00  0.00     0.040 C 
HETATM    7  C   UNK N   1      33.713   8.629  10.731  0.00  0.00     0.004 C 
HETATM    8  C   UNK N   1      34.510   7.765  11.696  0.00  0.00     0.007 C 
HETATM    9  C   UNK N   1      35.990   8.134  11.738  0.00  0.00     0.011 C 
HETATM   10  C   UNK N   1      36.420   8.211  13.222  0.00  0.00     0.133 C 
HETATM   11  C   UNK N   1      36.700   9.622  13.811  0.00  0.00     0.089 C 
HETATM   12  C   UNK N   1      35.645  10.693  13.564  0.00  0.00     0.144 C 
HETATM   13  O   UNK N   1      34.622  10.404  12.963  0.00  0.00    -0.297 OA
HETATM   14  C   UNK N   1      35.780  12.114  14.118  0.00  0.00     0.040 C 
HETATM   15  C   UNK N   1      35.568  13.167  13.013  0.00  0.00     0.142 C 
HETATM   16  C   UNK N   1      36.717  13.206  11.998  0.00  0.00     0.144 C 
HETATM   17  C   UNK N   1      36.244  12.932  10.607  0.00  0.00     0.262 C 
HETATM   18  O   UNK N   1      36.943  13.262   9.660  0.00  0.00    -0.265 OA
HETATM   19  O   UNK N   1      35.020  12.378  10.412  0.00  0.00    -0.311 OA
HETATM   20  C   UNK N   1      37.119  12.384  14.797  0.00  0.00     0.026 C 
HETATM   21  C   UNK N   1      34.694  12.274  15.173  0.00  0.00     0.026 C 
HETATM   22  C   UNK N   1      36.732   7.046  10.967  0.00  0.00     0.012 C 
HETATM   23  C   UNK N   1      35.826   8.665   8.065  0.00  0.00     0.049 C 
ENDROOT
BRANCH   1  24
HETATM   24  C   UNK N   1      33.909  13.698   8.697  0.00  0.00    -0.026 A 
HETATM   25  C   UNK N   1      32.920  14.441   9.365  0.00  0.00     0.040 A 
HETATM   26  C   UNK N   1      32.503  15.649   8.815  0.00  0.00     0.050 A 
HETATM   27  N   UNK N   1      31.546  16.459   9.367  0.00  0.00    -0.353 N 
HETATM   28  C   UNK N   1      33.065  16.097   7.620  0.00  0.00     0.033 A 
HETATM   29  C   UNK N   1      31.341  17.571   8.604  0.00  0.00     0.048 A 
ATOM     30  HN  UNK N   1      31.050  16.257  10.235  1.00  0.00     0.166 HD
HETATM   31  C   UNK N   1      30.368  18.640   8.935  0.00  0.00     0.076 C 
HETATM   32  S   UNK N   1      32.336  17.533   7.274  0.00  0.00    -0.075 SA
HETATM   33  C   UNK N   1      34.036  15.390   6.933  0.00  0.00     0.022 A 
HETATM   34  C   UNK N   1      34.455  14.168   7.479  0.00  0.00     0.011 A 
ENDBRANCH   1  24
BRANCH  15  35
HETATM   35  O   UNK N   1      35.401  14.446  13.559  0.00  0.00    -0.394 OA
HETATM   36  H   UNK N   1      35.847  15.214  13.170  0.00  0.00     0.210 HD
ENDBRANCH  15  35
BRANCH  11  37
HETATM   37  C   UNK N   1      36.814   9.436  15.324  0.00  0.00     0.041 C 
BRANCH  37  38
HETATM   38  C   UNK N   1      35.600   8.784  15.893  0.00  0.00    -0.036 C 
HETATM   39  C   UNK N   1      35.147   9.163  17.086  0.00  0.00     0.007 C 
ENDBRANCH  37  38
ENDBRANCH  11  37
BRANCH  10  40
HETATM   40  O   UNK N   1      37.507   7.370  13.499  0.00  0.00    -0.394 OA
HETATM   41  H   UNK N   1      37.996   7.211  14.321  0.00  0.00     0.210 HD
ENDBRANCH  10  40
TORSDOF 5
ENDMDL
