MODEL 1
REMARK VINA RESULT:      -8.9      0.000      0.000
REMARK  11 active torsions:
REMARK  status: ('A' for Active; 'I' for Inactive)
REMARK    1  A    between atoms: C_5  and  O_48 
REMARK    2  A    between atoms: C_6  and  N_8 
REMARK       I    between atoms: N_8  and  C_9 
REMARK       I    between atoms: C_9  and  N_11 
REMARK    3  A    between atoms: N_11  and  C_12 
REMARK    4  A    between atoms: C_18  and  N_22 
REMARK    5  A    between atoms: N_22  and  C_23 
REMARK    6  A    between atoms: C_26  and  O_46 
REMARK    7  A    between atoms: C_27  and  O_35 
REMARK    8  A    between atoms: O_35  and  C_36 
REMARK    9  A    between atoms: C_36  and  C_37 
REMARK   10  A    between atoms: C_37  and  C_38 
REMARK   11  A    between atoms: C_38  and  N_39 
ROOT
HETATM    1  N   UNK N   1      28.259  16.309   5.836  0.00  0.00    -0.364 N 
HETATM    2  H   UNK N   1      28.253  15.325   5.850  0.00  0.00     0.162 HD
ENDROOT
BRANCH   1   3
HETATM    3  C   UNK N   1      27.840  17.012   4.676  0.00  0.00     0.131 C 
HETATM    4  C   UNK N   1      27.373  18.303   4.991  0.00  0.00     0.004 C 
HETATM    5  C   UNK N   1      26.008  18.581   4.868  0.00  0.00     0.029 C 
HETATM    6  C   UNK N   1      25.199  17.553   4.399  0.00  0.00     0.051 A 
HETATM    7  N   UNK N   1      23.860  17.492   4.597  0.00  0.00    -0.335 N 
HETATM    8  C   UNK N   1      25.749  16.420   3.823  0.00  0.00     0.033 A 
HETATM    9  C   UNK N   1      23.357  16.283   4.215  0.00  0.00     0.153 A 
ATOM     10  HN  UNK N   1      23.299  18.253   4.981  1.00  0.00     0.168 HD
HETATM   11  S   UNK N   1      24.545  15.326   3.595  0.00  0.00    -0.052 SA
HETATM   12  C   UNK N   1      27.082  16.193   3.819  0.00  0.00     0.023 C 
BRANCH   9  13
HETATM   13  N   UNK N   1      22.039  15.921   4.531  0.00  0.00    -0.288 N 
HETATM   14  C   UNK N   1      21.819  15.682   5.832  0.00  0.00     0.326 C 
HETATM   15  N   UNK N   1      21.034  14.649   6.210  0.00  0.00    -0.306 N 
HETATM   16  O   UNK N   1      22.458  16.306   6.670  0.00  0.00    -0.247 OA
HETATM   17  H   UNK N   1      20.375  14.269   5.584  0.00  0.00     0.171 HD
HETATM   18  H   UNK N   1      21.332  15.848   3.850  0.00  0.00     0.172 HD
BRANCH  15  19
HETATM   19  C   UNK N   1      21.170  14.114   7.521  0.00  0.00     0.070 A 
HETATM   20  C   UNK N   1      20.341  14.561   8.595  0.00  0.00     0.095 A 
HETATM   21  C   UNK N   1      20.452  13.944   9.847  0.00  0.00     0.039 A 
HETATM   22  C   UNK N   1      21.373  12.917  10.044  0.00  0.00     0.009 A 
HETATM   23  C   UNK N   1      22.206  12.511   8.999  0.00  0.00    -0.060 A 
HETATM   24  C   UNK N   1      23.187  11.422   9.217  0.00  0.00     0.048 C 
HETATM   25  C   UNK N   1      22.105  13.108   7.744  0.00  0.00     0.039 A 
BRANCH  20  26
HETATM   26  O   UNK N   1      19.457  15.579   8.404  0.00  0.00    -0.354 OA
HETATM   27  C   UNK N   1      19.687  16.883   8.786  0.00  0.00     0.210 C 
ENDBRANCH  20  26
ENDBRANCH  15  19
ENDBRANCH   9  13
ENDBRANCH   1   3
BRANCH   1  28
HETATM   28  C   UNK N   1      28.692  17.043   6.986  0.00  0.00     0.115 A 
HETATM   29  C   UNK N   1      30.037  17.190   7.185  0.00  0.00     0.037 A 
HETATM   30  C   UNK N   1      30.907  16.645   6.262  0.00  0.00     0.057 A 
HETATM   31  C   UNK N   1      30.501  17.895   8.296  0.00  0.00     0.050 A 
HETATM   32  C   UNK N   1      32.259  16.858   6.362  0.00  0.00     0.102 A 
HETATM   33  C   UNK N   1      32.742  17.679   7.393  0.00  0.00     0.104 A 
HETATM   34  C   UNK N   1      31.870  18.168   8.391  0.00  0.00     0.070 A 
HETATM   35  N   UNK N   1      29.612  18.348   9.221  0.00  0.00    -0.351 N 
HETATM   36  C   UNK N   1      28.274  18.124   9.055  0.00  0.00     0.182 A 
ATOM     37  HN  UNK N   1      29.945  18.856  10.040  1.00  0.00     0.166 HD
HETATM   38  N   UNK N   1      27.816  17.490   7.933  0.00  0.00    -0.338 N 
ATOM     39  HN  UNK N   1      26.814  17.351   7.802  1.00  0.00     0.168 HD
BRANCH  32  40
HETATM   40  O   UNK N   1      33.102  16.337   5.440  0.00  0.00    -0.353 OA
HETATM   41  C   UNK N   1      33.673  15.087   5.564  0.00  0.00     0.210 C 
ENDBRANCH  32  40
BRANCH  33  42
HETATM   42  O   UNK N   1      34.019  18.086   7.344  0.00  0.00    -0.348 OA
BRANCH  42  43
HETATM   43  C   UNK N   1      34.747  18.132   8.521  0.00  0.00     0.177 C 
BRANCH  43  44
HETATM   44  C   UNK N   1      34.809  16.758   9.218  0.00  0.00     0.057 C 
BRANCH  44  45
HETATM   45  C   UNK N   1      35.313  16.873  10.655  0.00  0.00     0.274 C 
BRANCH  45  46
HETATM   46  N   UNK N   1      35.740  15.580  11.155  0.00  0.00     0.091 N 
HETATM   47  C   UNK N   1      36.651  14.990  10.178  0.00  0.00     0.302 C 
HETATM   48  C   UNK N   1      37.117  13.628  10.697  0.00  0.00     0.302 C 
HETATM   49  N   UNK N   1      35.967  12.747  10.923  0.00  0.00     0.087 N 
HETATM   50  C   UNK N   1      35.014  13.376  11.834  0.00  0.00     0.302 C 
HETATM   51  C   UNK N   1      36.464  11.565  11.600  0.00  0.00     0.310 C 
HETATM   52  C   UNK N   1      34.572  14.711  11.264  0.00  0.00     0.302 C 
ENDBRANCH  45  46
ENDBRANCH  44  45
ENDBRANCH  43  44
ENDBRANCH  42  43
ENDBRANCH  33  42
ENDBRANCH   1  28
TORSDOF 11
ENDMDL
MODEL 2
REMARK VINA RESULT:      -8.8      1.989      3.145
REMARK  11 active torsions:
REMARK  status: ('A' for Active; 'I' for Inactive)
REMARK    1  A    between atoms: C_5  and  O_48 
REMARK    2  A    between atoms: C_6  and  N_8 
REMARK       I    between atoms: N_8  and  C_9 
REMARK       I    between atoms: C_9  and  N_11 
REMARK    3  A    between atoms: N_11  and  C_12 
REMARK    4  A    between atoms: C_18  and  N_22 
REMARK    5  A    between atoms: N_22  and  C_23 
REMARK    6  A    between atoms: C_26  and  O_46 
REMARK    7  A    between atoms: C_27  and  O_35 
REMARK    8  A    between atoms: O_35  and  C_36 
REMARK    9  A    between atoms: C_36  and  C_37 
REMARK   10  A    between atoms: C_37  and  C_38 
REMARK   11  A    between atoms: C_38  and  N_39 
ROOT
HETATM    1  N   UNK N   1      28.764  16.799   4.473  0.00  0.00    -0.364 N 
HETATM    2  H   UNK N   1      28.369  16.148   5.098  0.00  0.00     0.162 HD
ENDROOT
BRANCH   1   3
HETATM    3  C   UNK N   1      27.929  17.632   3.684  0.00  0.00     0.131 C 
HETATM    4  C   UNK N   1      27.632  18.842   4.342  0.00  0.00     0.004 C 
HETATM    5  C   UNK N   1      26.331  19.065   4.801  0.00  0.00     0.029 C 
HETATM    6  C   UNK N   1      25.395  18.072   4.538  0.00  0.00     0.051 A 
HETATM    7  N   UNK N   1      24.240  17.916   5.229  0.00  0.00    -0.335 N 
HETATM    8  C   UNK N   1      25.667  17.059   3.634  0.00  0.00     0.033 A 
HETATM    9  C   UNK N   1      23.618  16.748   4.899  0.00  0.00     0.153 A 
ATOM     10  HN  UNK N   1      23.880  18.587   5.908  1.00  0.00     0.168 HD
HETATM   11  S   UNK N   1      24.462  15.947   3.733  0.00  0.00    -0.052 SA
HETATM   12  C   UNK N   1      26.890  16.902   3.079  0.00  0.00     0.023 C 
BRANCH   9  13
HETATM   13  N   UNK N   1      22.527  16.279   5.646  0.00  0.00    -0.288 N 
HETATM   14  C   UNK N   1      22.823  15.314   6.529  0.00  0.00     0.326 C 
HETATM   15  N   UNK N   1      21.987  14.266   6.696  0.00  0.00    -0.306 N 
HETATM   16  O   UNK N   1      23.925  15.313   7.063  0.00  0.00    -0.247 OA
HETATM   17  H   UNK N   1      21.040  14.338   6.438  0.00  0.00     0.171 HD
HETATM   18  H   UNK N   1      21.615  16.632   5.530  0.00  0.00     0.172 HD
BRANCH  15  19
HETATM   19  C   UNK N   1      22.491  13.055   7.247  0.00  0.00     0.070 A 
HETATM   20  C   UNK N   1      23.092  12.058   6.421  0.00  0.00     0.095 A 
HETATM   21  C   UNK N   1      23.653  10.921   7.018  0.00  0.00     0.039 A 
HETATM   22  C   UNK N   1      23.606  10.761   8.401  0.00  0.00     0.009 A 
HETATM   23  C   UNK N   1      22.982  11.723   9.199  0.00  0.00    -0.060 A 
HETATM   24  C   UNK N   1      22.932  11.544  10.669  0.00  0.00     0.048 C 
HETATM   25  C   UNK N   1      22.426  12.864   8.623  0.00  0.00     0.039 A 
BRANCH  20  26
HETATM   26  O   UNK N   1      23.117  12.208   5.068  0.00  0.00    -0.354 OA
HETATM   27  C   UNK N   1      24.017  11.576   4.237  0.00  0.00     0.210 C 
ENDBRANCH  20  26
ENDBRANCH  15  19
ENDBRANCH   9  13
ENDBRANCH   1   3
BRANCH   1  28
HETATM   28  C   UNK N   1      30.186  16.909   4.354  0.00  0.00     0.115 A 
HETATM   29  C   UNK N   1      30.911  17.126   5.492  0.00  0.00     0.037 A 
HETATM   30  C   UNK N   1      30.243  17.208   6.698  0.00  0.00     0.057 A 
HETATM   31  C   UNK N   1      32.299  17.244   5.419  0.00  0.00     0.050 A 
HETATM   32  C   UNK N   1      30.937  17.319   7.877  0.00  0.00     0.102 A 
HETATM   33  C   UNK N   1      32.339  17.300   7.843  0.00  0.00     0.104 A 
HETATM   34  C   UNK N   1      33.030  17.305   6.611  0.00  0.00     0.070 A 
HETATM   35  N   UNK N   1      32.910  17.235   4.203  0.00  0.00    -0.351 N 
HETATM   36  C   UNK N   1      32.166  17.099   3.064  0.00  0.00     0.182 A 
ATOM     37  HN  UNK N   1      33.923  17.329   4.141  1.00  0.00     0.166 HD
HETATM   38  N   UNK N   1      30.813  16.920   3.141  0.00  0.00    -0.338 N 
ATOM     39  HN  UNK N   1      30.268  16.791   2.288  1.00  0.00     0.168 HD
BRANCH  32  40
HETATM   40  O   UNK N   1      30.273  17.377   9.056  0.00  0.00    -0.353 OA
HETATM   41  C   UNK N   1      29.649  18.520   9.512  0.00  0.00     0.210 C 
ENDBRANCH  32  40
BRANCH  33  42
HETATM   42  O   UNK N   1      33.007  17.157   8.998  0.00  0.00    -0.348 OA
BRANCH  42  43
HETATM   43  C   UNK N   1      34.381  17.331   8.997  0.00  0.00     0.177 C 
BRANCH  43  44
HETATM   44  C   UNK N   1      35.121  16.089   9.535  0.00  0.00     0.057 C 
BRANCH  44  45
HETATM   45  C   UNK N   1      34.153  15.053  10.100  0.00  0.00     0.274 C 
BRANCH  45  46
HETATM   46  N   UNK N   1      34.567  14.632  11.425  0.00  0.00     0.091 N 
HETATM   47  C   UNK N   1      35.808  15.326  11.759  0.00  0.00     0.302 C 
HETATM   48  C   UNK N   1      36.252  14.898  13.159  0.00  0.00     0.302 C 
HETATM   49  N   UNK N   1      36.448  13.446  13.211  0.00  0.00     0.087 N 
HETATM   50  C   UNK N   1      35.232  12.752  12.794  0.00  0.00     0.302 C 
HETATM   51  C   UNK N   1      36.664  13.095  14.601  0.00  0.00     0.310 C 
HETATM   52  C   UNK N   1      34.847  13.199  11.395  0.00  0.00     0.302 C 
ENDBRANCH  45  46
ENDBRANCH  44  45
ENDBRANCH  43  44
ENDBRANCH  42  43
ENDBRANCH  33  42
ENDBRANCH   1  28
TORSDOF 11
ENDMDL
MODEL 3
REMARK VINA RESULT:      -8.6      4.284     12.153
REMARK  11 active torsions:
REMARK  status: ('A' for Active; 'I' for Inactive)
REMARK    1  A    between atoms: C_5  and  O_48 
REMARK    2  A    between atoms: C_6  and  N_8 
REMARK       I    between atoms: N_8  and  C_9 
REMARK       I    between atoms: C_9  and  N_11 
REMARK    3  A    between atoms: N_11  and  C_12 
REMARK    4  A    between atoms: C_18  and  N_22 
REMARK    5  A    between atoms: N_22  and  C_23 
REMARK    6  A    between atoms: C_26  and  O_46 
REMARK    7  A    between atoms: C_27  and  O_35 
REMARK    8  A    between atoms: O_35  and  C_36 
REMARK    9  A    between atoms: C_36  and  C_37 
REMARK   10  A    between atoms: C_37  and  C_38 
REMARK   11  A    between atoms: C_38  and  N_39 
ROOT
HETATM    1  N   UNK N   1      31.716  16.302   7.892  0.00  0.00    -0.364 N 
HETATM    2  H   UNK N   1      31.642  15.321   7.847  0.00  0.00     0.162 HD
ENDROOT
BRANCH   1   3
HETATM    3  C   UNK N   1      32.949  16.941   7.601  0.00  0.00     0.131 C 
HETATM    4  C   UNK N   1      33.546  16.414   6.439  0.00  0.00     0.004 C 
HETATM    5  C   UNK N   1      34.710  15.649   6.560  0.00  0.00     0.029 C 
HETATM    6  C   UNK N   1      35.225  15.490   7.841  0.00  0.00     0.051 A 
HETATM    7  N   UNK N   1      36.064  14.489   8.202  0.00  0.00    -0.335 N 
HETATM    8  C   UNK N   1      34.776  16.273   8.891  0.00  0.00     0.033 A 
HETATM    9  C   UNK N   1      36.242  14.454   9.554  0.00  0.00     0.153 A 
ATOM     10  HN  UNK N   1      36.506  13.844   7.547  1.00  0.00     0.168 HD
HETATM   11  S   UNK N   1      35.413  15.677  10.283  0.00  0.00    -0.052 SA
HETATM   12  C   UNK N   1      33.728  17.117   8.759  0.00  0.00     0.023 C 
BRANCH   9  13
HETATM   13  N   UNK N   1      36.891  13.372  10.166  0.00  0.00    -0.288 N 
HETATM   14  C   UNK N   1      36.114  12.631  10.969  0.00  0.00     0.326 C 
HETATM   15  N   UNK N   1      36.594  12.172  12.146  0.00  0.00    -0.306 N 
HETATM   16  O   UNK N   1      34.926  12.508  10.700  0.00  0.00    -0.247 OA
HETATM   17  H   UNK N   1      37.565  12.090  12.289  0.00  0.00     0.171 HD
HETATM   18  H   UNK N   1      37.844  13.173  10.017  0.00  0.00     0.172 HD
BRANCH  15  19
HETATM   19  C   UNK N   1      35.682  11.811  13.176  0.00  0.00     0.070 A 
HETATM   20  C   UNK N   1      34.982  10.566  13.144  0.00  0.00     0.095 A 
HETATM   21  C   UNK N   1      34.162  10.216  14.225  0.00  0.00     0.039 A 
HETATM   22  C   UNK N   1      34.020  11.081  15.307  0.00  0.00     0.009 A 
HETATM   23  C   UNK N   1      34.678  12.313  15.313  0.00  0.00    -0.060 A 
HETATM   24  C   UNK N   1      34.519  13.231  16.465  0.00  0.00     0.048 C 
HETATM   25  C   UNK N   1      35.505  12.676  14.251  0.00  0.00     0.039 A 
BRANCH  20  26
HETATM   26  O   UNK N   1      35.108   9.733  12.075  0.00  0.00    -0.354 OA
HETATM   27  C   UNK N   1      35.370   8.384  12.175  0.00  0.00     0.210 C 
ENDBRANCH  20  26
ENDBRANCH  15  19
ENDBRANCH   9  13
ENDBRANCH   1   3
BRANCH   1  28
HETATM   28  C   UNK N   1      30.579  17.094   8.252  0.00  0.00     0.115 A 
HETATM   29  C   UNK N   1      29.783  17.569   7.247  0.00  0.00     0.037 A 
HETATM   30  C   UNK N   1      30.100  17.247   5.942  0.00  0.00     0.057 A 
HETATM   31  C   UNK N   1      28.667  18.347   7.555  0.00  0.00     0.050 A 
HETATM   32  C   UNK N   1      29.272  17.611   4.910  0.00  0.00     0.102 A 
HETATM   33  C   UNK N   1      28.072  18.276   5.205  0.00  0.00     0.104 A 
HETATM   34  C   UNK N   1      27.782  18.685   6.525  0.00  0.00     0.070 A 
HETATM   35  N   UNK N   1      28.435  18.705   8.847  0.00  0.00    -0.351 N 
HETATM   36  C   UNK N   1      29.284  18.293   9.836  0.00  0.00     0.182 A 
ATOM     37  HN  UNK N   1      27.627  19.282   9.078  1.00  0.00     0.166 HD
HETATM   38  N   UNK N   1      30.341  17.476   9.541  0.00  0.00    -0.338 N 
ATOM     39  HN  UNK N   1      30.955  17.150  10.288  1.00  0.00     0.168 HD
BRANCH  32  40
HETATM   40  O   UNK N   1      29.581  17.272   3.636  0.00  0.00    -0.353 OA
HETATM   41  C   UNK N   1      29.551  15.972   3.175  0.00  0.00     0.210 C 
ENDBRANCH  32  40
BRANCH  33  42
HETATM   42  O   UNK N   1      27.156  18.407   4.233  0.00  0.00    -0.348 OA
BRANCH  42  43
HETATM   43  C   UNK N   1      26.919  19.667   3.709  0.00  0.00     0.177 C 
BRANCH  43  44
HETATM   44  C   UNK N   1      25.448  19.852   3.287  0.00  0.00     0.057 C 
BRANCH  44  45
HETATM   45  C   UNK N   1      24.488  19.196   4.277  0.00  0.00     0.274 C 
BRANCH  45  46
HETATM   46  N   UNK N   1      23.203  18.943   3.655  0.00  0.00     0.091 N 
HETATM   47  C   UNK N   1      22.732  20.187   3.053  0.00  0.00     0.302 C 
HETATM   48  C   UNK N   1      21.380  19.933   2.385  0.00  0.00     0.302 C 
HETATM   49  N   UNK N   1      20.409  19.439   3.367  0.00  0.00     0.087 N 
HETATM   50  C   UNK N   1      20.919  18.241   4.029  0.00  0.00     0.302 C 
HETATM   51  C   UNK N   1      19.229  19.030   2.630  0.00  0.00     0.310 C 
HETATM   52  C   UNK N   1      22.250  18.554   4.690  0.00  0.00     0.302 C 
ENDBRANCH  45  46
ENDBRANCH  44  45
ENDBRANCH  43  44
ENDBRANCH  42  43
ENDBRANCH  33  42
ENDBRANCH   1  28
TORSDOF 11
ENDMDL
MODEL 4
REMARK VINA RESULT:      -8.4      3.906     12.201
REMARK  11 active torsions:
REMARK  status: ('A' for Active; 'I' for Inactive)
REMARK    1  A    between atoms: C_5  and  O_48 
REMARK    2  A    between atoms: C_6  and  N_8 
REMARK       I    between atoms: N_8  and  C_9 
REMARK       I    between atoms: C_9  and  N_11 
REMARK    3  A    between atoms: N_11  and  C_12 
REMARK    4  A    between atoms: C_18  and  N_22 
REMARK    5  A    between atoms: N_22  and  C_23 
REMARK    6  A    between atoms: C_26  and  O_46 
REMARK    7  A    between atoms: C_27  and  O_35 
REMARK    8  A    between atoms: O_35  and  C_36 
REMARK    9  A    between atoms: C_36  and  C_37 
REMARK   10  A    between atoms: C_37  and  C_38 
REMARK   11  A    between atoms: C_38  and  N_39 
ROOT
HETATM    1  N   UNK N   1      32.340  16.048   8.687  0.00  0.00    -0.364 N 
HETATM    2  H   UNK N   1      32.253  15.130   9.030  0.00  0.00     0.162 HD
ENDROOT
BRANCH   1   3
HETATM    3  C   UNK N   1      33.617  16.566   8.345  0.00  0.00     0.131 C 
HETATM    4  C   UNK N   1      34.235  15.803   7.336  0.00  0.00     0.004 C 
HETATM    5  C   UNK N   1      35.350  15.024   7.658  0.00  0.00     0.029 C 
HETATM    6  C   UNK N   1      35.801  15.090   8.972  0.00  0.00     0.051 A 
HETATM    7  N   UNK N   1      36.570  14.140   9.557  0.00  0.00    -0.335 N 
HETATM    8  C   UNK N   1      35.349  16.077   9.832  0.00  0.00     0.033 A 
HETATM    9  C   UNK N   1      36.688  14.355  10.899  0.00  0.00     0.153 A 
ATOM     10  HN  UNK N   1      37.005  13.363   9.059  1.00  0.00     0.168 HD
HETATM   11  S   UNK N   1      35.894  15.729  11.342  0.00  0.00    -0.052 SA
HETATM   12  C   UNK N   1      34.354  16.925   9.489  0.00  0.00     0.023 C 
BRANCH   9  13
HETATM   13  N   UNK N   1      37.253  13.382  11.736  0.00  0.00    -0.288 N 
HETATM   14  C   UNK N   1      36.572  13.149  12.867  0.00  0.00     0.326 C 
HETATM   15  N   UNK N   1      37.231  12.963  14.032  0.00  0.00    -0.306 N 
HETATM   16  O   UNK N   1      35.353  13.262  12.862  0.00  0.00    -0.247 OA
HETATM   17  H   UNK N   1      38.174  12.680  14.030  0.00  0.00     0.171 HD
HETATM   18  H   UNK N   1      38.086  12.907  11.509  0.00  0.00     0.172 HD
BRANCH  15  19
HETATM   19  C   UNK N   1      36.549  13.182  15.261  0.00  0.00     0.070 A 
HETATM   20  C   UNK N   1      35.738  12.165  15.850  0.00  0.00     0.095 A 
HETATM   21  C   UNK N   1      35.156  12.396  17.104  0.00  0.00     0.039 A 
HETATM   22  C   UNK N   1      35.356  13.610  17.756  0.00  0.00     0.009 A 
HETATM   23  C   UNK N   1      36.119  14.613  17.156  0.00  0.00    -0.060 A 
HETATM   24  C   UNK N   1      36.323  15.905  17.853  0.00  0.00     0.048 C 
HETATM   25  C   UNK N   1      36.712  14.400  15.912  0.00  0.00     0.039 A 
BRANCH  20  26
HETATM   26  O   UNK N   1      35.529  10.988  15.200  0.00  0.00    -0.354 OA
HETATM   27  C   UNK N   1      34.284  10.502  14.865  0.00  0.00     0.210 C 
ENDBRANCH  20  26
ENDBRANCH  15  19
ENDBRANCH   9  13
ENDBRANCH   1   3
BRANCH   1  28
HETATM   28  C   UNK N   1      31.180  16.872   8.530  0.00  0.00     0.115 A 
HETATM   29  C   UNK N   1      30.471  16.766   7.366  0.00  0.00     0.037 A 
HETATM   30  C   UNK N   1      30.894  15.861   6.412  0.00  0.00     0.057 A 
HETATM   31  C   UNK N   1      29.336  17.553   7.171  0.00  0.00     0.050 A 
HETATM   32  C   UNK N   1      30.154  15.644   5.276  0.00  0.00     0.102 A 
HETATM   33  C   UNK N   1      28.936  16.322   5.119  0.00  0.00     0.104 A 
HETATM   34  C   UNK N   1      28.539  17.313   6.046  0.00  0.00     0.070 A 
HETATM   35  N   UNK N   1      29.000  18.487   8.102  0.00  0.00    -0.351 N 
HETATM   36  C   UNK N   1      29.763  18.641   9.225  0.00  0.00     0.182 A 
ATOM     37  HN  UNK N   1      28.176  19.072   7.962  1.00  0.00     0.166 HD
HETATM   38  N   UNK N   1      30.838  17.825   9.445  0.00  0.00    -0.338 N 
ATOM     39  HN  UNK N   1      31.387  17.928  10.299  1.00  0.00     0.168 HD
BRANCH  32  40
HETATM   40  O   UNK N   1      30.566  14.739   4.357  0.00  0.00    -0.353 OA
HETATM   41  C   UNK N   1      31.509  15.025   3.391  0.00  0.00     0.210 C 
ENDBRANCH  32  40
BRANCH  33  42
HETATM   42  O   UNK N   1      28.104  15.929   4.144  0.00  0.00    -0.348 OA
BRANCH  42  43
HETATM   43  C   UNK N   1      27.296  16.877   3.537  0.00  0.00     0.177 C 
BRANCH  43  44
HETATM   44  C   UNK N   1      25.961  16.275   3.053  0.00  0.00     0.057 C 
BRANCH  44  45
HETATM   45  C   UNK N   1      25.452  15.191   3.999  0.00  0.00     0.274 C 
BRANCH  45  46
HETATM   46  N   UNK N   1      24.135  15.528   4.505  0.00  0.00     0.091 N 
HETATM   47  C   UNK N   1      23.775  16.850   4.000  0.00  0.00     0.302 C 
HETATM   48  C   UNK N   1      22.383  17.215   4.518  0.00  0.00     0.302 C 
HETATM   49  N   UNK N   1      22.365  17.205   5.984  0.00  0.00     0.087 N 
HETATM   50  C   UNK N   1      22.808  15.908   6.490  0.00  0.00     0.302 C 
HETATM   51  C   UNK N   1      20.982  17.355   6.394  0.00  0.00     0.310 C 
HETATM   52  C   UNK N   1      24.198  15.604   5.962  0.00  0.00     0.302 C 
ENDBRANCH  45  46
ENDBRANCH  44  45
ENDBRANCH  43  44
ENDBRANCH  42  43
ENDBRANCH  33  42
ENDBRANCH   1  28
TORSDOF 11
ENDMDL
MODEL 5
REMARK VINA RESULT:      -8.3      3.998     12.052
REMARK  11 active torsions:
REMARK  status: ('A' for Active; 'I' for Inactive)
REMARK    1  A    between atoms: C_5  and  O_48 
REMARK    2  A    between atoms: C_6  and  N_8 
REMARK       I    between atoms: N_8  and  C_9 
REMARK       I    between atoms: C_9  and  N_11 
REMARK    3  A    between atoms: N_11  and  C_12 
REMARK    4  A    between atoms: C_18  and  N_22 
REMARK    5  A    between atoms: N_22  and  C_23 
REMARK    6  A    between atoms: C_26  and  O_46 
REMARK    7  A    between atoms: C_27  and  O_35 
REMARK    8  A    between atoms: O_35  and  C_36 
REMARK    9  A    between atoms: C_36  and  C_37 
REMARK   10  A    between atoms: C_37  and  C_38 
REMARK   11  A    between atoms: C_38  and  N_39 
ROOT
HETATM    1  N   UNK N   1      32.661  15.544   6.473  0.00  0.00    -0.364 N 
HETATM    2  H   UNK N   1      32.290  14.786   6.980  0.00  0.00     0.162 HD
ENDROOT
BRANCH   1   3
HETATM    3  C   UNK N   1      33.953  16.046   6.778  0.00  0.00     0.131 C 
HETATM    4  C   UNK N   1      34.960  15.345   6.084  0.00  0.00     0.004 C 
HETATM    5  C   UNK N   1      35.821  14.507   6.798  0.00  0.00     0.029 C 
HETATM    6  C   UNK N   1      35.642  14.453   8.175  0.00  0.00     0.051 A 
HETATM    7  N   UNK N   1      36.077  13.434   8.956  0.00  0.00    -0.335 N 
HETATM    8  C   UNK N   1      34.850  15.382   8.828  0.00  0.00     0.033 A 
HETATM    9  C   UNK N   1      35.587  13.538  10.225  0.00  0.00     0.153 A 
ATOM     10  HN  UNK N   1      36.693  12.686   8.637  1.00  0.00     0.168 HD
HETATM   11  S   UNK N   1      34.671  14.897  10.388  0.00  0.00    -0.052 SA
HETATM   12  C   UNK N   1      34.105  16.287   8.155  0.00  0.00     0.023 C 
BRANCH   9  13
HETATM   13  N   UNK N   1      35.728  12.482  11.138  0.00  0.00    -0.288 N 
HETATM   14  C   UNK N   1      35.355  12.771  12.393  0.00  0.00     0.326 C 
HETATM   15  N   UNK N   1      36.086  12.325  13.439  0.00  0.00    -0.306 N 
HETATM   16  O   UNK N   1      34.443  13.567  12.576  0.00  0.00    -0.247 OA
HETATM   17  H   UNK N   1      36.684  11.550  13.335  0.00  0.00     0.171 HD
HETATM   18  H   UNK N   1      36.075  11.598  10.876  0.00  0.00     0.172 HD
BRANCH  15  19
HETATM   19  C   UNK N   1      35.983  12.989  14.693  0.00  0.00     0.070 A 
HETATM   20  C   UNK N   1      35.144  12.485  15.733  0.00  0.00     0.095 A 
HETATM   21  C   UNK N   1      35.142  13.123  16.980  0.00  0.00     0.039 A 
HETATM   22  C   UNK N   1      35.938  14.246  17.194  0.00  0.00     0.009 A 
HETATM   23  C   UNK N   1      36.727  14.755  16.160  0.00  0.00    -0.060 A 
HETATM   24  C   UNK N   1      37.568  15.953  16.393  0.00  0.00     0.048 C 
HETATM   25  C   UNK N   1      36.748  14.129  14.915  0.00  0.00     0.039 A 
BRANCH  20  26
HETATM   26  O   UNK N   1      34.352  11.400  15.513  0.00  0.00    -0.354 OA
HETATM   27  C   UNK N   1      34.701  10.109  15.846  0.00  0.00     0.210 C 
ENDBRANCH  20  26
ENDBRANCH  15  19
ENDBRANCH   9  13
ENDBRANCH   1   3
BRANCH   1  28
HETATM   28  C   UNK N   1      31.899  16.150   5.424  0.00  0.00     0.115 A 
HETATM   29  C   UNK N   1      30.759  16.822   5.764  0.00  0.00     0.037 A 
HETATM   30  C   UNK N   1      30.410  16.903   7.098  0.00  0.00     0.057 A 
HETATM   31  C   UNK N   1      29.986  17.424   4.771  0.00  0.00     0.050 A 
HETATM   32  C   UNK N   1      29.334  17.657   7.497  0.00  0.00     0.102 A 
HETATM   33  C   UNK N   1      28.621  18.384   6.532  0.00  0.00     0.104 A 
HETATM   34  C   UNK N   1      28.916  18.240   5.158  0.00  0.00     0.070 A 
HETATM   35  N   UNK N   1      30.323  17.255   3.464  0.00  0.00    -0.351 N 
HETATM   36  C   UNK N   1      31.420  16.511   3.130  0.00  0.00     0.182 A 
ATOM     37  HN  UNK N   1      29.757  17.685   2.733  1.00  0.00     0.166 HD
HETATM   38  N   UNK N   1      32.214  15.976   4.106  0.00  0.00    -0.338 N 
ATOM     39  HN  UNK N   1      33.046  15.445   3.850  1.00  0.00     0.168 HD
BRANCH  32  40
HETATM   40  O   UNK N   1      29.013  17.746   8.809  0.00  0.00    -0.353 OA
HETATM   41  C   UNK N   1      29.677  18.574   9.691  0.00  0.00     0.210 C 
ENDBRANCH  32  40
BRANCH  33  42
HETATM   42  O   UNK N   1      27.738  19.305   6.946  0.00  0.00    -0.348 OA
BRANCH  42  43
HETATM   43  C   UNK N   1      27.627  20.487   6.233  0.00  0.00     0.177 C 
BRANCH  43  44
HETATM   44  C   UNK N   1      26.170  20.779   5.819  0.00  0.00     0.057 C 
BRANCH  44  45
HETATM   45  C   UNK N   1      25.798  20.072   4.518  0.00  0.00     0.274 C 
BRANCH  45  46
HETATM   46  N   UNK N   1      24.686  19.165   4.726  0.00  0.00     0.091 N 
HETATM   47  C   UNK N   1      25.186  17.797   4.629  0.00  0.00     0.302 C 
HETATM   48  C   UNK N   1      24.024  16.828   4.856  0.00  0.00     0.302 C 
HETATM   49  N   UNK N   1      22.967  17.058   3.867  0.00  0.00     0.087 N 
HETATM   50  C   UNK N   1      22.526  18.450   3.906  0.00  0.00     0.302 C 
HETATM   51  C   UNK N   1      21.828  16.254   4.267  0.00  0.00     0.310 C 
HETATM   52  C   UNK N   1      23.711  19.365   3.658  0.00  0.00     0.302 C 
ENDBRANCH  45  46
ENDBRANCH  44  45
ENDBRANCH  43  44
ENDBRANCH  42  43
ENDBRANCH  33  42
ENDBRANCH   1  28
TORSDOF 11
ENDMDL
MODEL 6
REMARK VINA RESULT:      -8.2      1.790      2.719
REMARK  11 active torsions:
REMARK  status: ('A' for Active; 'I' for Inactive)
REMARK    1  A    between atoms: C_5  and  O_48 
REMARK    2  A    between atoms: C_6  and  N_8 
REMARK       I    between atoms: N_8  and  C_9 
REMARK       I    between atoms: C_9  and  N_11 
REMARK    3  A    between atoms: N_11  and  C_12 
REMARK    4  A    between atoms: C_18  and  N_22 
REMARK    5  A    between atoms: N_22  and  C_23 
REMARK    6  A    between atoms: C_26  and  O_46 
REMARK    7  A    between atoms: C_27  and  O_35 
REMARK    8  A    between atoms: O_35  and  C_36 
REMARK    9  A    between atoms: C_36  and  C_37 
REMARK   10  A    between atoms: C_37  and  C_38 
REMARK   11  A    between atoms: C_38  and  N_39 
ROOT
HETATM    1  N   UNK N   1      28.358  16.363   5.214  0.00  0.00    -0.364 N 
HETATM    2  H   UNK N   1      27.870  16.535   6.052  0.00  0.00     0.162 HD
ENDROOT
BRANCH   1   3
HETATM    3  C   UNK N   1      27.947  16.986   4.007  0.00  0.00     0.131 C 
HETATM    4  C   UNK N   1      27.573  18.328   4.215  0.00  0.00     0.004 C 
HETATM    5  C   UNK N   1      26.226  18.685   4.103  0.00  0.00     0.029 C 
HETATM    6  C   UNK N   1      25.339  17.675   3.751  0.00  0.00     0.051 A 
HETATM    7  N   UNK N   1      24.005  17.721   3.988  0.00  0.00    -0.335 N 
HETATM    8  C   UNK N   1      25.797  16.461   3.266  0.00  0.00     0.033 A 
HETATM    9  C   UNK N   1      23.414  16.519   3.730  0.00  0.00     0.153 A 
ATOM     10  HN  UNK N   1      23.507  18.548   4.316  1.00  0.00     0.168 HD
HETATM   11  S   UNK N   1      24.519  15.433   3.169  0.00  0.00    -0.052 SA
HETATM   12  C   UNK N   1      27.111  16.147   3.248  0.00  0.00     0.023 C 
BRANCH   9  13
HETATM   13  N   UNK N   1      22.087  16.274   4.113  0.00  0.00    -0.288 N 
HETATM   14  C   UNK N   1      21.903  16.110   5.431  0.00  0.00     0.326 C 
HETATM   15  N   UNK N   1      21.057  15.159   5.886  0.00  0.00    -0.306 N 
HETATM   16  O   UNK N   1      22.621  16.719   6.213  0.00  0.00    -0.247 OA
HETATM   17  H   UNK N   1      20.347  14.804   5.304  0.00  0.00     0.171 HD
HETATM   18  H   UNK N   1      21.349  16.227   3.463  0.00  0.00     0.172 HD
BRANCH  15  19
HETATM   19  C   UNK N   1      21.206  14.674   7.215  0.00  0.00     0.070 A 
HETATM   20  C   UNK N   1      20.312  15.072   8.254  0.00  0.00     0.095 A 
HETATM   21  C   UNK N   1      20.444  14.501   9.527  0.00  0.00     0.039 A 
HETATM   22  C   UNK N   1      21.449  13.568   9.775  0.00  0.00     0.009 A 
HETATM   23  C   UNK N   1      22.343  13.213   8.763  0.00  0.00    -0.060 A 
HETATM   24  C   UNK N   1      23.413  12.224   9.036  0.00  0.00     0.048 C 
HETATM   25  C   UNK N   1      22.222  13.765   7.489  0.00  0.00     0.039 A 
BRANCH  20  26
HETATM   26  O   UNK N   1      19.344  15.999   8.013  0.00  0.00    -0.354 OA
HETATM   27  C   UNK N   1      18.642  16.657   8.998  0.00  0.00     0.210 C 
ENDBRANCH  20  26
ENDBRANCH  15  19
ENDBRANCH   9  13
ENDBRANCH   1   3
BRANCH   1  28
HETATM   28  C   UNK N   1      29.485  15.482   5.205  0.00  0.00     0.115 A 
HETATM   29  C   UNK N   1      30.503  15.734   6.082  0.00  0.00     0.037 A 
HETATM   30  C   UNK N   1      30.387  16.807   6.943  0.00  0.00     0.057 A 
HETATM   31  C   UNK N   1      31.623  14.901   6.102  0.00  0.00     0.050 A 
HETATM   32  C   UNK N   1      31.333  17.034   7.911  0.00  0.00     0.102 A 
HETATM   33  C   UNK N   1      32.399  16.131   8.043  0.00  0.00     0.104 A 
HETATM   34  C   UNK N   1      32.573  15.082   7.113  0.00  0.00     0.070 A 
HETATM   35  N   UNK N   1      31.733  13.902   5.185  0.00  0.00    -0.351 N 
HETATM   36  C   UNK N   1      30.746  13.711   4.258  0.00  0.00     0.182 A 
ATOM     37  HN  UNK N   1      32.552  13.296   5.188  1.00  0.00     0.166 HD
HETATM   38  N   UNK N   1      29.620  14.486   4.281  0.00  0.00    -0.338 N 
ATOM     39  HN  UNK N   1      28.875  14.320   3.603  1.00  0.00     0.168 HD
BRANCH  32  40
HETATM   40  O   UNK N   1      31.199  18.077   8.764  0.00  0.00    -0.353 OA
HETATM   41  C   UNK N   1      29.973  18.574   9.156  0.00  0.00     0.210 C 
ENDBRANCH  32  40
BRANCH  33  42
HETATM   42  O   UNK N   1      33.176  16.211   9.134  0.00  0.00    -0.348 OA
BRANCH  42  43
HETATM   43  C   UNK N   1      33.526  15.042   9.788  0.00  0.00     0.177 C 
BRANCH  43  44
HETATM   44  C   UNK N   1      34.550  15.292  10.914  0.00  0.00     0.057 C 
BRANCH  44  45
HETATM   45  C   UNK N   1      35.759  14.366  10.796  0.00  0.00     0.274 C 
BRANCH  45  46
HETATM   46  N   UNK N   1      36.055  13.744  12.072  0.00  0.00     0.091 N 
HETATM   47  C   UNK N   1      34.939  12.872  12.426  0.00  0.00     0.302 C 
HETATM   48  C   UNK N   1      35.243  12.201  13.767  0.00  0.00     0.302 C 
HETATM   49  N   UNK N   1      35.453  13.211  14.808  0.00  0.00     0.087 N 
HETATM   50  C   UNK N   1      36.513  14.136  14.414  0.00  0.00     0.302 C 
HETATM   51  C   UNK N   1      35.932  12.515  15.986  0.00  0.00     0.310 C 
HETATM   52  C   UNK N   1      36.153  14.786  13.090  0.00  0.00     0.302 C 
ENDBRANCH  45  46
ENDBRANCH  44  45
ENDBRANCH  43  44
ENDBRANCH  42  43
ENDBRANCH  33  42
ENDBRANCH   1  28
TORSDOF 11
ENDMDL
MODEL 7
REMARK VINA RESULT:      -8.2      3.266     11.569
REMARK  11 active torsions:
REMARK  status: ('A' for Active; 'I' for Inactive)
REMARK    1  A    between atoms: C_5  and  O_48 
REMARK    2  A    between atoms: C_6  and  N_8 
REMARK       I    between atoms: N_8  and  C_9 
REMARK       I    between atoms: C_9  and  N_11 
REMARK    3  A    between atoms: N_11  and  C_12 
REMARK    4  A    between atoms: C_18  and  N_22 
REMARK    5  A    between atoms: N_22  and  C_23 
REMARK    6  A    between atoms: C_26  and  O_46 
REMARK    7  A    between atoms: C_27  and  O_35 
REMARK    8  A    between atoms: O_35  and  C_36 
REMARK    9  A    between atoms: C_36  and  C_37 
REMARK   10  A    between atoms: C_37  and  C_38 
REMARK   11  A    between atoms: C_38  and  N_39 
ROOT
HETATM    1  N   UNK N   1      31.493  16.554   7.692  0.00  0.00    -0.364 N 
HETATM    2  H   UNK N   1      31.368  15.581   7.611  0.00  0.00     0.162 HD
ENDROOT
BRANCH   1   3
HETATM    3  C   UNK N   1      32.741  17.146   7.365  0.00  0.00     0.131 C 
HETATM    4  C   UNK N   1      33.286  16.594   6.189  0.00  0.00     0.004 C 
HETATM    5  C   UNK N   1      34.422  15.785   6.280  0.00  0.00     0.029 C 
HETATM    6  C   UNK N   1      34.966  15.609   7.547  0.00  0.00     0.051 A 
HETATM    7  N   UNK N   1      35.776  14.578   7.887  0.00  0.00    -0.335 N 
HETATM    8  C   UNK N   1      34.576  16.411   8.607  0.00  0.00     0.033 A 
HETATM    9  C   UNK N   1      35.991  14.540   9.234  0.00  0.00     0.153 A 
ATOM     10  HN  UNK N   1      36.176  13.915   7.223  1.00  0.00     0.168 HD
HETATM   11  S   UNK N   1      35.229  15.794   9.982  0.00  0.00    -0.052 SA
HETATM   12  C   UNK N   1      33.558  17.294   8.501  0.00  0.00     0.023 C 
BRANCH   9  13
HETATM   13  N   UNK N   1      36.615  13.435   9.831  0.00  0.00    -0.288 N 
HETATM   14  C   UNK N   1      35.834  12.727  10.660  0.00  0.00     0.326 C 
HETATM   15  N   UNK N   1      36.331  12.254  11.824  0.00  0.00    -0.306 N 
HETATM   16  O   UNK N   1      34.635  12.650  10.427  0.00  0.00    -0.247 OA
HETATM   17  H   UNK N   1      37.302  12.134  11.939  0.00  0.00     0.171 HD
HETATM   18  H   UNK N   1      37.555  13.198   9.654  0.00  0.00     0.172 HD
BRANCH  15  19
HETATM   19  C   UNK N   1      35.437  11.931  12.883  0.00  0.00     0.070 A 
HETATM   20  C   UNK N   1      34.623  10.759  12.835  0.00  0.00     0.095 A 
HETATM   21  C   UNK N   1      33.823  10.438  13.940  0.00  0.00     0.039 A 
HETATM   22  C   UNK N   1      33.813  11.262  15.062  0.00  0.00     0.009 A 
HETATM   23  C   UNK N   1      34.583  12.427  15.085  0.00  0.00    -0.060 A 
HETATM   24  C   UNK N   1      34.563  13.303  16.280  0.00  0.00     0.048 C 
HETATM   25  C   UNK N   1      35.391  12.760  13.999  0.00  0.00     0.039 A 
BRANCH  20  26
HETATM   26  O   UNK N   1      34.621   9.967  11.728  0.00  0.00    -0.354 OA
HETATM   27  C   UNK N   1      34.759   8.597  11.760  0.00  0.00     0.210 C 
ENDBRANCH  20  26
ENDBRANCH  15  19
ENDBRANCH   9  13
ENDBRANCH   1   3
BRANCH   1  28
HETATM   28  C   UNK N   1      30.417  17.383   8.141  0.00  0.00     0.115 A 
HETATM   29  C   UNK N   1      29.535  17.852   7.208  0.00  0.00     0.037 A 
HETATM   30  C   UNK N   1      29.713  17.491   5.887  0.00  0.00     0.057 A 
HETATM   31  C   UNK N   1      28.473  18.667   7.604  0.00  0.00     0.050 A 
HETATM   32  C   UNK N   1      28.794  17.850   4.932  0.00  0.00     0.102 A 
HETATM   33  C   UNK N   1      27.645  18.551   5.327  0.00  0.00     0.104 A 
HETATM   34  C   UNK N   1      27.498  19.001   6.658  0.00  0.00     0.070 A 
HETATM   35  N   UNK N   1      28.380  19.063   8.902  0.00  0.00    -0.351 N 
HETATM   36  C   UNK N   1      29.314  18.654   9.812  0.00  0.00     0.182 A 
ATOM     37  HN  UNK N   1      27.612  19.664   9.197  1.00  0.00     0.166 HD
HETATM   38  N   UNK N   1      30.317  17.803   9.437  0.00  0.00    -0.338 N 
ATOM     39  HN  UNK N   1      30.994  17.480  10.128  1.00  0.00     0.168 HD
BRANCH  32  40
HETATM   40  O   UNK N   1      28.967  17.472   3.644  0.00  0.00    -0.353 OA
HETATM   41  C   UNK N   1      28.633  16.217   3.177  0.00  0.00     0.210 C 
ENDBRANCH  32  40
BRANCH  33  42
HETATM   42  O   UNK N   1      26.640  18.682   4.448  0.00  0.00    -0.348 OA
BRANCH  42  43
HETATM   43  C   UNK N   1      25.342  18.746   4.927  0.00  0.00     0.177 C 
BRANCH  43  44
HETATM   44  C   UNK N   1      24.645  17.371   4.896  0.00  0.00     0.057 C 
BRANCH  44  45
HETATM   45  C   UNK N   1      23.225  17.467   4.344  0.00  0.00     0.274 C 
BRANCH  45  46
HETATM   46  N   UNK N   1      22.287  16.792   5.219  0.00  0.00     0.091 N 
HETATM   47  C   UNK N   1      21.674  17.790   6.091  0.00  0.00     0.302 C 
HETATM   48  C   UNK N   1      20.673  17.093   7.014  0.00  0.00     0.302 C 
HETATM   49  N   UNK N   1      21.346  16.062   7.811  0.00  0.00     0.087 N 
HETATM   50  C   UNK N   1      22.032  15.111   6.939  0.00  0.00     0.302 C 
HETATM   51  C   UNK N   1      20.312  15.315   8.501  0.00  0.00     0.310 C 
HETATM   52  C   UNK N   1      23.023  15.852   6.059  0.00  0.00     0.302 C 
ENDBRANCH  45  46
ENDBRANCH  44  45
ENDBRANCH  43  44
ENDBRANCH  42  43
ENDBRANCH  33  42
ENDBRANCH   1  28
TORSDOF 11
ENDMDL
MODEL 8
REMARK VINA RESULT:      -8.2      1.784      2.591
REMARK  11 active torsions:
REMARK  status: ('A' for Active; 'I' for Inactive)
REMARK    1  A    between atoms: C_5  and  O_48 
REMARK    2  A    between atoms: C_6  and  N_8 
REMARK       I    between atoms: N_8  and  C_9 
REMARK       I    between atoms: C_9  and  N_11 
REMARK    3  A    between atoms: N_11  and  C_12 
REMARK    4  A    between atoms: C_18  and  N_22 
REMARK    5  A    between atoms: N_22  and  C_23 
REMARK    6  A    between atoms: C_26  and  O_46 
REMARK    7  A    between atoms: C_27  and  O_35 
REMARK    8  A    between atoms: O_35  and  C_36 
REMARK    9  A    between atoms: C_36  and  C_37 
REMARK   10  A    between atoms: C_37  and  C_38 
REMARK   11  A    between atoms: C_38  and  N_39 
ROOT
HETATM    1  N   UNK N   1      28.059  17.551   6.577  0.00  0.00    -0.364 N 
HETATM    2  H   UNK N   1      27.365  16.890   6.801  0.00  0.00     0.162 HD
ENDROOT
BRANCH   1   3
HETATM    3  C   UNK N   1      27.997  18.271   5.355  0.00  0.00     0.131 C 
HETATM    4  C   UNK N   1      27.617  19.611   5.560  0.00  0.00     0.004 C 
HETATM    5  C   UNK N   1      26.357  20.035   5.128  0.00  0.00     0.029 C 
HETATM    6  C   UNK N   1      25.566  19.092   4.482  0.00  0.00     0.051 A 
HETATM    7  N   UNK N   1      24.219  19.182   4.367  0.00  0.00    -0.335 N 
HETATM    8  C   UNK N   1      26.104  17.893   4.043  0.00  0.00     0.033 A 
HETATM    9  C   UNK N   1      23.685  18.028   3.874  0.00  0.00     0.153 A 
ATOM     10  HN  UNK N   1      23.674  20.007   4.615  1.00  0.00     0.168 HD
HETATM   11  S   UNK N   1      24.870  16.932   3.540  0.00  0.00    -0.052 SA
HETATM   12  C   UNK N   1      27.368  17.521   4.344  0.00  0.00     0.023 C 
BRANCH   9  13
HETATM   13  N   UNK N   1      22.298  17.819   3.878  0.00  0.00    -0.288 N 
HETATM   14  C   UNK N   1      21.763  17.622   5.092  0.00  0.00     0.326 C 
HETATM   15  N   UNK N   1      20.802  16.688   5.268  0.00  0.00    -0.306 N 
HETATM   16  O   UNK N   1      22.260  18.181   6.061  0.00  0.00    -0.247 OA
HETATM   17  H   UNK N   1      20.265  16.376   4.504  0.00  0.00     0.171 HD
HETATM   18  H   UNK N   1      21.760  17.817   3.054  0.00  0.00     0.172 HD
BRANCH  15  19
HETATM   19  C   UNK N   1      20.576  16.158   6.569  0.00  0.00     0.070 A 
HETATM   20  C   UNK N   1      21.453  15.184   7.135  0.00  0.00     0.095 A 
HETATM   21  C   UNK N   1      21.240  14.756   8.453  0.00  0.00     0.039 A 
HETATM   22  C   UNK N   1      20.175  15.265   9.191  0.00  0.00     0.009 A 
HETATM   23  C   UNK N   1      19.300  16.189   8.617  0.00  0.00    -0.060 A 
HETATM   24  C   UNK N   1      18.165  16.723   9.407  0.00  0.00     0.048 C 
HETATM   25  C   UNK N   1      19.499  16.632   7.310  0.00  0.00     0.039 A 
BRANCH  20  26
HETATM   26  O   UNK N   1      22.481  14.673   6.403  0.00  0.00    -0.354 OA
HETATM   27  C   UNK N   1      23.809  14.952   6.639  0.00  0.00     0.210 C 
ENDBRANCH  20  26
ENDBRANCH  15  19
ENDBRANCH   9  13
ENDBRANCH   1   3
BRANCH   1  28
HETATM   28  C   UNK N   1      29.140  17.793   7.483  0.00  0.00     0.115 A 
HETATM   29  C   UNK N   1      30.265  17.027   7.360  0.00  0.00     0.037 A 
HETATM   30  C   UNK N   1      30.312  16.075   6.361  0.00  0.00     0.057 A 
HETATM   31  C   UNK N   1      31.340  17.228   8.226  0.00  0.00     0.050 A 
HETATM   32  C   UNK N   1      31.459  15.356   6.132  0.00  0.00     0.102 A 
HETATM   33  C   UNK N   1      32.599  15.636   6.898  0.00  0.00     0.104 A 
HETATM   34  C   UNK N   1      32.536  16.544   7.979  0.00  0.00     0.070 A 
HETATM   35  N   UNK N   1      31.222  18.122   9.245  0.00  0.00    -0.351 N 
HETATM   36  C   UNK N   1      30.062  18.825   9.409  0.00  0.00     0.182 A 
ATOM     37  HN  UNK N   1      32.001  18.268   9.887  1.00  0.00     0.166 HD
HETATM   38  N   UNK N   1      29.033  18.674   8.521  0.00  0.00    -0.338 N 
ATOM     39  HN  UNK N   1      28.180  19.223   8.634  1.00  0.00     0.168 HD
BRANCH  32  40
HETATM   40  O   UNK N   1      31.501  14.440   5.136  0.00  0.00    -0.353 OA
HETATM   41  C   UNK N   1      31.304  14.762   3.809  0.00  0.00     0.210 C 
ENDBRANCH  32  40
BRANCH  33  42
HETATM   42  O   UNK N   1      33.775  15.117   6.513  0.00  0.00    -0.348 OA
BRANCH  42  43
HETATM   43  C   UNK N   1      34.895  15.356   7.292  0.00  0.00     0.177 C 
BRANCH  43  44
HETATM   44  C   UNK N   1      35.132  14.234   8.324  0.00  0.00     0.057 C 
BRANCH  44  45
HETATM   45  C   UNK N   1      36.611  14.092   8.676  0.00  0.00     0.274 C 
BRANCH  45  46
HETATM   46  N   UNK N   1      36.813  14.216  10.106  0.00  0.00     0.091 N 
HETATM   47  C   UNK N   1      36.793  12.877  10.689  0.00  0.00     0.302 C 
HETATM   48  C   UNK N   1      37.014  12.991  12.198  0.00  0.00     0.302 C 
HETATM   49  N   UNK N   1      35.974  13.829  12.804  0.00  0.00     0.087 N 
HETATM   50  C   UNK N   1      35.938  15.140  12.162  0.00  0.00     0.302 C 
HETATM   51  C   UNK N   1      36.362  14.057  14.183  0.00  0.00     0.310 C 
HETATM   52  C   UNK N   1      35.699  14.970  10.673  0.00  0.00     0.302 C 
ENDBRANCH  45  46
ENDBRANCH  44  45
ENDBRANCH  43  44
ENDBRANCH  42  43
ENDBRANCH  33  42
ENDBRANCH   1  28
TORSDOF 11
ENDMDL
MODEL 9
REMARK VINA RESULT:      -8.0      4.408     12.310
REMARK  11 active torsions:
REMARK  status: ('A' for Active; 'I' for Inactive)
REMARK    1  A    between atoms: C_5  and  O_48 
REMARK    2  A    between atoms: C_6  and  N_8 
REMARK       I    between atoms: N_8  and  C_9 
REMARK       I    between atoms: C_9  and  N_11 
REMARK    3  A    between atoms: N_11  and  C_12 
REMARK    4  A    between atoms: C_18  and  N_22 
REMARK    5  A    between atoms: N_22  and  C_23 
REMARK    6  A    between atoms: C_26  and  O_46 
REMARK    7  A    between atoms: C_27  and  O_35 
REMARK    8  A    between atoms: O_35  and  C_36 
REMARK    9  A    between atoms: C_36  and  C_37 
REMARK   10  A    between atoms: C_37  and  C_38 
REMARK   11  A    between atoms: C_38  and  N_39 
ROOT
HETATM    1  N   UNK N   1      32.905  16.921   6.722  0.00  0.00    -0.364 N 
HETATM    2  H   UNK N   1      32.464  17.215   7.551  0.00  0.00     0.162 HD
ENDROOT
BRANCH   1   3
HETATM    3  C   UNK N   1      34.214  16.372   6.762  0.00  0.00     0.131 C 
HETATM    4  C   UNK N   1      34.221  15.016   6.382  0.00  0.00     0.004 C 
HETATM    5  C   UNK N   1      34.478  14.040   7.349  0.00  0.00     0.029 C 
HETATM    6  C   UNK N   1      34.749  14.489   8.636  0.00  0.00     0.051 A 
HETATM    7  N   UNK N   1      34.617  13.727   9.749  0.00  0.00    -0.335 N 
HETATM    8  C   UNK N   1      35.027  15.824   8.881  0.00  0.00     0.033 A 
HETATM    9  C   UNK N   1      34.747  14.476  10.881  0.00  0.00     0.153 A 
ATOM     10  HN  UNK N   1      34.443  12.722   9.741  1.00  0.00     0.168 HD
HETATM   11  S   UNK N   1      35.071  16.048  10.507  0.00  0.00    -0.052 SA
HETATM   12  C   UNK N   1      34.907  16.768   7.921  0.00  0.00     0.023 C 
BRANCH   9  13
HETATM   13  N   UNK N   1      34.430  13.939  12.138  0.00  0.00    -0.288 N 
HETATM   14  C   UNK N   1      34.975  12.741  12.391  0.00  0.00     0.326 C 
HETATM   15  N   UNK N   1      34.254  11.784  13.017  0.00  0.00    -0.306 N 
HETATM   16  O   UNK N   1      36.069  12.471  11.912  0.00  0.00    -0.247 OA
HETATM   17  H   UNK N   1      33.475  12.028  13.567  0.00  0.00     0.171 HD
HETATM   18  H   UNK N   1      33.852  14.407  12.783  0.00  0.00     0.172 HD
BRANCH  15  19
HETATM   19  C   UNK N   1      34.632  10.421  12.871  0.00  0.00     0.070 A 
HETATM   20  C   UNK N   1      35.435   9.764  13.853  0.00  0.00     0.095 A 
HETATM   21  C   UNK N   1      35.708   8.398  13.710  0.00  0.00     0.039 A 
HETATM   22  C   UNK N   1      35.214   7.695  12.614  0.00  0.00     0.009 A 
HETATM   23  C   UNK N   1      34.462   8.353  11.639  0.00  0.00    -0.060 A 
HETATM   24  C   UNK N   1      33.944   7.599  10.472  0.00  0.00     0.048 C 
HETATM   25  C   UNK N   1      34.173   9.710  11.767  0.00  0.00     0.039 A 
BRANCH  20  26
HETATM   26  O   UNK N   1      35.932  10.460  14.912  0.00  0.00    -0.354 OA
HETATM   27  C   UNK N   1      37.247  10.854  15.028  0.00  0.00     0.210 C 
ENDBRANCH  20  26
ENDBRANCH  15  19
ENDBRANCH   9  13
ENDBRANCH   1   3
BRANCH   1  28
HETATM   28  C   UNK N   1      32.232  17.044   5.466  0.00  0.00     0.115 A 
HETATM   29  C   UNK N   1      30.866  17.112   5.473  0.00  0.00     0.037 A 
HETATM   30  C   UNK N   1      30.208  17.077   6.687  0.00  0.00     0.057 A 
HETATM   31  C   UNK N   1      30.170  17.229   4.270  0.00  0.00     0.050 A 
HETATM   32  C   UNK N   1      28.847  17.249   6.751  0.00  0.00     0.102 A 
HETATM   33  C   UNK N   1      28.140  17.506   5.567  0.00  0.00     0.104 A 
HETATM   34  C   UNK N   1      28.790  17.457   4.314  0.00  0.00     0.070 A 
HETATM   35  N   UNK N   1      30.852  17.181   3.093  0.00  0.00    -0.351 N 
HETATM   36  C   UNK N   1      32.211  17.031   3.094  0.00  0.00     0.182 A 
ATOM     37  HN  UNK N   1      30.349  17.257   2.210  1.00  0.00     0.166 HD
HETATM   38  N   UNK N   1      32.898  16.981   4.276  0.00  0.00    -0.338 N 
ATOM     39  HN  UNK N   1      33.915  16.897   4.268  1.00  0.00     0.168 HD
BRANCH  32  40
HETATM   40  O   UNK N   1      28.214  17.235   7.947  0.00  0.00    -0.353 OA
HETATM   41  C   UNK N   1      28.690  17.902   9.057  0.00  0.00     0.210 C 
ENDBRANCH  32  40
BRANCH  33  42
HETATM   42  O   UNK N   1      26.866  17.917   5.658  0.00  0.00    -0.348 OA
BRANCH  42  43
HETATM   43  C   UNK N   1      26.519  19.136   5.099  0.00  0.00     0.177 C 
BRANCH  43  44
HETATM   44  C   UNK N   1      25.690  18.968   3.810  0.00  0.00     0.057 C 
BRANCH  44  45
HETATM   45  C   UNK N   1      24.598  20.029   3.696  0.00  0.00     0.274 C 
BRANCH  45  46
HETATM   46  N   UNK N   1      23.360  19.444   3.219  0.00  0.00     0.091 N 
HETATM   47  C   UNK N   1      22.447  20.527   2.868  0.00  0.00     0.302 C 
HETATM   48  C   UNK N   1      21.138  19.924   2.354  0.00  0.00     0.302 C 
HETATM   49  N   UNK N   1      20.539  19.059   3.375  0.00  0.00     0.087 N 
HETATM   50  C   UNK N   1      21.485  18.026   3.788  0.00  0.00     0.302 C 
HETATM   51  C   UNK N   1      19.426  18.370   2.749  0.00  0.00     0.310 C 
HETATM   52  C   UNK N   1      22.755  18.678   4.305  0.00  0.00     0.302 C 
ENDBRANCH  45  46
ENDBRANCH  44  45
ENDBRANCH  43  44
ENDBRANCH  42  43
ENDBRANCH  33  42
ENDBRANCH   1  28
TORSDOF 11
ENDMDL
