MODEL 1
REMARK VINA RESULT:      -8.1      0.000      0.000
REMARK  6 active torsions:
REMARK  status: ('A' for Active; 'I' for Inactive)
REMARK    1  A    between atoms: C_2  and  C_3 
REMARK    2  A    between atoms: C_3  and  C_4 
REMARK    3  A    between atoms: C_3  and  N_12 
REMARK    4  A    between atoms: N_12  and  C_13 
REMARK    5  A    between atoms: C_23  and  C_24 
REMARK    6  A    between atoms: C_27  and  O_31 
ROOT
HETATM    1  C   UNK N   1      28.880  17.273   4.232  0.00  0.00     0.127 A 
HETATM    2  C   UNK N   1      28.599  16.170   3.414  0.00  0.00     0.074 A 
HETATM    3  C   UNK N   1      27.303  16.047   2.873  0.00  0.00     0.010 A 
HETATM    4  N   UNK N   1      26.343  16.976   3.161  0.00  0.00    -0.344 N 
ATOM      5  HN  UNK N   1      25.403  16.887   2.773  1.00  0.00     0.167 HD
HETATM    6  C   UNK N   1      26.657  18.021   3.972  0.00  0.00     0.142 A 
HETATM    7  N   UNK N   1      27.884  18.152   4.474  0.00  0.00    -0.223 N 
HETATM    8  N   UNK N   1      27.952  19.227   5.235  0.00  0.00    -0.294 N 
ATOM      9  HN  UNK N   1      28.777  19.557   5.736  1.00  0.00     0.187 HD
HETATM   10  C   UNK N   1      26.735  19.811   5.236  0.00  0.00     0.037 A 
HETATM   11  C   UNK N   1      25.850  19.062   4.421  0.00  0.00     0.044 A 
HETATM   12  C   UNK N   1      26.510  21.075   5.981  0.00  0.00     0.070 C 
HETATM   13  C   UNK N   1      26.977  14.903   1.982  0.00  0.00     0.068 C 
ENDROOT
BRANCH   1  14
HETATM   14  N   UNK N   1      30.148  17.503   4.811  0.00  0.00    -0.363 N 
HETATM   15  H   UNK N   1      30.524  18.407   4.703  0.00  0.00     0.162 HD
BRANCH  14  16
HETATM   16  C   UNK N   1      30.947  16.554   5.543  0.00  0.00     0.160 C 
BRANCH  16  17
HETATM   17  C   UNK N   1      32.356  16.427   4.970  0.00  0.00     0.029 C 
HETATM   18  C   UNK N   1      32.690  17.607   4.079  0.00  0.00     0.007 C 
ENDBRANCH  16  17
BRANCH  16  19
HETATM   19  C   UNK N   1      30.986  17.082   6.942  0.00  0.00     0.171 A 
HETATM   20  N   UNK N   1      29.882  17.464   7.615  0.00  0.00    -0.325 N 
HETATM   21  C   UNK N   1      30.390  17.960   8.757  0.00  0.00     0.100 A 
ATOM     22  HN  UNK N   1      28.906  17.393   7.330  1.00  0.00     0.169 HD
HETATM   23  N   UNK N   1      31.733  17.880   8.774  0.00  0.00    -0.247 N 
HETATM   24  C   UNK N   1      29.569  18.562   9.840  0.00  0.00     0.091 C 
HETATM   25  O   UNK N   1      32.067  17.339   7.640  0.00  0.00    -0.221 OA
ATOM     26  HN  UNK N   1      32.358  18.181   9.521  1.00  0.00     0.196 HD
ENDBRANCH  16  19
ENDBRANCH  14  16
ENDBRANCH   1  14
BRANCH  11  27
HETATM   27  C   UNK N   1      24.401  19.237   4.034  0.00  0.00    -0.014 A 
HETATM   28  C   UNK N   1      24.116  20.294   3.150  0.00  0.00     0.016 A 
HETATM   29  C   UNK N   1      22.822  20.574   2.727  0.00  0.00     0.037 A 
HETATM   30  C   UNK N   1      21.755  19.792   3.175  0.00  0.00     0.068 A 
HETATM   31  C   UNK N   1      22.006  18.728   4.037  0.00  0.00     0.044 A 
HETATM   32  C   UNK N   1      23.304  18.436   4.474  0.00  0.00    -0.048 A 
HETATM   33  C   UNK N   1      23.438  17.251   5.352  0.00  0.00     0.049 C 
BRANCH  30  34
HETATM   34  O   UNK N   1      20.482  20.041   2.787  0.00  0.00    -0.356 OA
HETATM   35  C   UNK N   1      19.512  19.065   2.722  0.00  0.00     0.210 C 
ENDBRANCH  30  34
ENDBRANCH  11  27
TORSDOF 6
ENDMDL
MODEL 2
REMARK VINA RESULT:      -7.7      0.680      1.401
REMARK  6 active torsions:
REMARK  status: ('A' for Active; 'I' for Inactive)
REMARK    1  A    between atoms: C_2  and  C_3 
REMARK    2  A    between atoms: C_3  and  C_4 
REMARK    3  A    between atoms: C_3  and  N_12 
REMARK    4  A    between atoms: N_12  and  C_13 
REMARK    5  A    between atoms: C_23  and  C_24 
REMARK    6  A    between atoms: C_27  and  O_31 
ROOT
HETATM    1  C   UNK N   1      29.145  17.313   4.272  0.00  0.00     0.127 A 
HETATM    2  C   UNK N   1      28.934  16.219   3.422  0.00  0.00     0.074 A 
HETATM    3  C   UNK N   1      27.629  15.983   2.942  0.00  0.00     0.010 A 
HETATM    4  N   UNK N   1      26.597  16.797   3.317  0.00  0.00    -0.344 N 
ATOM      5  HN  UNK N   1      25.651  16.626   2.973  1.00  0.00     0.167 HD
HETATM    6  C   UNK N   1      26.848  17.836   4.155  0.00  0.00     0.142 A 
HETATM    7  N   UNK N   1      28.080  18.074   4.600  0.00  0.00    -0.223 N 
HETATM    8  N   UNK N   1      28.080  19.121   5.403  0.00  0.00    -0.294 N 
ATOM      9  HN  UNK N   1      28.894  19.516   5.876  1.00  0.00     0.187 HD
HETATM   10  C   UNK N   1      26.812  19.577   5.491  0.00  0.00     0.037 A 
HETATM   11  C   UNK N   1      25.965  18.771   4.690  0.00  0.00     0.044 A 
HETATM   12  C   UNK N   1      26.502  20.782   6.299  0.00  0.00     0.070 C 
HETATM   13  C   UNK N   1      27.373  14.846   2.020  0.00  0.00     0.068 C 
ENDROOT
BRANCH   1  14
HETATM   14  N   UNK N   1      30.413  17.651   4.796  0.00  0.00    -0.363 N 
HETATM   15  H   UNK N   1      30.693  18.590   4.699  0.00  0.00     0.162 HD
BRANCH  14  16
HETATM   16  C   UNK N   1      31.338  16.765   5.456  0.00  0.00     0.160 C 
BRANCH  16  17
HETATM   17  C   UNK N   1      32.756  16.905   4.912  0.00  0.00     0.029 C 
HETATM   18  C   UNK N   1      32.747  17.067   3.404  0.00  0.00     0.007 C 
ENDBRANCH  16  17
BRANCH  16  19
HETATM   19  C   UNK N   1      31.279  17.154   6.899  0.00  0.00     0.171 A 
HETATM   20  N   UNK N   1      30.152  17.587   7.500  0.00  0.00    -0.325 N 
HETATM   21  C   UNK N   1      30.582  17.919   8.729  0.00  0.00     0.100 A 
ATOM     22  HN  UNK N   1      29.209  17.647   7.117  1.00  0.00     0.169 HD
HETATM   23  N   UNK N   1      31.902  17.696   8.867  0.00  0.00    -0.247 N 
HETATM   24  C   UNK N   1      29.714  18.503   9.785  0.00  0.00     0.091 C 
HETATM   25  O   UNK N   1      32.300  17.230   7.720  0.00  0.00    -0.221 OA
ATOM     26  HN  UNK N   1      32.471  17.860   9.697  1.00  0.00     0.196 HD
ENDBRANCH  16  19
ENDBRANCH  14  16
ENDBRANCH   1  14
BRANCH  11  27
HETATM   27  C   UNK N   1      24.487  18.810   4.383  0.00  0.00    -0.014 A 
HETATM   28  C   UNK N   1      23.680  17.900   5.091  0.00  0.00     0.016 A 
HETATM   29  C   UNK N   1      22.307  17.821   4.892  0.00  0.00     0.037 A 
HETATM   30  C   UNK N   1      21.684  18.664   3.970  0.00  0.00     0.068 A 
HETATM   31  C   UNK N   1      22.453  19.587   3.265  0.00  0.00     0.044 A 
HETATM   32  C   UNK N   1      23.837  19.676   3.452  0.00  0.00    -0.048 A 
HETATM   33  C   UNK N   1      24.528  20.729   2.674  0.00  0.00     0.049 C 
BRANCH  30  34
HETATM   34  O   UNK N   1      20.350  18.609   3.747  0.00  0.00    -0.356 OA
HETATM   35  C   UNK N   1      19.658  17.426   3.609  0.00  0.00     0.210 C 
ENDBRANCH  30  34
ENDBRANCH  11  27
TORSDOF 6
ENDMDL
MODEL 3
REMARK VINA RESULT:      -7.7      2.430      4.375
REMARK  6 active torsions:
REMARK  status: ('A' for Active; 'I' for Inactive)
REMARK    1  A    between atoms: C_2  and  C_3 
REMARK    2  A    between atoms: C_3  and  C_4 
REMARK    3  A    between atoms: C_3  and  N_12 
REMARK    4  A    between atoms: N_12  and  C_13 
REMARK    5  A    between atoms: C_23  and  C_24 
REMARK    6  A    between atoms: C_27  and  O_31 
ROOT
HETATM    1  C   UNK N   1      31.066  16.484   7.215  0.00  0.00     0.127 A 
HETATM    2  C   UNK N   1      30.611  17.120   8.378  0.00  0.00     0.074 A 
HETATM    3  C   UNK N   1      29.446  17.912   8.299  0.00  0.00     0.010 A 
HETATM    4  N   UNK N   1      28.794  18.065   7.108  0.00  0.00    -0.344 N 
ATOM      5  HN  UNK N   1      27.953  18.640   7.048  1.00  0.00     0.167 HD
HETATM    6  C   UNK N   1      29.282  17.441   6.004  0.00  0.00     0.142 A 
HETATM    7  N   UNK N   1      30.372  16.680   6.074  0.00  0.00    -0.223 N 
HETATM    8  N   UNK N   1      30.663  16.189   4.884  0.00  0.00    -0.294 N 
ATOM      9  HN  UNK N   1      31.445  15.574   4.662  1.00  0.00     0.187 HD
HETATM   10  C   UNK N   1      29.740  16.647   4.011  0.00  0.00     0.037 A 
HETATM   11  C   UNK N   1      28.811  17.471   4.694  0.00  0.00     0.044 A 
HETATM   12  C   UNK N   1      29.782  16.229   2.587  0.00  0.00     0.070 C 
HETATM   13  C   UNK N   1      28.922  18.582   9.518  0.00  0.00     0.068 C 
ENDROOT
BRANCH   1  14
HETATM   14  N   UNK N   1      32.210  15.656   7.185  0.00  0.00    -0.363 N 
HETATM   15  H   UNK N   1      32.052  14.685   7.240  0.00  0.00     0.162 HD
BRANCH  14  16
HETATM   16  C   UNK N   1      33.582  16.082   7.081  0.00  0.00     0.160 C 
BRANCH  16  17
HETATM   17  C   UNK N   1      33.709  17.454   6.425  0.00  0.00     0.029 C 
HETATM   18  C   UNK N   1      33.716  17.336   4.913  0.00  0.00     0.007 C 
ENDBRANCH  16  17
BRANCH  16  19
HETATM   19  C   UNK N   1      34.082  16.116   8.490  0.00  0.00     0.171 A 
HETATM   20  N   UNK N   1      34.312  15.004   9.216  0.00  0.00    -0.325 N 
HETATM   21  C   UNK N   1      34.633  15.502  10.423  0.00  0.00     0.100 A 
ATOM     22  HN  UNK N   1      34.257  14.029   8.923  1.00  0.00     0.169 HD
HETATM   23  N   UNK N   1      34.602  16.847  10.426  0.00  0.00    -0.247 N 
HETATM   24  C   UNK N   1      34.939  14.665  11.613  0.00  0.00     0.091 C 
HETATM   25  O   UNK N   1      34.254  17.192   9.222  0.00  0.00    -0.221 OA
ATOM     26  HN  UNK N   1      34.806  17.466  11.210  1.00  0.00     0.196 HD
ENDBRANCH  16  19
ENDBRANCH  14  16
ENDBRANCH   1  14
BRANCH  11  27
HETATM   27  C   UNK N   1      27.578  18.225   4.255  0.00  0.00    -0.014 A 
HETATM   28  C   UNK N   1      27.686  19.628   4.225  0.00  0.00     0.016 A 
HETATM   29  C   UNK N   1      26.620  20.441   3.856  0.00  0.00     0.037 A 
HETATM   30  C   UNK N   1      25.398  19.873   3.494  0.00  0.00     0.068 A 
HETATM   31  C   UNK N   1      25.265  18.486   3.498  0.00  0.00     0.044 A 
HETATM   32  C   UNK N   1      26.328  17.654   3.871  0.00  0.00    -0.048 A 
HETATM   33  C   UNK N   1      26.069  16.199   3.787  0.00  0.00     0.049 C 
BRANCH  30  34
HETATM   34  O   UNK N   1      24.339  20.635   3.135  0.00  0.00    -0.356 OA
HETATM   35  C   UNK N   1      23.051  20.152   3.072  0.00  0.00     0.210 C 
ENDBRANCH  30  34
ENDBRANCH  11  27
TORSDOF 6
ENDMDL
MODEL 4
REMARK VINA RESULT:      -7.7      2.049      4.098
REMARK  6 active torsions:
REMARK  status: ('A' for Active; 'I' for Inactive)
REMARK    1  A    between atoms: C_2  and  C_3 
REMARK    2  A    between atoms: C_3  and  C_4 
REMARK    3  A    between atoms: C_3  and  N_12 
REMARK    4  A    between atoms: N_12  and  C_13 
REMARK    5  A    between atoms: C_23  and  C_24 
REMARK    6  A    between atoms: C_27  and  O_31 
ROOT
HETATM    1  C   UNK N   1      30.970  16.541   6.651  0.00  0.00     0.127 A 
HETATM    2  C   UNK N   1      30.785  17.224   7.860  0.00  0.00     0.074 A 
HETATM    3  C   UNK N   1      29.540  17.842   8.099  0.00  0.00     0.010 A 
HETATM    4  N   UNK N   1      28.549  17.786   7.160  0.00  0.00    -0.344 N 
ATOM      5  HN  UNK N   1      27.648  18.235   7.329  1.00  0.00     0.167 HD
HETATM    6  C   UNK N   1      28.780  17.125   5.995  0.00  0.00     0.142 A 
HETATM    7  N   UNK N   1      29.948  16.527   5.769  0.00  0.00    -0.223 N 
HETATM    8  N   UNK N   1      29.947  15.962   4.576  0.00  0.00    -0.294 N 
ATOM      9  HN  UNK N   1      30.716  15.437   4.159  1.00  0.00     0.187 HD
HETATM   10  C   UNK N   1      28.748  16.203   4.005  0.00  0.00     0.037 A 
HETATM   11  C   UNK N   1      27.945  16.960   4.894  0.00  0.00     0.044 A 
HETATM   12  C   UNK N   1      28.433  15.653   2.663  0.00  0.00     0.070 C 
HETATM   13  C   UNK N   1      29.300  18.555   9.381  0.00  0.00     0.068 C 
ENDROOT
BRANCH   1  14
HETATM   14  N   UNK N   1      32.169  15.873   6.316  0.00  0.00    -0.363 N 
HETATM   15  H   UNK N   1      32.171  14.894   6.418  0.00  0.00     0.162 HD
BRANCH  14  16
HETATM   16  C   UNK N   1      33.389  16.476   5.842  0.00  0.00     0.160 C 
BRANCH  16  17
HETATM   17  C   UNK N   1      33.125  17.596   4.840  0.00  0.00     0.029 C 
HETATM   18  C   UNK N   1      32.935  17.043   3.442  0.00  0.00     0.007 C 
ENDBRANCH  16  17
BRANCH  16  19
HETATM   19  C   UNK N   1      34.059  17.005   7.069  0.00  0.00     0.171 A 
HETATM   20  N   UNK N   1      34.298  16.250   8.161  0.00  0.00    -0.325 N 
HETATM   21  C   UNK N   1      34.800  17.143   9.032  0.00  0.00     0.100 A 
ATOM     22  HN  UNK N   1      34.139  15.252   8.292  1.00  0.00     0.169 HD
HETATM   23  N   UNK N   1      34.864  18.374   8.494  0.00  0.00    -0.247 N 
HETATM   24  C   UNK N   1      35.190  16.813  10.428  0.00  0.00     0.091 C 
HETATM   25  O   UNK N   1      34.396  18.255   7.287  0.00  0.00    -0.221 OA
ATOM     26  HN  UNK N   1      35.206  19.224   8.941  1.00  0.00     0.196 HD
ENDBRANCH  16  19
ENDBRANCH  14  16
ENDBRANCH   1  14
BRANCH  11  27
HETATM   27  C   UNK N   1      26.535  17.495   4.814  0.00  0.00    -0.014 A 
HETATM   28  C   UNK N   1      25.510  16.606   5.184  0.00  0.00     0.016 A 
HETATM   29  C   UNK N   1      24.168  16.967   5.140  0.00  0.00     0.037 A 
HETATM   30  C   UNK N   1      23.801  18.249   4.725  0.00  0.00     0.068 A 
HETATM   31  C   UNK N   1      24.794  19.158   4.369  0.00  0.00     0.044 A 
HETATM   32  C   UNK N   1      26.149  18.807   4.404  0.00  0.00    -0.048 A 
HETATM   33  C   UNK N   1      27.103  19.880   4.044  0.00  0.00     0.049 C 
BRANCH  30  34
HETATM   34  O   UNK N   1      22.504  18.631   4.666  0.00  0.00    -0.356 OA
HETATM   35  C   UNK N   1      21.892  19.036   3.499  0.00  0.00     0.210 C 
ENDBRANCH  30  34
ENDBRANCH  11  27
TORSDOF 6
ENDMDL
MODEL 5
REMARK VINA RESULT:      -7.6      2.893      8.705
REMARK  6 active torsions:
REMARK  status: ('A' for Active; 'I' for Inactive)
REMARK    1  A    between atoms: C_2  and  C_3 
REMARK    2  A    between atoms: C_3  and  C_4 
REMARK    3  A    between atoms: C_3  and  N_12 
REMARK    4  A    between atoms: N_12  and  C_13 
REMARK    5  A    between atoms: C_23  and  C_24 
REMARK    6  A    between atoms: C_27  and  O_31 
ROOT
HETATM    1  C   UNK N   1      28.748  17.056   5.240  0.00  0.00     0.127 A 
HETATM    2  C   UNK N   1      29.415  16.361   4.221  0.00  0.00     0.074 A 
HETATM    3  C   UNK N   1      30.678  15.802   4.504  0.00  0.00     0.010 A 
HETATM    4  N   UNK N   1      31.240  15.955   5.740  0.00  0.00    -0.344 N 
ATOM      5  HN  UNK N   1      32.155  15.554   5.946  1.00  0.00     0.167 HD
HETATM    6  C   UNK N   1      30.562  16.650   6.692  0.00  0.00     0.142 A 
HETATM    7  N   UNK N   1      29.362  17.168   6.436  0.00  0.00    -0.223 N 
HETATM    8  N   UNK N   1      28.905  17.803   7.498  0.00  0.00    -0.294 N 
ATOM      9  HN  UNK N   1      28.009  18.285   7.570  1.00  0.00     0.187 HD
HETATM   10  C   UNK N   1      29.834  17.704   8.473  0.00  0.00     0.037 A 
HETATM   11  C   UNK N   1      30.939  16.955   7.997  0.00  0.00     0.044 A 
HETATM   12  C   UNK N   1      29.582  18.292   9.811  0.00  0.00     0.070 C 
HETATM   13  C   UNK N   1      31.403  15.039   3.455  0.00  0.00     0.068 C 
ENDROOT
BRANCH   1  14
HETATM   14  N   UNK N   1      27.473  17.640   5.070  0.00  0.00    -0.363 N 
HETATM   15  H   UNK N   1      26.718  17.186   5.512  0.00  0.00     0.162 HD
BRANCH  14  16
HETATM   16  C   UNK N   1      27.161  18.829   4.319  0.00  0.00     0.160 C 
BRANCH  16  17
HETATM   17  C   UNK N   1      25.828  18.713   3.585  0.00  0.00     0.029 C 
HETATM   18  C   UNK N   1      25.449  20.027   2.933  0.00  0.00     0.007 C 
ENDBRANCH  16  17
BRANCH  16  19
HETATM   19  C   UNK N   1      27.116  19.925   5.336  0.00  0.00     0.171 A 
HETATM   20  N   UNK N   1      26.209  19.968   6.333  0.00  0.00    -0.325 N 
HETATM   21  C   UNK N   1      26.469  21.151   6.917  0.00  0.00     0.100 A 
ATOM     22  HN  UNK N   1      25.503  19.276   6.581  1.00  0.00     0.169 HD
HETATM   23  N   UNK N   1      27.483  21.789   6.306  0.00  0.00    -0.247 N 
HETATM   24  C   UNK N   1      25.698  21.699   8.063  0.00  0.00     0.091 C 
HETATM   25  O   UNK N   1      27.856  21.009   5.335  0.00  0.00    -0.221 OA
ATOM     26  HN  UNK N   1      27.877  22.697   6.553  1.00  0.00     0.196 HD
ENDBRANCH  16  19
ENDBRANCH  14  16
ENDBRANCH   1  14
BRANCH  11  27
HETATM   27  C   UNK N   1      32.237  16.510   8.628  0.00  0.00    -0.014 A 
HETATM   28  C   UNK N   1      32.222  15.255   9.263  0.00  0.00     0.016 A 
HETATM   29  C   UNK N   1      33.344  14.735   9.897  0.00  0.00     0.037 A 
HETATM   30  C   UNK N   1      34.537  15.459   9.914  0.00  0.00     0.068 A 
HETATM   31  C   UNK N   1      34.589  16.698   9.279  0.00  0.00     0.044 A 
HETATM   32  C   UNK N   1      33.466  17.236   8.640  0.00  0.00    -0.048 A 
HETATM   33  C   UNK N   1      33.669  18.539   7.966  0.00  0.00     0.049 C 
BRANCH  30  34
HETATM   34  O   UNK N   1      35.647  14.985  10.527  0.00  0.00    -0.356 OA
HETATM   35  C   UNK N   1      35.651  14.527  11.826  0.00  0.00     0.210 C 
ENDBRANCH  30  34
ENDBRANCH  11  27
TORSDOF 6
ENDMDL
MODEL 6
REMARK VINA RESULT:      -7.6      3.028      4.713
REMARK  6 active torsions:
REMARK  status: ('A' for Active; 'I' for Inactive)
REMARK    1  A    between atoms: C_2  and  C_3 
REMARK    2  A    between atoms: C_3  and  C_4 
REMARK    3  A    between atoms: C_3  and  N_12 
REMARK    4  A    between atoms: N_12  and  C_13 
REMARK    5  A    between atoms: C_23  and  C_24 
REMARK    6  A    between atoms: C_27  and  O_31 
ROOT
HETATM    1  C   UNK N   1      31.846  16.329   6.764  0.00  0.00     0.127 A 
HETATM    2  C   UNK N   1      32.441  16.283   5.495  0.00  0.00     0.074 A 
HETATM    3  C   UNK N   1      31.755  16.866   4.410  0.00  0.00     0.010 A 
HETATM    4  N   UNK N   1      30.530  17.444   4.596  0.00  0.00    -0.344 N 
ATOM      5  HN  UNK N   1      30.031  17.864   3.811  1.00  0.00     0.167 HD
HETATM    6  C   UNK N   1      29.986  17.451   5.841  0.00  0.00     0.142 A 
HETATM    7  N   UNK N   1      30.635  16.915   6.874  0.00  0.00    -0.223 N 
HETATM    8  N   UNK N   1      29.914  17.028   7.973  0.00  0.00    -0.294 N 
ATOM      9  HN  UNK N   1      30.180  16.703   8.902  1.00  0.00     0.187 HD
HETATM   10  C   UNK N   1      28.759  17.648   7.649  0.00  0.00     0.037 A 
HETATM   11  C   UNK N   1      28.757  17.949   6.264  0.00  0.00     0.044 A 
HETATM   12  C   UNK N   1      27.753  17.954   8.696  0.00  0.00     0.070 C 
HETATM   13  C   UNK N   1      32.366  16.857   3.055  0.00  0.00     0.068 C 
ENDROOT
BRANCH   1  14
HETATM   14  N   UNK N   1      32.452  15.792   7.921  0.00  0.00    -0.363 N 
HETATM   15  H   UNK N   1      31.931  15.122   8.420  0.00  0.00     0.162 HD
BRANCH  14  16
HETATM   16  C   UNK N   1      33.753  16.122   8.447  0.00  0.00     0.160 C 
BRANCH  16  17
HETATM   17  C   UNK N   1      33.805  17.544   8.998  0.00  0.00     0.029 C 
HETATM   18  C   UNK N   1      34.565  18.463   8.061  0.00  0.00     0.007 C 
ENDBRANCH  16  17
BRANCH  16  19
HETATM   19  C   UNK N   1      33.994  15.121   9.530  0.00  0.00     0.171 A 
HETATM   20  N   UNK N   1      34.548  15.439  10.717  0.00  0.00    -0.325 N 
HETATM   21  C   UNK N   1      34.672  14.242  11.316  0.00  0.00     0.100 A 
ATOM     22  HN  UNK N   1      34.808  16.359  11.073  1.00  0.00     0.169 HD
HETATM   23  N   UNK N   1      34.213  13.249  10.532  0.00  0.00    -0.247 N 
HETATM   24  C   UNK N   1      35.282  14.041  12.656  0.00  0.00     0.091 C 
HETATM   25  O   UNK N   1      33.808  13.824   9.439  0.00  0.00    -0.221 OA
ATOM     26  HN  UNK N   1      34.190  12.253  10.749  1.00  0.00     0.196 HD
ENDBRANCH  16  19
ENDBRANCH  14  16
ENDBRANCH   1  14
BRANCH  11  27
HETATM   27  C   UNK N   1      27.768  18.641   5.357  0.00  0.00    -0.014 A 
HETATM   28  C   UNK N   1      27.116  17.828   4.411  0.00  0.00     0.016 A 
HETATM   29  C   UNK N   1      26.195  18.341   3.506  0.00  0.00     0.037 A 
HETATM   30  C   UNK N   1      25.885  19.703   3.519  0.00  0.00     0.068 A 
HETATM   31  C   UNK N   1      26.501  20.531   4.454  0.00  0.00     0.044 A 
HETATM   32  C   UNK N   1      27.433  20.029   5.369  0.00  0.00    -0.048 A 
HETATM   33  C   UNK N   1      27.978  21.006   6.338  0.00  0.00     0.049 C 
BRANCH  30  34
HETATM   34  O   UNK N   1      24.998  20.237   2.647  0.00  0.00    -0.356 OA
HETATM   35  C   UNK N   1      23.697  20.536   2.988  0.00  0.00     0.210 C 
ENDBRANCH  30  34
ENDBRANCH  11  27
TORSDOF 6
ENDMDL
MODEL 7
REMARK VINA RESULT:      -7.4      9.558     15.170
REMARK  6 active torsions:
REMARK  status: ('A' for Active; 'I' for Inactive)
REMARK    1  A    between atoms: C_2  and  C_3 
REMARK    2  A    between atoms: C_3  and  C_4 
REMARK    3  A    between atoms: C_3  and  N_12 
REMARK    4  A    between atoms: N_12  and  C_13 
REMARK    5  A    between atoms: C_23  and  C_24 
REMARK    6  A    between atoms: C_27  and  O_31 
ROOT
HETATM    1  C   UNK N   1      35.618  14.464  12.793  0.00  0.00     0.127 A 
HETATM    2  C   UNK N   1      36.321  15.257  13.711  0.00  0.00     0.074 A 
HETATM    3  C   UNK N   1      36.746  14.668  14.920  0.00  0.00     0.010 A 
HETATM    4  N   UNK N   1      36.458  13.360  15.191  0.00  0.00    -0.344 N 
ATOM      5  HN  UNK N   1      36.762  12.933  16.066  1.00  0.00     0.167 HD
HETATM    6  C   UNK N   1      35.760  12.635  14.277  0.00  0.00     0.142 A 
HETATM    7  N   UNK N   1      35.369  13.180  13.126  0.00  0.00    -0.223 N 
HETATM    8  N   UNK N   1      34.703  12.297  12.407  0.00  0.00    -0.294 N 
ATOM      9  HN  UNK N   1      34.297  12.456  11.485  1.00  0.00     0.187 HD
HETATM   10  C   UNK N   1      34.652  11.144  13.110  0.00  0.00     0.037 A 
HETATM   11  C   UNK N   1      35.332  11.312  14.342  0.00  0.00     0.044 A 
HETATM   12  C   UNK N   1      33.995   9.944  12.535  0.00  0.00     0.070 C 
HETATM   13  C   UNK N   1      37.514  15.473  15.906  0.00  0.00     0.068 C 
ENDROOT
BRANCH   1  14
HETATM   14  N   UNK N   1      35.161  14.946  11.546  0.00  0.00    -0.363 N 
HETATM   15  H   UNK N   1      34.195  14.866  11.370  0.00  0.00     0.162 HD
BRANCH  14  16
HETATM   16  C   UNK N   1      35.960  15.543  10.506  0.00  0.00     0.160 C 
BRANCH  16  17
HETATM   17  C   UNK N   1      36.477  14.507   9.513  0.00  0.00     0.029 C 
HETATM   18  C   UNK N   1      37.910  14.122   9.823  0.00  0.00     0.007 C 
ENDBRANCH  16  17
BRANCH  16  19
HETATM   19  C   UNK N   1      35.048  16.519   9.834  0.00  0.00     0.171 A 
HETATM   20  N   UNK N   1      33.789  16.214   9.461  0.00  0.00    -0.325 N 
HETATM   21  C   UNK N   1      33.395  17.325   8.815  0.00  0.00     0.100 A 
ATOM     22  HN  UNK N   1      33.266  15.356   9.629  1.00  0.00     0.169 HD
HETATM   23  N   UNK N   1      34.367  18.257   8.800  0.00  0.00    -0.247 N 
HETATM   24  C   UNK N   1      32.070  17.482   8.161  0.00  0.00     0.091 C 
HETATM   25  O   UNK N   1      35.371  17.726   9.432  0.00  0.00    -0.221 OA
ATOM     26  HN  UNK N   1      34.323  19.185   8.379  1.00  0.00     0.196 HD
ENDBRANCH  16  19
ENDBRANCH  14  16
ENDBRANCH   1  14
BRANCH  11  27
HETATM   27  C   UNK N   1      35.617  10.387  15.501  0.00  0.00    -0.014 A 
HETATM   28  C   UNK N   1      34.576  10.220  16.434  0.00  0.00     0.016 A 
HETATM   29  C   UNK N   1      34.713   9.410  17.555  0.00  0.00     0.037 A 
HETATM   30  C   UNK N   1      35.909   8.725  17.782  0.00  0.00     0.068 A 
HETATM   31  C   UNK N   1      36.952   8.857  16.868  0.00  0.00     0.044 A 
HETATM   32  C   UNK N   1      36.830   9.672  15.737  0.00  0.00    -0.048 A 
HETATM   33  C   UNK N   1      37.995   9.688  14.823  0.00  0.00     0.049 C 
BRANCH  30  34
HETATM   34  O   UNK N   1      36.078   7.933  18.866  0.00  0.00    -0.356 OA
HETATM   35  C   UNK N   1      35.266   6.855  19.144  0.00  0.00     0.210 C 
ENDBRANCH  30  34
ENDBRANCH  11  27
TORSDOF 6
ENDMDL
MODEL 8
REMARK VINA RESULT:      -7.2      2.498      8.631
REMARK  6 active torsions:
REMARK  status: ('A' for Active; 'I' for Inactive)
REMARK    1  A    between atoms: C_2  and  C_3 
REMARK    2  A    between atoms: C_3  and  C_4 
REMARK    3  A    between atoms: C_3  and  N_12 
REMARK    4  A    between atoms: N_12  and  C_13 
REMARK    5  A    between atoms: C_23  and  C_24 
REMARK    6  A    between atoms: C_27  and  O_31 
ROOT
HETATM    1  C   UNK N   1      24.567  17.562   4.728  0.00  0.00     0.127 A 
HETATM    2  C   UNK N   1      24.516  16.182   4.491  0.00  0.00     0.074 A 
HETATM    3  C   UNK N   1      25.650  15.404   4.800  0.00  0.00     0.010 A 
HETATM    4  N   UNK N   1      26.777  15.993   5.301  0.00  0.00    -0.344 N 
ATOM      5  HN  UNK N   1      27.600  15.433   5.523  1.00  0.00     0.167 HD
HETATM    6  C   UNK N   1      26.785  17.338   5.500  0.00  0.00     0.142 A 
HETATM    7  N   UNK N   1      25.712  18.077   5.225  0.00  0.00    -0.223 N 
HETATM    8  N   UNK N   1      25.955  19.347   5.485  0.00  0.00    -0.294 N 
ATOM      9  HN  UNK N   1      25.301  20.121   5.365  1.00  0.00     0.187 HD
HETATM   10  C   UNK N   1      27.223  19.442   5.937  0.00  0.00     0.037 A 
HETATM   11  C   UNK N   1      27.812  18.153   5.969  0.00  0.00     0.044 A 
HETATM   12  C   UNK N   1      27.775  20.756   6.354  0.00  0.00     0.070 C 
HETATM   13  C   UNK N   1      25.622  13.934   4.583  0.00  0.00     0.068 C 
ENDROOT
BRANCH   1  14
HETATM   14  N   UNK N   1      23.484  18.432   4.471  0.00  0.00    -0.363 N 
HETATM   15  H   UNK N   1      23.711  19.339   4.162  0.00  0.00     0.162 HD
BRANCH  14  16
HETATM   16  C   UNK N   1      22.082  18.129   4.613  0.00  0.00     0.160 C 
BRANCH  16  17
HETATM   17  C   UNK N   1      21.625  18.197   6.067  0.00  0.00     0.029 C 
HETATM   18  C   UNK N   1      21.352  16.811   6.618  0.00  0.00     0.007 C 
ENDBRANCH  16  17
BRANCH  16  19
HETATM   19  C   UNK N   1      21.381  19.158   3.785  0.00  0.00     0.171 A 
HETATM   20  N   UNK N   1      21.522  19.246   2.447  0.00  0.00    -0.325 N 
HETATM   21  C   UNK N   1      20.818  20.352   2.149  0.00  0.00     0.100 A 
ATOM     22  HN  UNK N   1      22.033  18.628   1.818  1.00  0.00     0.169 HD
HETATM   23  N   UNK N   1      20.277  20.904   3.250  0.00  0.00    -0.247 N 
HETATM   24  C   UNK N   1      20.696  20.916   0.779  0.00  0.00     0.091 C 
HETATM   25  O   UNK N   1      20.647  20.146   4.240  0.00  0.00    -0.221 OA
ATOM     26  HN  UNK N   1      19.698  21.742   3.298  1.00  0.00     0.196 HD
ENDBRANCH  16  19
ENDBRANCH  14  16
ENDBRANCH   1  14
BRANCH  11  27
HETATM   27  C   UNK N   1      29.169  17.645   6.393  0.00  0.00    -0.014 A 
HETATM   28  C   UNK N   1      29.407  17.590   7.779  0.00  0.00     0.016 A 
HETATM   29  C   UNK N   1      30.620  17.157   8.303  0.00  0.00     0.037 A 
HETATM   30  C   UNK N   1      31.647  16.754   7.448  0.00  0.00     0.068 A 
HETATM   31  C   UNK N   1      31.436  16.781   6.071  0.00  0.00     0.044 A 
HETATM   32  C   UNK N   1      30.222  17.218   5.529  0.00  0.00    -0.048 A 
HETATM   33  C   UNK N   1      30.113  17.154   4.054  0.00  0.00     0.049 C 
BRANCH  30  34
HETATM   34  O   UNK N   1      32.842  16.332   7.924  0.00  0.00    -0.356 OA
HETATM   35  C   UNK N   1      32.983  15.676   9.127  0.00  0.00     0.210 C 
ENDBRANCH  30  34
ENDBRANCH  11  27
TORSDOF 6
ENDMDL
MODEL 9
REMARK VINA RESULT:      -7.1      2.131      3.496
REMARK  6 active torsions:
REMARK  status: ('A' for Active; 'I' for Inactive)
REMARK    1  A    between atoms: C_2  and  C_3 
REMARK    2  A    between atoms: C_3  and  C_4 
REMARK    3  A    between atoms: C_3  and  N_12 
REMARK    4  A    between atoms: N_12  and  C_13 
REMARK    5  A    between atoms: C_23  and  C_24 
REMARK    6  A    between atoms: C_27  and  O_31 
ROOT
HETATM    1  C   UNK N   1      29.024  16.258   5.818  0.00  0.00     0.127 A 
HETATM    2  C   UNK N   1      29.072  17.123   6.921  0.00  0.00     0.074 A 
HETATM    3  C   UNK N   1      28.078  18.117   7.038  0.00  0.00     0.010 A 
HETATM    4  N   UNK N   1      27.107  18.239   6.085  0.00  0.00    -0.344 N 
ATOM      5  HN  UNK N   1      26.389  18.960   6.166  1.00  0.00     0.167 HD
HETATM    6  C   UNK N   1      27.111  17.388   5.026  0.00  0.00     0.142 A 
HETATM    7  N   UNK N   1      28.036  16.437   4.916  0.00  0.00    -0.223 N 
HETATM    8  N   UNK N   1      27.848  15.743   3.810  0.00  0.00    -0.294 N 
ATOM      9  HN  UNK N   1      28.415  14.958   3.489  1.00  0.00     0.187 HD
HETATM   10  C   UNK N   1      26.774  16.259   3.175  0.00  0.00     0.037 A 
HETATM   11  C   UNK N   1      26.251  17.338   3.931  0.00  0.00     0.044 A 
HETATM   12  C   UNK N   1      26.289  15.655   1.909  0.00  0.00     0.070 C 
HETATM   13  C   UNK N   1      28.084  19.036   8.207  0.00  0.00     0.068 C 
ENDROOT
BRANCH   1  14
HETATM   14  N   UNK N   1      29.957  15.218   5.612  0.00  0.00    -0.363 N 
HETATM   15  H   UNK N   1      29.611  14.298   5.671  0.00  0.00     0.162 HD
BRANCH  14  16
HETATM   16  C   UNK N   1      31.362  15.363   5.323  0.00  0.00     0.160 C 
BRANCH  16  17
HETATM   17  C   UNK N   1      31.735  16.806   4.995  0.00  0.00     0.029 C 
HETATM   18  C   UNK N   1      32.657  16.870   3.794  0.00  0.00     0.007 C 
ENDBRANCH  16  17
BRANCH  16  19
HETATM   19  C   UNK N   1      32.058  14.900   6.563  0.00  0.00     0.171 A 
HETATM   20  N   UNK N   1      33.014  15.621   7.184  0.00  0.00    -0.325 N 
HETATM   21  C   UNK N   1      33.422  14.791   8.159  0.00  0.00     0.100 A 
ATOM     22  HN  UNK N   1      33.343  16.561   6.968  1.00  0.00     0.169 HD
HETATM   23  N   UNK N   1      32.747  13.628   8.132  0.00  0.00    -0.247 N 
HETATM   24  C   UNK N   1      34.516  15.106   9.115  0.00  0.00     0.091 C 
HETATM   25  O   UNK N   1      31.918  13.727   7.135  0.00  0.00    -0.221 OA
ATOM     26  HN  UNK N   1      32.861  12.834   8.761  1.00  0.00     0.196 HD
ENDBRANCH  16  19
ENDBRANCH  14  16
ENDBRANCH   1  14
BRANCH  11  27
HETATM   27  C   UNK N   1      25.072  18.262   3.739  0.00  0.00    -0.014 A 
HETATM   28  C   UNK N   1      23.801  17.703   3.962  0.00  0.00     0.016 A 
HETATM   29  C   UNK N   1      22.633  18.439   3.803  0.00  0.00     0.037 A 
HETATM   30  C   UNK N   1      22.697  19.779   3.417  0.00  0.00     0.068 A 
HETATM   31  C   UNK N   1      23.942  20.367   3.206  0.00  0.00     0.044 A 
HETATM   32  C   UNK N   1      25.127  19.637   3.357  0.00  0.00    -0.048 A 
HETATM   33  C   UNK N   1      26.383  20.392   3.147  0.00  0.00     0.049 C 
BRANCH  30  34
HETATM   34  O   UNK N   1      21.579  20.524   3.249  0.00  0.00    -0.356 OA
HETATM   35  C   UNK N   1      20.661  20.286   2.250  0.00  0.00     0.210 C 
ENDBRANCH  30  34
ENDBRANCH  11  27
TORSDOF 6
ENDMDL
