MODEL 1
REMARK VINA RESULT:      -7.3      0.000      0.000
REMARK  18 active torsions:
REMARK  status: ('A' for Active; 'I' for Inactive)
REMARK    1  A    between atoms: C_3  and  N_2 
REMARK       I    between atoms: N_2  and  C_41 
REMARK    2  A    between atoms: C_3  and  C_4 
REMARK    3  A    between atoms: C_3  and  C_12 
REMARK    4  A    between atoms: C_4  and  C_5 
REMARK       I    between atoms: C_12  and  N_14 
REMARK    5  A    between atoms: N_14  and  C_15 
REMARK    6  A    between atoms: N_14  and  C_22 
REMARK    7  A    between atoms: C_15  and  C_16 
REMARK    8  A    between atoms: C_22  and  C_23 
REMARK    9  A    between atoms: C_22  and  C_32 
REMARK   10  A    between atoms: C_23  and  C_24 
REMARK   11  A    between atoms: C_24  and  C_25 
REMARK   12  A    between atoms: C_32  and  C_33 
REMARK   13  A    between atoms: C_33  and  C_34 
REMARK   14  A    between atoms: C_41  and  C_43 
REMARK   15  A    between atoms: C_43  and  C_45 
REMARK   16  A    between atoms: C_47  and  O_55 
REMARK   17  A    between atoms: C_48  and  O_53 
REMARK   18  A    between atoms: C_49  and  O_51 
ROOT
HETATM    1  C   UNK N   1      25.941  14.620   3.731  0.00  0.00     0.243 C 
HETATM    2  O   UNK N   1      25.891  14.112   2.618  0.00  0.00    -0.271 OA
HETATM    3  N   UNK N   1      25.056  14.225   4.694  0.00  0.00    -0.341 N 
ENDROOT
BRANCH   1   4
HETATM    4  C   UNK N   1      27.033  15.633   4.036  0.00  0.00     0.183 C 
BRANCH   4   5
HETATM    5  N   UNK N   1      28.397  15.117   3.757  0.00  0.00    -0.336 N 
HETATM    6  C   UNK N   1      29.108  15.517   2.560  0.00  0.00     0.154 C 
HETATM    7  C   UNK N   1      29.033  14.352   4.701  0.00  0.00     0.295 C 
HETATM    8  O   UNK N   1      28.404  13.955   5.661  0.00  0.00    -0.264 OA
BRANCH   7   9
HETATM    9  C   UNK N   1      30.497  14.016   4.653  0.00  0.00     0.249 C 
HETATM   10  O   UNK N   1      30.904  13.035   4.050  0.00  0.00    -0.281 OA
BRANCH   9  11
HETATM   11  C   UNK N   1      31.471  14.966   5.270  0.00  0.00     0.025 A 
HETATM   12  C   UNK N   1      32.842  14.885   5.004  0.00  0.00     0.055 A 
HETATM   13  C   UNK N   1      33.733  15.840   5.537  0.00  0.00     0.105 A 
HETATM   14  C   UNK N   1      33.246  16.906   6.314  0.00  0.00     0.135 A 
HETATM   15  C   UNK N   1      31.865  16.985   6.588  0.00  0.00     0.105 A 
HETATM   16  C   UNK N   1      31.004  16.020   6.069  0.00  0.00     0.055 A 
BRANCH  13  17
HETATM   17  O   UNK N   1      35.068  15.752   5.322  0.00  0.00    -0.353 OA
HETATM   18  C   UNK N   1      35.837  14.697   5.752  0.00  0.00     0.210 C 
ENDBRANCH  13  17
BRANCH  14  19
HETATM   19  O   UNK N   1      34.140  17.811   6.800  0.00  0.00    -0.351 OA
HETATM   20  C   UNK N   1      34.565  17.902   8.107  0.00  0.00     0.210 C 
ENDBRANCH  14  19
BRANCH  15  21
HETATM   21  O   UNK N   1      31.383  17.976   7.367  0.00  0.00    -0.353 OA
HETATM   22  C   UNK N   1      30.698  17.713   8.526  0.00  0.00     0.210 C 
ENDBRANCH  15  21
ENDBRANCH   9  11
ENDBRANCH   7   9
ENDBRANCH   4   5
BRANCH   4  23
HETATM   23  C   UNK N   1      26.767  16.919   3.231  0.00  0.00     0.073 C 
BRANCH  23  24
HETATM   24  C   UNK N   1      26.854  18.210   4.009  0.00  0.00    -0.056 A 
HETATM   25  C   UNK N   1      27.588  18.238   5.200  0.00  0.00     0.009 A 
HETATM   26  C   UNK N   1      27.706  19.427   5.929  0.00  0.00     0.024 A 
HETATM   27  C   UNK N   1      27.092  20.596   5.470  0.00  0.00     0.034 A 
HETATM   28  C   UNK N   1      26.357  20.577   4.285  0.00  0.00     0.024 A 
HETATM   29 Cl   UNK N   1      27.254  22.088   6.371  0.00  0.00    -0.084 Cl
HETATM   30  C   UNK N   1      26.242  19.392   3.555  0.00  0.00     0.009 A 
ENDBRANCH  23  24
ENDBRANCH   4  23
ENDBRANCH   1   4
BRANCH   3  31
HETATM   31  C   UNK N   1      24.987  14.917   5.975  0.00  0.00     0.164 C 
BRANCH  31  32
HETATM   32  C   UNK N   1      23.811  15.874   6.005  0.00  0.00    -0.040 A 
HETATM   33  C   UNK N   1      22.704  15.606   6.814  0.00  0.00     0.009 A 
HETATM   34  C   UNK N   1      21.619  16.490   6.857  0.00  0.00     0.001 A 
HETATM   35  C   UNK N   1      21.629  17.649   6.078  0.00  0.00     0.000 A 
HETATM   36  C   UNK N   1      22.722  17.918   5.252  0.00  0.00     0.001 A 
HETATM   37  C   UNK N   1      23.805  17.034   5.217  0.00  0.00     0.009 A 
ENDBRANCH  31  32
ENDBRANCH   3  31
BRANCH   3  38
HETATM   38  C   UNK N   1      24.319  12.982   4.489  0.00  0.00     0.088 C 
BRANCH  38  39
HETATM   39  C   UNK N   1      22.839  13.203   4.281  0.00  0.00     0.030 C 
BRANCH  39  40
HETATM   40  C   UNK N   1      22.564  13.908   2.972  0.00  0.00     0.041 C 
BRANCH  40  41
HETATM   41  C   UNK N   1      21.365  14.759   3.182  0.00  0.00    -0.056 A 
HETATM   42  C   UNK N   1      21.238  15.978   2.513  0.00  0.00     0.024 A 
HETATM   43  C   UNK N   1      20.133  16.789   2.781  0.00  0.00     0.088 A 
HETATM   44  N   UNK N   1      19.199  16.394   3.691  0.00  0.00    -0.375 N 
HETATM   45  C   UNK N   1      19.310  15.211   4.354  0.00  0.00     0.088 A 
ATOM     46  HN  UNK N   1      18.400  16.998   3.878  1.00  0.00     0.164 HD
HETATM   47  C   UNK N   1      20.399  14.373   4.113  0.00  0.00     0.024 A 
ENDBRANCH  40  41
ENDBRANCH  39  40
ENDBRANCH  38  39
BRANCH  38  48
HETATM   48  C   UNK N   1      24.471  12.087   5.712  0.00  0.00     0.030 C 
BRANCH  48  49
HETATM   49  C   UNK N   1      23.137  11.864   6.419  0.00  0.00     0.041 C 
BRANCH  49  50
HETATM   50  C   UNK N   1      23.140  12.256   7.869  0.00  0.00    -0.056 A 
HETATM   51  C   UNK N   1      24.328  12.389   8.601  0.00  0.00     0.024 A 
HETATM   52  C   UNK N   1      24.269  12.731   9.953  0.00  0.00     0.088 A 
HETATM   53  N   UNK N   1      23.065  12.928  10.555  0.00  0.00    -0.375 N 
HETATM   54  C   UNK N   1      21.899  12.808   9.865  0.00  0.00     0.088 A 
ATOM     55  HN  UNK N   1      23.036  13.173  11.545  1.00  0.00     0.164 HD
HETATM   56  C   UNK N   1      21.917  12.470   8.510  0.00  0.00     0.024 A 
ENDBRANCH  49  50
ENDBRANCH  48  49
ENDBRANCH  38  48
ENDBRANCH   3  38
TORSDOF 18
ENDMDL
MODEL 2
REMARK VINA RESULT:      -7.1      3.037      5.367
REMARK  18 active torsions:
REMARK  status: ('A' for Active; 'I' for Inactive)
REMARK    1  A    between atoms: C_3  and  N_2 
REMARK       I    between atoms: N_2  and  C_41 
REMARK    2  A    between atoms: C_3  and  C_4 
REMARK    3  A    between atoms: C_3  and  C_12 
REMARK    4  A    between atoms: C_4  and  C_5 
REMARK       I    between atoms: C_12  and  N_14 
REMARK    5  A    between atoms: N_14  and  C_15 
REMARK    6  A    between atoms: N_14  and  C_22 
REMARK    7  A    between atoms: C_15  and  C_16 
REMARK    8  A    between atoms: C_22  and  C_23 
REMARK    9  A    between atoms: C_22  and  C_32 
REMARK   10  A    between atoms: C_23  and  C_24 
REMARK   11  A    between atoms: C_24  and  C_25 
REMARK   12  A    between atoms: C_32  and  C_33 
REMARK   13  A    between atoms: C_33  and  C_34 
REMARK   14  A    between atoms: C_41  and  C_43 
REMARK   15  A    between atoms: C_43  and  C_45 
REMARK   16  A    between atoms: C_47  and  O_55 
REMARK   17  A    between atoms: C_48  and  O_53 
REMARK   18  A    between atoms: C_49  and  O_51 
ROOT
HETATM    1  C   UNK N   1      22.748  14.543   4.515  0.00  0.00     0.243 C 
HETATM    2  O   UNK N   1      22.370  13.379   4.552  0.00  0.00    -0.271 OA
HETATM    3  N   UNK N   1      22.404  15.396   5.526  0.00  0.00    -0.341 N 
ENDROOT
BRANCH   1   4
HETATM    4  C   UNK N   1      23.649  14.995   3.378  0.00  0.00     0.183 C 
BRANCH   4   5
HETATM    5  N   UNK N   1      25.090  14.989   3.742  0.00  0.00    -0.336 N 
HETATM    6  C   UNK N   1      25.710  13.798   4.284  0.00  0.00     0.154 C 
HETATM    7  C   UNK N   1      25.862  16.084   3.449  0.00  0.00     0.295 C 
HETATM    8  O   UNK N   1      25.322  17.104   3.071  0.00  0.00    -0.264 OA
BRANCH   7   9
HETATM    9  C   UNK N   1      27.363  16.084   3.509  0.00  0.00     0.249 C 
HETATM   10  O   UNK N   1      28.038  15.786   2.535  0.00  0.00    -0.281 OA
BRANCH   9  11
HETATM   11  C   UNK N   1      28.031  16.564   4.756  0.00  0.00     0.025 A 
HETATM   12  C   UNK N   1      29.166  15.928   5.271  0.00  0.00     0.055 A 
HETATM   13  C   UNK N   1      29.824  16.445   6.406  0.00  0.00     0.105 A 
HETATM   14  C   UNK N   1      29.364  17.628   7.013  0.00  0.00     0.135 A 
HETATM   15  C   UNK N   1      28.216  18.267   6.499  0.00  0.00     0.105 A 
HETATM   16  C   UNK N   1      27.570  17.727   5.388  0.00  0.00     0.055 A 
BRANCH  13  17
HETATM   17  O   UNK N   1      30.900  15.819   6.941  0.00  0.00    -0.353 OA
HETATM   18  C   UNK N   1      32.157  15.865   6.386  0.00  0.00     0.210 C 
ENDBRANCH  13  17
BRANCH  14  19
HETATM   19  O   UNK N   1      30.036  18.098   8.101  0.00  0.00    -0.351 OA
HETATM   20  C   UNK N   1      29.701  17.865   9.417  0.00  0.00     0.210 C 
ENDBRANCH  14  19
BRANCH  15  21
HETATM   21  O   UNK N   1      27.735  19.378   7.092  0.00  0.00    -0.353 OA
HETATM   22  C   UNK N   1      27.561  20.548   6.396  0.00  0.00     0.210 C 
ENDBRANCH  15  21
ENDBRANCH   9  11
ENDBRANCH   7   9
ENDBRANCH   4   5
BRANCH   4  23
HETATM   23  C   UNK N   1      23.400  14.101   2.150  0.00  0.00     0.073 C 
BRANCH  23  24
HETATM   24  C   UNK N   1      22.020  14.190   1.542  0.00  0.00    -0.056 A 
HETATM   25  C   UNK N   1      21.338  13.009   1.231  0.00  0.00     0.009 A 
HETATM   26  C   UNK N   1      20.048  13.061   0.689  0.00  0.00     0.024 A 
HETATM   27  C   UNK N   1      19.433  14.294   0.457  0.00  0.00     0.034 A 
HETATM   28  C   UNK N   1      20.106  15.477   0.764  0.00  0.00     0.024 A 
HETATM   29 Cl   UNK N   1      17.812  14.360  -0.202  0.00  0.00    -0.084 Cl
HETATM   30  C   UNK N   1      21.391  15.425   1.308  0.00  0.00     0.009 A 
ENDBRANCH  23  24
ENDBRANCH   4  23
ENDBRANCH   1   4
BRANCH   3  31
HETATM   31  C   UNK N   1      22.704  16.820   5.437  0.00  0.00     0.164 C 
BRANCH  31  32
HETATM   32  C   UNK N   1      21.745  17.512   4.488  0.00  0.00    -0.040 A 
HETATM   33  C   UNK N   1      22.178  18.588   3.709  0.00  0.00     0.009 A 
HETATM   34  C   UNK N   1      21.304  19.225   2.820  0.00  0.00     0.001 A 
HETATM   35  C   UNK N   1      19.980  18.795   2.712  0.00  0.00     0.000 A 
HETATM   36  C   UNK N   1      19.530  17.733   3.498  0.00  0.00     0.001 A 
HETATM   37  C   UNK N   1      20.410  17.097   4.380  0.00  0.00     0.009 A 
ENDBRANCH  31  32
ENDBRANCH   3  31
BRANCH   3  38
HETATM   38  C   UNK N   1      21.906  14.827   6.774  0.00  0.00     0.088 C 
BRANCH  38  39
HETATM   39  C   UNK N   1      21.273  15.857   7.680  0.00  0.00     0.030 C 
BRANCH  39  40
HETATM   40  C   UNK N   1      19.773  15.684   7.751  0.00  0.00     0.041 C 
BRANCH  40  41
HETATM   41  C   UNK N   1      19.255  16.752   8.643  0.00  0.00    -0.056 A 
HETATM   42  C   UNK N   1      17.986  16.642   9.216  0.00  0.00     0.024 A 
HETATM   43  C   UNK N   1      17.499  17.691   9.997  0.00  0.00     0.088 A 
HETATM   44  N   UNK N   1      18.252  18.810  10.187  0.00  0.00    -0.375 N 
HETATM   45  C   UNK N   1      19.488  18.936   9.632  0.00  0.00     0.088 A 
ATOM     46  HN  UNK N   1      17.882  19.570  10.756  1.00  0.00     0.164 HD
HETATM   47  C   UNK N   1      20.011  17.907   8.847  0.00  0.00     0.024 A 
ENDBRANCH  40  41
ENDBRANCH  39  40
ENDBRANCH  38  39
BRANCH  38  48
HETATM   48  C   UNK N   1      23.056  14.198   7.547  0.00  0.00     0.030 C 
BRANCH  48  49
HETATM   49  C   UNK N   1      22.788  12.730   7.868  0.00  0.00     0.041 C 
BRANCH  49  50
HETATM   50  C   UNK N   1      22.569  12.452   9.327  0.00  0.00    -0.056 A 
HETATM   51  C   UNK N   1      23.610  12.041  10.171  0.00  0.00     0.024 A 
HETATM   52  C   UNK N   1      23.342  11.772  11.515  0.00  0.00     0.088 A 
HETATM   53  N   UNK N   1      22.077  11.904  11.998  0.00  0.00    -0.375 N 
HETATM   54  C   UNK N   1      21.051  12.303  11.199  0.00  0.00     0.088 A 
ATOM     55  HN  UNK N   1      21.894  11.699  12.980  1.00  0.00     0.164 HD
HETATM   56  C   UNK N   1      21.280  12.584   9.851  0.00  0.00     0.024 A 
ENDBRANCH  49  50
ENDBRANCH  48  49
ENDBRANCH  38  48
ENDBRANCH   3  38
TORSDOF 18
ENDMDL
MODEL 3
REMARK VINA RESULT:      -7.1      0.653      1.947
REMARK  18 active torsions:
REMARK  status: ('A' for Active; 'I' for Inactive)
REMARK    1  A    between atoms: C_3  and  N_2 
REMARK       I    between atoms: N_2  and  C_41 
REMARK    2  A    between atoms: C_3  and  C_4 
REMARK    3  A    between atoms: C_3  and  C_12 
REMARK    4  A    between atoms: C_4  and  C_5 
REMARK       I    between atoms: C_12  and  N_14 
REMARK    5  A    between atoms: N_14  and  C_15 
REMARK    6  A    between atoms: N_14  and  C_22 
REMARK    7  A    between atoms: C_15  and  C_16 
REMARK    8  A    between atoms: C_22  and  C_23 
REMARK    9  A    between atoms: C_22  and  C_32 
REMARK   10  A    between atoms: C_23  and  C_24 
REMARK   11  A    between atoms: C_24  and  C_25 
REMARK   12  A    between atoms: C_32  and  C_33 
REMARK   13  A    between atoms: C_33  and  C_34 
REMARK   14  A    between atoms: C_41  and  C_43 
REMARK   15  A    between atoms: C_43  and  C_45 
REMARK   16  A    between atoms: C_47  and  O_55 
REMARK   17  A    between atoms: C_48  and  O_53 
REMARK   18  A    between atoms: C_49  and  O_51 
ROOT
HETATM    1  C   UNK N   1      26.541  14.627   3.773  0.00  0.00     0.243 C 
HETATM    2  O   UNK N   1      26.635  14.048   2.698  0.00  0.00    -0.271 OA
HETATM    3  N   UNK N   1      25.588  14.233   4.670  0.00  0.00    -0.341 N 
ENDROOT
BRANCH   1   4
HETATM    4  C   UNK N   1      27.532  15.728   4.112  0.00  0.00     0.183 C 
BRANCH   4   5
HETATM    5  N   UNK N   1      28.937  15.359   3.804  0.00  0.00    -0.336 N 
HETATM    6  C   UNK N   1      29.656  16.017   2.733  0.00  0.00     0.154 C 
HETATM    7  C   UNK N   1      29.594  14.473   4.620  0.00  0.00     0.295 C 
HETATM    8  O   UNK N   1      28.963  13.867   5.463  0.00  0.00    -0.264 OA
BRANCH   7   9
HETATM    9  C   UNK N   1      31.078  14.245   4.577  0.00  0.00     0.249 C 
HETATM   10  O   UNK N   1      31.570  13.401   3.842  0.00  0.00    -0.281 OA
BRANCH   9  11
HETATM   11  C   UNK N   1      31.966  15.145   5.372  0.00  0.00     0.025 A 
HETATM   12  C   UNK N   1      31.445  16.065   6.288  0.00  0.00     0.055 A 
HETATM   13  C   UNK N   1      32.306  16.850   7.083  0.00  0.00     0.105 A 
HETATM   14  C   UNK N   1      33.700  16.690   6.986  0.00  0.00     0.135 A 
HETATM   15  C   UNK N   1      34.227  15.767   6.059  0.00  0.00     0.105 A 
HETATM   16  C   UNK N   1      33.359  15.016   5.269  0.00  0.00     0.055 A 
BRANCH  13  17
HETATM   17  O   UNK N   1      31.819  17.774   7.946  0.00  0.00    -0.353 OA
HETATM   18  C   UNK N   1      30.540  17.741   8.449  0.00  0.00     0.210 C 
ENDBRANCH  13  17
BRANCH  14  19
HETATM   19  O   UNK N   1      34.495  17.461   7.780  0.00  0.00    -0.351 OA
HETATM   20  C   UNK N   1      34.823  17.196   9.092  0.00  0.00     0.210 C 
ENDBRANCH  14  19
BRANCH  15  21
HETATM   21  O   UNK N   1      35.562  15.629   5.922  0.00  0.00    -0.353 OA
HETATM   22  C   UNK N   1      36.219  14.508   6.363  0.00  0.00     0.210 C 
ENDBRANCH  15  21
ENDBRANCH   9  11
ENDBRANCH   7   9
ENDBRANCH   4   5
BRANCH   4  23
HETATM   23  C   UNK N   1      27.134  17.013   3.361  0.00  0.00     0.073 C 
BRANCH  23  24
HETATM   24  C   UNK N   1      27.011  18.257   4.208  0.00  0.00    -0.056 A 
HETATM   25  C   UNK N   1      26.246  19.328   3.734  0.00  0.00     0.009 A 
HETATM   26  C   UNK N   1      26.094  20.484   4.509  0.00  0.00     0.024 A 
HETATM   27  C   UNK N   1      26.705  20.575   5.762  0.00  0.00     0.034 A 
HETATM   28  C   UNK N   1      27.471  19.512   6.243  0.00  0.00     0.024 A 
HETATM   29 Cl   UNK N   1      26.500  22.012   6.741  0.00  0.00    -0.084 Cl
HETATM   30  C   UNK N   1      27.619  18.357   5.472  0.00  0.00     0.009 A 
ENDBRANCH  23  24
ENDBRANCH   4  23
ENDBRANCH   1   4
BRANCH   3  31
HETATM   31  C   UNK N   1      25.346  14.997   5.887  0.00  0.00     0.164 C 
BRANCH  31  32
HETATM   32  C   UNK N   1      24.051  15.778   5.782  0.00  0.00    -0.040 A 
HETATM   33  C   UNK N   1      23.002  15.526   6.669  0.00  0.00     0.009 A 
HETATM   34  C   UNK N   1      21.806  16.251   6.588  0.00  0.00     0.001 A 
HETATM   35  C   UNK N   1      21.647  17.230   5.605  0.00  0.00     0.000 A 
HETATM   36  C   UNK N   1      22.682  17.479   4.701  0.00  0.00     0.001 A 
HETATM   37  C   UNK N   1      23.875  16.755   4.791  0.00  0.00     0.009 A 
ENDBRANCH  31  32
ENDBRANCH   3  31
BRANCH   3  38
HETATM   38  C   UNK N   1      24.953  12.932   4.480  0.00  0.00     0.088 C 
BRANCH  38  39
HETATM   39  C   UNK N   1      23.477  13.037   4.177  0.00  0.00     0.030 C 
BRANCH  39  40
HETATM   40  C   UNK N   1      23.234  13.631   2.808  0.00  0.00     0.041 C 
BRANCH  40  41
HETATM   41  C   UNK N   1      21.893  14.266   2.843  0.00  0.00    -0.056 A 
HETATM   42  C   UNK N   1      21.569  15.285   1.944  0.00  0.00     0.024 A 
HETATM   43  C   UNK N   1      20.324  15.910   2.043  0.00  0.00     0.088 A 
HETATM   44  N   UNK N   1      19.444  15.532   3.012  0.00  0.00    -0.375 N 
HETATM   45  C   UNK N   1      19.746  14.544   3.898  0.00  0.00     0.088 A 
ATOM     46  HN  UNK N   1      18.541  15.999   3.075  1.00  0.00     0.164 HD
HETATM   47  C   UNK N   1      20.979  13.894   3.830  0.00  0.00     0.024 A 
ENDBRANCH  40  41
ENDBRANCH  39  40
ENDBRANCH  38  39
BRANCH  38  48
HETATM   48  C   UNK N   1      25.091  12.104   5.750  0.00  0.00     0.030 C 
BRANCH  48  49
HETATM   49  C   UNK N   1      23.732  11.753   6.348  0.00  0.00     0.041 C 
BRANCH  49  50
HETATM   50  C   UNK N   1      23.547  12.223   7.763  0.00  0.00    -0.056 A 
HETATM   51  C   UNK N   1      24.625  12.643   8.554  0.00  0.00     0.024 A 
HETATM   52  C   UNK N   1      24.397  13.045   9.872  0.00  0.00     0.088 A 
HETATM   53  N   UNK N   1      23.137  13.022  10.383  0.00  0.00    -0.375 N 
HETATM   54  C   UNK N   1      22.074  12.621   9.635  0.00  0.00     0.088 A 
ATOM     55  HN  UNK N   1      22.985  13.314  11.349  1.00  0.00     0.164 HD
HETATM   56  C   UNK N   1      22.262  12.215   8.312  0.00  0.00     0.024 A 
ENDBRANCH  49  50
ENDBRANCH  48  49
ENDBRANCH  38  48
ENDBRANCH   3  38
TORSDOF 18
ENDMDL
MODEL 4
REMARK VINA RESULT:      -7.0      1.072      1.475
REMARK  18 active torsions:
REMARK  status: ('A' for Active; 'I' for Inactive)
REMARK    1  A    between atoms: C_3  and  N_2 
REMARK       I    between atoms: N_2  and  C_41 
REMARK    2  A    between atoms: C_3  and  C_4 
REMARK    3  A    between atoms: C_3  and  C_12 
REMARK    4  A    between atoms: C_4  and  C_5 
REMARK       I    between atoms: C_12  and  N_14 
REMARK    5  A    between atoms: N_14  and  C_15 
REMARK    6  A    between atoms: N_14  and  C_22 
REMARK    7  A    between atoms: C_15  and  C_16 
REMARK    8  A    between atoms: C_22  and  C_23 
REMARK    9  A    between atoms: C_22  and  C_32 
REMARK   10  A    between atoms: C_23  and  C_24 
REMARK   11  A    between atoms: C_24  and  C_25 
REMARK   12  A    between atoms: C_32  and  C_33 
REMARK   13  A    between atoms: C_33  and  C_34 
REMARK   14  A    between atoms: C_41  and  C_43 
REMARK   15  A    between atoms: C_43  and  C_45 
REMARK   16  A    between atoms: C_47  and  O_55 
REMARK   17  A    between atoms: C_48  and  O_53 
REMARK   18  A    between atoms: C_49  and  O_51 
ROOT
HETATM    1  C   UNK N   1      24.819  14.836   3.420  0.00  0.00     0.243 C 
HETATM    2  O   UNK N   1      24.663  14.540   2.243  0.00  0.00    -0.271 OA
HETATM    3  N   UNK N   1      23.917  14.401   4.350  0.00  0.00    -0.341 N 
ENDROOT
BRANCH   1   4
HETATM    4  C   UNK N   1      26.051  15.624   3.830  0.00  0.00     0.183 C 
BRANCH   4   5
HETATM    5  N   UNK N   1      27.316  14.871   3.627  0.00  0.00    -0.336 N 
HETATM    6  C   UNK N   1      28.010  14.923   2.358  0.00  0.00     0.154 C 
HETATM    7  C   UNK N   1      27.890  14.222   4.690  0.00  0.00     0.295 C 
HETATM    8  O   UNK N   1      27.263  14.116   5.726  0.00  0.00    -0.264 OA
BRANCH   7   9
HETATM    9  C   UNK N   1      29.289  13.675   4.676  0.00  0.00     0.249 C 
HETATM   10  O   UNK N   1      29.526  12.547   4.271  0.00  0.00    -0.281 OA
BRANCH   9  11
HETATM   11  C   UNK N   1      30.415  14.576   5.065  0.00  0.00     0.025 A 
HETATM   12  C   UNK N   1      31.696  14.423   4.525  0.00  0.00     0.055 A 
HETATM   13  C   UNK N   1      32.724  15.333   4.849  0.00  0.00     0.105 A 
HETATM   14  C   UNK N   1      32.461  16.425   5.696  0.00  0.00     0.135 A 
HETATM   15  C   UNK N   1      31.171  16.576   6.247  0.00  0.00     0.105 A 
HETATM   16  C   UNK N   1      30.176  15.654   5.929  0.00  0.00     0.055 A 
BRANCH  13  17
HETATM   17  O   UNK N   1      33.980  15.176   4.366  0.00  0.00    -0.353 OA
HETATM   18  C   UNK N   1      34.887  14.284   4.888  0.00  0.00     0.210 C 
ENDBRANCH  13  17
BRANCH  14  19
HETATM   19  O   UNK N   1      33.480  17.285   5.975  0.00  0.00    -0.351 OA
HETATM   20  C   UNK N   1      34.233  17.295   7.129  0.00  0.00     0.210 C 
ENDBRANCH  14  19
BRANCH  15  21
HETATM   21  O   UNK N   1      30.911  17.593   7.094  0.00  0.00    -0.353 OA
HETATM   22  C   UNK N   1      30.383  17.374   8.342  0.00  0.00     0.210 C 
ENDBRANCH  15  21
ENDBRANCH   9  11
ENDBRANCH   7   9
ENDBRANCH   4   5
BRANCH   4  23
HETATM   23  C   UNK N   1      26.083  16.952   3.051  0.00  0.00     0.073 C 
BRANCH  23  24
HETATM   24  C   UNK N   1      26.485  18.171   3.846  0.00  0.00    -0.056 A 
HETATM   25  C   UNK N   1      25.763  19.358   3.682  0.00  0.00     0.009 A 
HETATM   26  C   UNK N   1      26.098  20.497   4.425  0.00  0.00     0.024 A 
HETATM   27  C   UNK N   1      27.156  20.455   5.336  0.00  0.00     0.034 A 
HETATM   28  C   UNK N   1      27.883  19.276   5.505  0.00  0.00     0.024 A 
HETATM   29 Cl   UNK N   1      27.564  21.872   6.279  0.00  0.00    -0.084 Cl
HETATM   30  C   UNK N   1      27.547  18.138   4.767  0.00  0.00     0.009 A 
ENDBRANCH  23  24
ENDBRANCH   4  23
ENDBRANCH   1   4
BRANCH   3  31
HETATM   31  C   UNK N   1      23.985  14.863   5.731  0.00  0.00     0.164 C 
BRANCH  31  32
HETATM   32  C   UNK N   1      23.027  16.017   5.959  0.00  0.00    -0.040 A 
HETATM   33  C   UNK N   1      21.928  15.863   6.806  0.00  0.00     0.009 A 
HETATM   34  C   UNK N   1      21.045  16.926   7.033  0.00  0.00     0.001 A 
HETATM   35  C   UNK N   1      21.251  18.153   6.400  0.00  0.00     0.000 A 
HETATM   36  C   UNK N   1      22.336  18.314   5.536  0.00  0.00     0.001 A 
HETATM   37  C   UNK N   1      23.217  17.250   5.318  0.00  0.00     0.009 A 
ENDBRANCH  31  32
ENDBRANCH   3  31
BRANCH   3  38
HETATM   38  C   UNK N   1      23.005  13.323   3.981  0.00  0.00     0.088 C 
BRANCH  38  39
HETATM   39  C   UNK N   1      21.567  13.776   3.882  0.00  0.00     0.030 C 
BRANCH  39  40
HETATM   40  C   UNK N   1      21.091  13.795   2.447  0.00  0.00     0.041 C 
BRANCH  40  41
HETATM   41  C   UNK N   1      20.599  15.169   2.172  0.00  0.00    -0.056 A 
HETATM   42  C   UNK N   1      20.349  16.055   3.223  0.00  0.00     0.024 A 
HETATM   43  C   UNK N   1      19.824  17.317   2.939  0.00  0.00     0.088 A 
HETATM   44  N   UNK N   1      19.551  17.671   1.652  0.00  0.00    -0.375 N 
HETATM   45  C   UNK N   1      19.785  16.818   0.617  0.00  0.00     0.088 A 
ATOM     46  HN  UNK N   1      19.165  18.594   1.460  1.00  0.00     0.164 HD
HETATM   47  C   UNK N   1      20.311  15.549   0.860  0.00  0.00     0.024 A 
ENDBRANCH  40  41
ENDBRANCH  39  40
ENDBRANCH  38  39
BRANCH  38  48
HETATM   48  C   UNK N   1      23.056  12.224   5.032  0.00  0.00     0.030 C 
BRANCH  48  49
HETATM   49  C   UNK N   1      21.808  12.221   5.910  0.00  0.00     0.041 C 
BRANCH  49  50
HETATM   50  C   UNK N   1      22.095  12.128   7.382  0.00  0.00    -0.056 A 
HETATM   51  C   UNK N   1      23.209  11.437   7.880  0.00  0.00     0.024 A 
HETATM   52  C   UNK N   1      23.412  11.362   9.260  0.00  0.00     0.088 A 
HETATM   53  N   UNK N   1      22.530  11.951  10.112  0.00  0.00    -0.375 N 
HETATM   54  C   UNK N   1      21.443  12.628   9.653  0.00  0.00     0.088 A 
ATOM     55  HN  UNK N   1      22.687  11.884  11.118  1.00  0.00     0.164 HD
HETATM   56  C   UNK N   1      21.208  12.728   8.279  0.00  0.00     0.024 A 
ENDBRANCH  49  50
ENDBRANCH  48  49
ENDBRANCH  38  48
ENDBRANCH   3  38
TORSDOF 18
ENDMDL
MODEL 5
REMARK VINA RESULT:      -7.0      3.325      5.825
REMARK  18 active torsions:
REMARK  status: ('A' for Active; 'I' for Inactive)
REMARK    1  A    between atoms: C_3  and  N_2 
REMARK       I    between atoms: N_2  and  C_41 
REMARK    2  A    between atoms: C_3  and  C_4 
REMARK    3  A    between atoms: C_3  and  C_12 
REMARK    4  A    between atoms: C_4  and  C_5 
REMARK       I    between atoms: C_12  and  N_14 
REMARK    5  A    between atoms: N_14  and  C_15 
REMARK    6  A    between atoms: N_14  and  C_22 
REMARK    7  A    between atoms: C_15  and  C_16 
REMARK    8  A    between atoms: C_22  and  C_23 
REMARK    9  A    between atoms: C_22  and  C_32 
REMARK   10  A    between atoms: C_23  and  C_24 
REMARK   11  A    between atoms: C_24  and  C_25 
REMARK   12  A    between atoms: C_32  and  C_33 
REMARK   13  A    between atoms: C_33  and  C_34 
REMARK   14  A    between atoms: C_41  and  C_43 
REMARK   15  A    between atoms: C_43  and  C_45 
REMARK   16  A    between atoms: C_47  and  O_55 
REMARK   17  A    between atoms: C_48  and  O_53 
REMARK   18  A    between atoms: C_49  and  O_51 
ROOT
HETATM    1  C   UNK N   1      26.860  15.591   4.481  0.00  0.00     0.243 C 
HETATM    2  O   UNK N   1      26.912  15.790   5.688  0.00  0.00    -0.271 OA
HETATM    3  N   UNK N   1      26.001  16.325   3.713  0.00  0.00    -0.341 N 
ENDROOT
BRANCH   1   4
HETATM    4  C   UNK N   1      27.802  14.577   3.855  0.00  0.00     0.183 C 
BRANCH   4   5
HETATM    5  N   UNK N   1      29.234  14.878   4.114  0.00  0.00    -0.336 N 
HETATM    6  C   UNK N   1      30.069  13.935   4.828  0.00  0.00     0.154 C 
HETATM    7  C   UNK N   1      29.794  16.003   3.566  0.00  0.00     0.295 C 
HETATM    8  O   UNK N   1      29.072  16.826   3.039  0.00  0.00    -0.264 OA
BRANCH   7   9
HETATM    9  C   UNK N   1      31.274  16.260   3.522  0.00  0.00     0.249 C 
HETATM   10  O   UNK N   1      31.877  16.316   2.461  0.00  0.00    -0.281 OA
BRANCH   9  11
HETATM   11  C   UNK N   1      31.989  16.557   4.799  0.00  0.00     0.025 A 
HETATM   12  C   UNK N   1      31.319  17.085   5.908  0.00  0.00     0.055 A 
HETATM   13  C   UNK N   1      31.999  17.286   7.127  0.00  0.00     0.105 A 
HETATM   14  C   UNK N   1      33.353  16.924   7.250  0.00  0.00     0.135 A 
HETATM   15  C   UNK N   1      34.031  16.398   6.131  0.00  0.00     0.105 A 
HETATM   16  C   UNK N   1      33.345  16.227   4.930  0.00  0.00     0.055 A 
BRANCH  13  17
HETATM   17  O   UNK N   1      31.376  17.833   8.198  0.00  0.00    -0.353 OA
HETATM   18  C   UNK N   1      30.426  17.173   8.941  0.00  0.00     0.210 C 
ENDBRANCH  13  17
BRANCH  14  19
HETATM   19  O   UNK N   1      33.968  17.125   8.448  0.00  0.00    -0.351 OA
HETATM   20  C   UNK N   1      34.174  16.170   9.419  0.00  0.00     0.210 C 
ENDBRANCH  14  19
BRANCH  15  21
HETATM   21  O   UNK N   1      35.340  16.084   6.217  0.00  0.00    -0.353 OA
HETATM   22  C   UNK N   1      35.767  14.780   6.260  0.00  0.00     0.210 C 
ENDBRANCH  15  21
ENDBRANCH   9  11
ENDBRANCH   7   9
ENDBRANCH   4   5
BRANCH   4  23
HETATM   23  C   UNK N   1      27.445  13.170   4.370  0.00  0.00     0.073 C 
BRANCH  23  24
HETATM   24  C   UNK N   1      26.749  12.266   3.380  0.00  0.00    -0.056 A 
HETATM   25  C   UNK N   1      27.174  12.263   2.048  0.00  0.00     0.009 A 
HETATM   26  C   UNK N   1      26.563  11.417   1.114  0.00  0.00     0.024 A 
HETATM   27  C   UNK N   1      25.526  10.568   1.509  0.00  0.00     0.034 A 
HETATM   28  C   UNK N   1      25.095  10.565   2.836  0.00  0.00     0.024 A 
HETATM   29 Cl   UNK N   1      24.775   9.495   0.347  0.00  0.00    -0.084 Cl
HETATM   30  C   UNK N   1      25.706  11.406   3.768  0.00  0.00     0.009 A 
ENDBRANCH  23  24
ENDBRANCH   4  23
ENDBRANCH   1   4
BRANCH   3  31
HETATM   31  C   UNK N   1      25.800  16.008   2.305  0.00  0.00     0.164 C 
BRANCH  31  32
HETATM   32  C   UNK N   1      24.684  14.996   2.136  0.00  0.00    -0.040 A 
HETATM   33  C   UNK N   1      23.939  14.577   3.241  0.00  0.00     0.009 A 
HETATM   34  C   UNK N   1      22.898  13.653   3.094  0.00  0.00     0.001 A 
HETATM   35  C   UNK N   1      22.602  13.128   1.834  0.00  0.00     0.000 A 
HETATM   36  C   UNK N   1      23.351  13.525   0.725  0.00  0.00     0.001 A 
HETATM   37  C   UNK N   1      24.386  14.453   0.877  0.00  0.00     0.009 A 
ENDBRANCH  31  32
ENDBRANCH   3  31
BRANCH   3  38
HETATM   38  C   UNK N   1      25.435  17.546   4.279  0.00  0.00     0.088 C 
BRANCH  38  39
HETATM   39  C   UNK N   1      23.938  17.471   4.463  0.00  0.00     0.030 C 
BRANCH  39  40
HETATM   40  C   UNK N   1      23.266  18.764   4.060  0.00  0.00     0.041 C 
BRANCH  40  41
HETATM   41  C   UNK N   1      21.861  18.432   3.713  0.00  0.00    -0.056 A 
HETATM   42  C   UNK N   1      21.388  17.125   3.848  0.00  0.00     0.024 A 
HETATM   43  C   UNK N   1      20.082  16.828   3.452  0.00  0.00     0.088 A 
HETATM   44  N   UNK N   1      19.287  17.804   2.932  0.00  0.00    -0.375 N 
HETATM   45  C   UNK N   1      19.733  19.082   2.789  0.00  0.00     0.088 A 
ATOM     46  HN  UNK N   1      18.338  17.572   2.643  1.00  0.00     0.164 HD
HETATM   47  C   UNK N   1      21.031  19.418   3.176  0.00  0.00     0.024 A 
ENDBRANCH  40  41
ENDBRANCH  39  40
ENDBRANCH  38  39
BRANCH  38  48
HETATM   48  C   UNK N   1      25.714  18.720   3.351  0.00  0.00     0.030 C 
BRANCH  48  49
HETATM   49  C   UNK N   1      26.978  19.474   3.754  0.00  0.00     0.041 C 
BRANCH  49  50
HETATM   50  C   UNK N   1      27.076  19.761   5.225  0.00  0.00    -0.056 A 
HETATM   51  C   UNK N   1      27.936  19.043   6.068  0.00  0.00     0.024 A 
HETATM   52  C   UNK N   1      27.966  19.337   7.433  0.00  0.00     0.088 A 
HETATM   53  N   UNK N   1      27.161  20.309   7.939  0.00  0.00    -0.375 N 
HETATM   54  C   UNK N   1      26.320  21.021   7.142  0.00  0.00     0.088 A 
ATOM     55  HN  UNK N   1      27.189  20.510   8.939  1.00  0.00     0.164 HD
HETATM   56  C   UNK N   1      26.264  20.759   5.771  0.00  0.00     0.024 A 
ENDBRANCH  49  50
ENDBRANCH  48  49
ENDBRANCH  38  48
ENDBRANCH   3  38
TORSDOF 18
ENDMDL
MODEL 6
REMARK VINA RESULT:      -7.0      1.184      2.393
REMARK  18 active torsions:
REMARK  status: ('A' for Active; 'I' for Inactive)
REMARK    1  A    between atoms: C_3  and  N_2 
REMARK       I    between atoms: N_2  and  C_41 
REMARK    2  A    between atoms: C_3  and  C_4 
REMARK    3  A    between atoms: C_3  and  C_12 
REMARK    4  A    between atoms: C_4  and  C_5 
REMARK       I    between atoms: C_12  and  N_14 
REMARK    5  A    between atoms: N_14  and  C_15 
REMARK    6  A    between atoms: N_14  and  C_22 
REMARK    7  A    between atoms: C_15  and  C_16 
REMARK    8  A    between atoms: C_22  and  C_23 
REMARK    9  A    between atoms: C_22  and  C_32 
REMARK   10  A    between atoms: C_23  and  C_24 
REMARK   11  A    between atoms: C_24  and  C_25 
REMARK   12  A    between atoms: C_32  and  C_33 
REMARK   13  A    between atoms: C_33  and  C_34 
REMARK   14  A    between atoms: C_41  and  C_43 
REMARK   15  A    between atoms: C_43  and  C_45 
REMARK   16  A    between atoms: C_47  and  O_55 
REMARK   17  A    between atoms: C_48  and  O_53 
REMARK   18  A    between atoms: C_49  and  O_51 
ROOT
HETATM    1  C   UNK N   1      24.710  14.247   3.784  0.00  0.00     0.243 C 
HETATM    2  O   UNK N   1      24.433  13.738   2.705  0.00  0.00    -0.271 OA
HETATM    3  N   UNK N   1      23.986  13.912   4.893  0.00  0.00    -0.341 N 
ENDROOT
BRANCH   1   4
HETATM    4  C   UNK N   1      25.897  15.192   3.876  0.00  0.00     0.183 C 
BRANCH   4   5
HETATM    5  N   UNK N   1      27.149  14.604   3.334  0.00  0.00    -0.336 N 
HETATM    6  C   UNK N   1      27.686  15.051   2.066  0.00  0.00     0.154 C 
HETATM    7  C   UNK N   1      27.863  13.719   4.101  0.00  0.00     0.295 C 
HETATM    8  O   UNK N   1      27.367  13.290   5.124  0.00  0.00    -0.264 OA
BRANCH   7   9
HETATM    9  C   UNK N   1      29.266  13.285   3.783  0.00  0.00     0.249 C 
HETATM   10  O   UNK N   1      29.485  12.340   3.040  0.00  0.00    -0.281 OA
BRANCH   9  11
HETATM   11  C   UNK N   1      30.405  14.098   4.306  0.00  0.00     0.025 A 
HETATM   12  C   UNK N   1      30.404  14.606   5.610  0.00  0.00     0.055 A 
HETATM   13  C   UNK N   1      31.524  15.306   6.106  0.00  0.00     0.105 A 
HETATM   14  C   UNK N   1      32.668  15.470   5.304  0.00  0.00     0.135 A 
HETATM   15  C   UNK N   1      32.667  14.963   3.988  0.00  0.00     0.105 A 
HETATM   16  C   UNK N   1      31.543  14.293   3.511  0.00  0.00     0.055 A 
BRANCH  13  17
HETATM   17  O   UNK N   1      31.524  15.839   7.352  0.00  0.00    -0.353 OA
HETATM   18  C   UNK N   1      30.624  16.790   7.769  0.00  0.00     0.210 C 
ENDBRANCH  13  17
BRANCH  14  19
HETATM   19  O   UNK N   1      33.731  16.143   5.827  0.00  0.00    -0.351 OA
HETATM   20  C   UNK N   1      33.841  17.512   5.940  0.00  0.00     0.210 C 
ENDBRANCH  14  19
BRANCH  15  21
HETATM   21  O   UNK N   1      33.739  15.147   3.190  0.00  0.00    -0.353 OA
HETATM   22  C   UNK N   1      34.394  14.090   2.610  0.00  0.00     0.210 C 
ENDBRANCH  15  21
ENDBRANCH   9  11
ENDBRANCH   7   9
ENDBRANCH   4   5
BRANCH   4  23
HETATM   23  C   UNK N   1      25.556  16.504   3.145  0.00  0.00     0.073 C 
BRANCH  23  24
HETATM   24  C   UNK N   1      25.949  17.775   3.859  0.00  0.00    -0.056 A 
HETATM   25  C   UNK N   1      25.468  18.998   3.381  0.00  0.00     0.009 A 
HETATM   26  C   UNK N   1      25.796  20.191   4.038  0.00  0.00     0.024 A 
HETATM   27  C   UNK N   1      26.605  20.166   5.177  0.00  0.00     0.034 A 
HETATM   28  C   UNK N   1      27.090  18.950   5.660  0.00  0.00     0.024 A 
HETATM   29 Cl   UNK N   1      27.000  21.654   6.010  0.00  0.00    -0.084 Cl
HETATM   30  C   UNK N   1      26.760  17.760   5.007  0.00  0.00     0.009 A 
ENDBRANCH  23  24
ENDBRANCH   4  23
ENDBRANCH   1   4
BRANCH   3  31
HETATM   31  C   UNK N   1      24.186  14.612   6.156  0.00  0.00     0.164 C 
BRANCH  31  32
HETATM   32  C   UNK N   1      23.103  15.652   6.369  0.00  0.00    -0.040 A 
HETATM   33  C   UNK N   1      23.132  16.856   5.661  0.00  0.00     0.009 A 
HETATM   34  C   UNK N   1      22.130  17.817   5.841  0.00  0.00     0.001 A 
HETATM   35  C   UNK N   1      21.092  17.584   6.746  0.00  0.00     0.000 A 
HETATM   36  C   UNK N   1      21.062  16.393   7.473  0.00  0.00     0.001 A 
HETATM   37  C   UNK N   1      22.063  15.434   7.285  0.00  0.00     0.009 A 
ENDBRANCH  31  32
ENDBRANCH   3  31
BRANCH   3  38
HETATM   38  C   UNK N   1      23.151  12.716   4.841  0.00  0.00     0.088 C 
BRANCH  38  39
HETATM   39  C   UNK N   1      21.675  13.024   4.943  0.00  0.00     0.030 C 
BRANCH  39  40
HETATM   40  C   UNK N   1      21.064  13.259   3.581  0.00  0.00     0.041 C 
BRANCH  40  41
HETATM   41  C   UNK N   1      20.546  14.651   3.573  0.00  0.00    -0.056 A 
HETATM   42  C   UNK N   1      19.479  15.013   4.397  0.00  0.00     0.024 A 
HETATM   43  C   UNK N   1      18.970  16.312   4.320  0.00  0.00     0.088 A 
HETATM   44  N   UNK N   1      19.506  17.205   3.444  0.00  0.00    -0.375 N 
HETATM   45  C   UNK N   1      20.544  16.867   2.631  0.00  0.00     0.088 A 
ATOM     46  HN  UNK N   1      19.122  18.148   3.396  1.00  0.00     0.164 HD
HETATM   47  C   UNK N   1      21.081  15.581   2.680  0.00  0.00     0.024 A 
ENDBRANCH  40  41
ENDBRANCH  39  40
ENDBRANCH  38  39
BRANCH  38  48
HETATM   48  C   UNK N   1      23.498  11.796   6.003  0.00  0.00     0.030 C 
BRANCH  48  49
HETATM   49  C   UNK N   1      22.357  11.702   7.012  0.00  0.00     0.041 C 
BRANCH  49  50
HETATM   50  C   UNK N   1      22.758  12.028   8.422  0.00  0.00    -0.056 A 
HETATM   51  C   UNK N   1      24.093  11.971   8.847  0.00  0.00     0.024 A 
HETATM   52  C   UNK N   1      24.405  12.260  10.177  0.00  0.00     0.088 A 
HETATM   53  N   UNK N   1      23.417  12.588  11.054  0.00  0.00    -0.375 N 
HETATM   54  C   UNK N   1      22.115  12.652  10.664  0.00  0.00     0.088 A 
ATOM     55  HN  UNK N   1      23.658  12.792  12.024  1.00  0.00     0.164 HD
HETATM   56  C   UNK N   1      21.764  12.374   9.341  0.00  0.00     0.024 A 
ENDBRANCH  49  50
ENDBRANCH  48  49
ENDBRANCH  38  48
ENDBRANCH   3  38
TORSDOF 18
ENDMDL
MODEL 7
REMARK VINA RESULT:      -6.9      3.174      9.978
REMARK  18 active torsions:
REMARK  status: ('A' for Active; 'I' for Inactive)
REMARK    1  A    between atoms: C_3  and  N_2 
REMARK       I    between atoms: N_2  and  C_41 
REMARK    2  A    between atoms: C_3  and  C_4 
REMARK    3  A    between atoms: C_3  and  C_12 
REMARK    4  A    between atoms: C_4  and  C_5 
REMARK       I    between atoms: C_12  and  N_14 
REMARK    5  A    between atoms: N_14  and  C_15 
REMARK    6  A    between atoms: N_14  and  C_22 
REMARK    7  A    between atoms: C_15  and  C_16 
REMARK    8  A    between atoms: C_22  and  C_23 
REMARK    9  A    between atoms: C_22  and  C_32 
REMARK   10  A    between atoms: C_23  and  C_24 
REMARK   11  A    between atoms: C_24  and  C_25 
REMARK   12  A    between atoms: C_32  and  C_33 
REMARK   13  A    between atoms: C_33  and  C_34 
REMARK   14  A    between atoms: C_41  and  C_43 
REMARK   15  A    between atoms: C_43  and  C_45 
REMARK   16  A    between atoms: C_47  and  O_55 
REMARK   17  A    between atoms: C_48  and  O_53 
REMARK   18  A    between atoms: C_49  and  O_51 
ROOT
HETATM    1  C   UNK N   1      28.042  15.756   5.006  0.00  0.00     0.243 C 
HETATM    2  O   UNK N   1      28.419  14.834   5.717  0.00  0.00    -0.271 OA
HETATM    3  N   UNK N   1      28.913  16.758   4.683  0.00  0.00    -0.341 N 
ENDROOT
BRANCH   1   4
HETATM    4  C   UNK N   1      26.631  15.730   4.443  0.00  0.00     0.183 C 
BRANCH   4   5
HETATM    5  N   UNK N   1      26.280  14.429   3.818  0.00  0.00    -0.336 N 
HETATM    6  C   UNK N   1      25.789  13.331   4.624  0.00  0.00     0.154 C 
HETATM    7  C   UNK N   1      26.307  14.310   2.452  0.00  0.00     0.295 C 
HETATM    8  O   UNK N   1      26.795  15.205   1.791  0.00  0.00    -0.264 OA
BRANCH   7   9
HETATM    9  C   UNK N   1      25.709  13.153   1.704  0.00  0.00     0.249 C 
HETATM   10  O   UNK N   1      26.384  12.184   1.389  0.00  0.00    -0.281 OA
BRANCH   9  11
HETATM   11  C   UNK N   1      24.239  13.151   1.441  0.00  0.00     0.025 A 
HETATM   12  C   UNK N   1      23.524  14.340   1.268  0.00  0.00     0.055 A 
HETATM   13  C   UNK N   1      22.151  14.311   0.944  0.00  0.00     0.105 A 
HETATM   14  C   UNK N   1      21.494  13.081   0.760  0.00  0.00     0.135 A 
HETATM   15  C   UNK N   1      22.213  11.881   0.940  0.00  0.00     0.105 A 
HETATM   16  C   UNK N   1      23.563  11.933   1.279  0.00  0.00     0.055 A 
BRANCH  13  17
HETATM   17  O   UNK N   1      21.435  15.453   0.812  0.00  0.00    -0.353 OA
HETATM   18  C   UNK N   1      20.921  16.153   1.878  0.00  0.00     0.210 C 
ENDBRANCH  13  17
BRANCH  14  19
HETATM   19  O   UNK N   1      20.171  13.098   0.438  0.00  0.00    -0.351 OA
HETATM   20  C   UNK N   1      19.125  12.952   1.322  0.00  0.00     0.210 C 
ENDBRANCH  14  19
BRANCH  15  21
HETATM   21  O   UNK N   1      21.590  10.691   0.809  0.00  0.00    -0.353 OA
HETATM   22  C   UNK N   1      21.289   9.912   1.897  0.00  0.00     0.210 C 
ENDBRANCH  15  21
ENDBRANCH   9  11
ENDBRANCH   7   9
ENDBRANCH   4   5
BRANCH   4  23
HETATM   23  C   UNK N   1      25.634  16.076   5.564  0.00  0.00     0.073 C 
BRANCH  23  24
HETATM   24  C   UNK N   1      24.460  16.934   5.157  0.00  0.00    -0.056 A 
HETATM   25  C   UNK N   1      24.658  17.959   4.226  0.00  0.00     0.009 A 
HETATM   26  C   UNK N   1      23.583  18.755   3.812  0.00  0.00     0.024 A 
HETATM   27  C   UNK N   1      22.303  18.528   4.325  0.00  0.00     0.034 A 
HETATM   28  C   UNK N   1      22.096  17.509   5.256  0.00  0.00     0.024 A 
HETATM   29 Cl   UNK N   1      20.954  19.510   3.794  0.00  0.00    -0.084 Cl
HETATM   30  C   UNK N   1      23.168  16.713   5.666  0.00  0.00     0.009 A 
ENDBRANCH  23  24
ENDBRANCH   4  23
ENDBRANCH   1   4
BRANCH   3  31
HETATM   31  C   UNK N   1      28.457  17.945   3.971  0.00  0.00     0.164 C 
BRANCH  31  32
HETATM   32  C   UNK N   1      27.962  18.997   4.944  0.00  0.00    -0.040 A 
HETATM   33  C   UNK N   1      28.060  18.785   6.321  0.00  0.00     0.009 A 
HETATM   34  C   UNK N   1      27.618  19.756   7.228  0.00  0.00     0.001 A 
HETATM   35  C   UNK N   1      27.060  20.947   6.761  0.00  0.00     0.000 A 
HETATM   36  C   UNK N   1      26.940  21.164   5.386  0.00  0.00     0.001 A 
HETATM   37  C   UNK N   1      27.389  20.192   4.486  0.00  0.00     0.009 A 
ENDBRANCH  31  32
ENDBRANCH   3  31
BRANCH   3  38
HETATM   38  C   UNK N   1      30.340  16.531   4.893  0.00  0.00     0.088 C 
BRANCH  38  39
HETATM   39  C   UNK N   1      30.862  17.190   6.148  0.00  0.00     0.030 C 
BRANCH  39  40
HETATM   40  C   UNK N   1      31.186  16.170   7.216  0.00  0.00     0.041 C 
BRANCH  40  41
HETATM   41  C   UNK N   1      32.394  16.656   7.928  0.00  0.00    -0.056 A 
HETATM   42  C   UNK N   1      32.933  17.910   7.632  0.00  0.00     0.024 A 
HETATM   43  C   UNK N   1      34.109  18.314   8.269  0.00  0.00     0.088 A 
HETATM   44  N   UNK N   1      34.722  17.486   9.160  0.00  0.00    -0.375 N 
HETATM   45  C   UNK N   1      34.212  16.259   9.457  0.00  0.00     0.088 A 
ATOM     46  HN  UNK N   1      35.581  17.792   9.615  1.00  0.00     0.164 HD
HETATM   47  C   UNK N   1      33.038  15.822   8.842  0.00  0.00     0.024 A 
ENDBRANCH  40  41
ENDBRANCH  39  40
ENDBRANCH  38  39
BRANCH  38  48
HETATM   48  C   UNK N   1      31.129  17.104   3.724  0.00  0.00     0.030 C 
BRANCH  48  49
HETATM   49  C   UNK N   1      32.606  17.277   4.069  0.00  0.00     0.041 C 
BRANCH  49  50
HETATM   50  C   UNK N   1      33.419  16.022   3.925  0.00  0.00    -0.056 A 
HETATM   51  C   UNK N   1      34.180  15.504   4.982  0.00  0.00     0.024 A 
HETATM   52  C   UNK N   1      34.937  14.348   4.783  0.00  0.00     0.088 A 
HETATM   53  N   UNK N   1      34.938  13.734   3.569  0.00  0.00    -0.375 N 
HETATM   54  C   UNK N   1      34.206  14.216   2.529  0.00  0.00     0.088 A 
ATOM     55  HN  UNK N   1      35.500  12.893   3.436  1.00  0.00     0.164 HD
HETATM   56  C   UNK N   1      33.434  15.369   2.690  0.00  0.00     0.024 A 
ENDBRANCH  49  50
ENDBRANCH  48  49
ENDBRANCH  38  48
ENDBRANCH   3  38
TORSDOF 18
ENDMDL
MODEL 8
REMARK VINA RESULT:      -6.9      3.173      5.810
REMARK  18 active torsions:
REMARK  status: ('A' for Active; 'I' for Inactive)
REMARK    1  A    between atoms: C_3  and  N_2 
REMARK       I    between atoms: N_2  and  C_41 
REMARK    2  A    between atoms: C_3  and  C_4 
REMARK    3  A    between atoms: C_3  and  C_12 
REMARK    4  A    between atoms: C_4  and  C_5 
REMARK       I    between atoms: C_12  and  N_14 
REMARK    5  A    between atoms: N_14  and  C_15 
REMARK    6  A    between atoms: N_14  and  C_22 
REMARK    7  A    between atoms: C_15  and  C_16 
REMARK    8  A    between atoms: C_22  and  C_23 
REMARK    9  A    between atoms: C_22  and  C_32 
REMARK   10  A    between atoms: C_23  and  C_24 
REMARK   11  A    between atoms: C_24  and  C_25 
REMARK   12  A    between atoms: C_32  and  C_33 
REMARK   13  A    between atoms: C_33  and  C_34 
REMARK   14  A    between atoms: C_41  and  C_43 
REMARK   15  A    between atoms: C_43  and  C_45 
REMARK   16  A    between atoms: C_47  and  O_55 
REMARK   17  A    between atoms: C_48  and  O_53 
REMARK   18  A    between atoms: C_49  and  O_51 
ROOT
HETATM    1  C   UNK N   1      22.205  14.784   4.635  0.00  0.00     0.243 C 
HETATM    2  O   UNK N   1      21.728  13.657   4.600  0.00  0.00    -0.271 OA
HETATM    3  N   UNK N   1      21.770  15.672   5.578  0.00  0.00    -0.341 N 
ENDROOT
BRANCH   1   4
HETATM    4  C   UNK N   1      23.319  15.148   3.668  0.00  0.00     0.183 C 
BRANCH   4   5
HETATM    5  N   UNK N   1      24.673  15.005   4.263  0.00  0.00    -0.336 N 
HETATM    6  C   UNK N   1      24.949  13.961   5.227  0.00  0.00     0.154 C 
HETATM    7  C   UNK N   1      25.697  15.793   3.802  0.00  0.00     0.295 C 
HETATM    8  O   UNK N   1      25.441  16.717   3.055  0.00  0.00    -0.264 OA
BRANCH   7   9
HETATM    9  C   UNK N   1      27.144  15.548   4.120  0.00  0.00     0.249 C 
HETATM   10  O   UNK N   1      27.801  14.727   3.497  0.00  0.00    -0.281 OA
BRANCH   9  11
HETATM   11  C   UNK N   1      27.809  16.407   5.146  0.00  0.00     0.025 A 
HETATM   12  C   UNK N   1      27.248  17.619   5.561  0.00  0.00     0.055 A 
HETATM   13  C   UNK N   1      27.855  18.375   6.586  0.00  0.00     0.105 A 
HETATM   14  C   UNK N   1      29.014  17.898   7.225  0.00  0.00     0.135 A 
HETATM   15  C   UNK N   1      29.584  16.679   6.803  0.00  0.00     0.105 A 
HETATM   16  C   UNK N   1      28.980  15.959   5.774  0.00  0.00     0.055 A 
BRANCH  13  17
HETATM   17  O   UNK N   1      27.347  19.570   6.973  0.00  0.00    -0.353 OA
HETATM   18  C   UNK N   1      27.078  20.597   6.100  0.00  0.00     0.210 C 
ENDBRANCH  13  17
BRANCH  14  19
HETATM   19  O   UNK N   1      29.561  18.655   8.217  0.00  0.00    -0.351 OA
HETATM   20  C   UNK N   1      29.368  18.473   9.569  0.00  0.00     0.210 C 
ENDBRANCH  14  19
BRANCH  15  21
HETATM   21  O   UNK N   1      30.718  16.227   7.375  0.00  0.00    -0.353 OA
HETATM   22  C   UNK N   1      31.484  15.254   6.783  0.00  0.00     0.210 C 
ENDBRANCH  15  21
ENDBRANCH   9  11
ENDBRANCH   7   9
ENDBRANCH   4   5
BRANCH   4  23
HETATM   23  C   UNK N   1      23.192  14.281   2.401  0.00  0.00     0.073 C 
BRANCH  23  24
HETATM   24  C   UNK N   1      21.855  14.333   1.702  0.00  0.00    -0.056 A 
HETATM   25  C   UNK N   1      21.203  13.134   1.393  0.00  0.00     0.009 A 
HETATM   26  C   UNK N   1      19.951  13.151   0.767  0.00  0.00     0.024 A 
HETATM   27  C   UNK N   1      19.343  14.368   0.447  0.00  0.00     0.034 A 
HETATM   28  C   UNK N   1      19.986  15.569   0.750  0.00  0.00     0.024 A 
HETATM   29 Cl   UNK N   1      17.769  14.392  -0.319  0.00  0.00    -0.084 Cl
HETATM   30  C   UNK N   1      21.234  15.551   1.378  0.00  0.00     0.009 A 
ENDBRANCH  23  24
ENDBRANCH   4  23
ENDBRANCH   1   4
BRANCH   3  31
HETATM   31  C   UNK N   1      22.200  17.064   5.549  0.00  0.00     0.164 C 
BRANCH  31  32
HETATM   32  C   UNK N   1      21.498  17.820   4.437  0.00  0.00    -0.040 A 
HETATM   33  C   UNK N   1      20.167  17.536   4.124  0.00  0.00     0.009 A 
HETATM   34  C   UNK N   1      19.506  18.237   3.108  0.00  0.00     0.001 A 
HETATM   35  C   UNK N   1      20.181  19.224   2.386  0.00  0.00     0.000 A 
HETATM   36  C   UNK N   1      21.517  19.504   2.677  0.00  0.00     0.001 A 
HETATM   37  C   UNK N   1      22.170  18.804   3.697  0.00  0.00     0.009 A 
ENDBRANCH  31  32
ENDBRANCH   3  31
BRANCH   3  38
HETATM   38  C   UNK N   1      21.023  15.158   6.721  0.00  0.00     0.088 C 
BRANCH  38  39
HETATM   39  C   UNK N   1      19.954  16.111   7.202  0.00  0.00     0.030 C 
BRANCH  39  40
HETATM   40  C   UNK N   1      20.473  17.021   8.292  0.00  0.00     0.041 C 
BRANCH  40  41
HETATM   41  C   UNK N   1      19.289  17.578   8.993  0.00  0.00    -0.056 A 
HETATM   42  C   UNK N   1      19.424  18.676   9.846  0.00  0.00     0.024 A 
HETATM   43  C   UNK N   1      18.305  19.137  10.544  0.00  0.00     0.088 A 
HETATM   44  N   UNK N   1      17.103  18.513  10.398  0.00  0.00    -0.375 N 
HETATM   45  C   UNK N   1      16.956  17.439   9.574  0.00  0.00     0.088 A 
ATOM     46  HN  UNK N   1      16.297  18.858  10.916  1.00  0.00     0.164 HD
HETATM   47  C   UNK N   1      18.050  16.951   8.858  0.00  0.00     0.024 A 
ENDBRANCH  40  41
ENDBRANCH  39  40
ENDBRANCH  38  39
BRANCH  38  48
HETATM   48  C   UNK N   1      21.970  14.921   7.890  0.00  0.00     0.030 C 
BRANCH  48  49
HETATM   49  C   UNK N   1      21.589  13.675   8.684  0.00  0.00     0.041 C 
BRANCH  49  50
HETATM   50  C   UNK N   1      22.685  13.155   9.569  0.00  0.00    -0.056 A 
HETATM   51  C   UNK N   1      22.416  12.491  10.775  0.00  0.00     0.024 A 
HETATM   52  C   UNK N   1      23.476  12.052  11.570  0.00  0.00     0.088 A 
HETATM   53  N   UNK N   1      24.760  12.273  11.179  0.00  0.00    -0.375 N 
HETATM   54  C   UNK N   1      25.046  12.912  10.013  0.00  0.00     0.088 A 
ATOM     55  HN  UNK N   1      25.525  11.952  11.772  1.00  0.00     0.164 HD
HETATM   56  C   UNK N   1      24.013  13.363   9.188  0.00  0.00     0.024 A 
ENDBRANCH  49  50
ENDBRANCH  48  49
ENDBRANCH  38  48
ENDBRANCH   3  38
TORSDOF 18
ENDMDL
MODEL 9
REMARK VINA RESULT:      -6.8      3.208      9.847
REMARK  18 active torsions:
REMARK  status: ('A' for Active; 'I' for Inactive)
REMARK    1  A    between atoms: C_3  and  N_2 
REMARK       I    between atoms: N_2  and  C_41 
REMARK    2  A    between atoms: C_3  and  C_4 
REMARK    3  A    between atoms: C_3  and  C_12 
REMARK    4  A    between atoms: C_4  and  C_5 
REMARK       I    between atoms: C_12  and  N_14 
REMARK    5  A    between atoms: N_14  and  C_15 
REMARK    6  A    between atoms: N_14  and  C_22 
REMARK    7  A    between atoms: C_15  and  C_16 
REMARK    8  A    between atoms: C_22  and  C_23 
REMARK    9  A    between atoms: C_22  and  C_32 
REMARK   10  A    between atoms: C_23  and  C_24 
REMARK   11  A    between atoms: C_24  and  C_25 
REMARK   12  A    between atoms: C_32  and  C_33 
REMARK   13  A    between atoms: C_33  and  C_34 
REMARK   14  A    between atoms: C_41  and  C_43 
REMARK   15  A    between atoms: C_43  and  C_45 
REMARK   16  A    between atoms: C_47  and  O_55 
REMARK   17  A    between atoms: C_48  and  O_53 
REMARK   18  A    between atoms: C_49  and  O_51 
ROOT
HETATM    1  C   UNK N   1      27.039  15.723   5.318  0.00  0.00     0.243 C 
HETATM    2  O   UNK N   1      27.066  14.905   6.228  0.00  0.00    -0.271 OA
HETATM    3  N   UNK N   1      28.191  16.358   4.948  0.00  0.00    -0.341 N 
ENDROOT
BRANCH   1   4
HETATM    4  C   UNK N   1      25.736  15.964   4.575  0.00  0.00     0.183 C 
BRANCH   4   5
HETATM    5  N   UNK N   1      25.266  14.771   3.826  0.00  0.00    -0.336 N 
HETATM    6  C   UNK N   1      24.693  13.639   4.524  0.00  0.00     0.154 C 
HETATM    7  C   UNK N   1      25.264  14.795   2.454  0.00  0.00     0.295 C 
HETATM    8  O   UNK N   1      25.819  15.710   1.879  0.00  0.00    -0.264 OA
BRANCH   7   9
HETATM    9  C   UNK N   1      24.560  13.776   1.604  0.00  0.00     0.249 C 
HETATM   10  O   UNK N   1      25.156  12.819   1.134  0.00  0.00    -0.281 OA
BRANCH   9  11
HETATM   11  C   UNK N   1      23.081  13.890   1.426  0.00  0.00     0.025 A 
HETATM   12  C   UNK N   1      22.310  12.808   0.988  0.00  0.00     0.055 A 
HETATM   13  C   UNK N   1      20.906  12.917   0.901  0.00  0.00     0.105 A 
HETATM   14  C   UNK N   1      20.264  14.107   1.287  0.00  0.00     0.135 A 
HETATM   15  C   UNK N   1      21.040  15.201   1.722  0.00  0.00     0.105 A 
HETATM   16  C   UNK N   1      22.427  15.079   1.781  0.00  0.00     0.055 A 
BRANCH  13  17
HETATM   17  O   UNK N   1      20.149  11.892   0.442  0.00  0.00    -0.353 OA
HETATM   18  C   UNK N   1      20.524  10.572   0.532  0.00  0.00     0.210 C 
ENDBRANCH  13  17
BRANCH  14  19
HETATM   19  O   UNK N   1      18.906  14.165   1.196  0.00  0.00    -0.351 OA
HETATM   20  C   UNK N   1      18.182  14.339   0.037  0.00  0.00     0.210 C 
ENDBRANCH  14  19
BRANCH  15  21
HETATM   21  O   UNK N   1      20.446  16.365   2.056  0.00  0.00    -0.353 OA
HETATM   22  C   UNK N   1      20.169  17.327   1.117  0.00  0.00     0.210 C 
ENDBRANCH  15  21
ENDBRANCH   9  11
ENDBRANCH   7   9
ENDBRANCH   4   5
BRANCH   4  23
HETATM   23  C   UNK N   1      24.663  16.430   5.576  0.00  0.00     0.073 C 
BRANCH  23  24
HETATM   24  C   UNK N   1      23.611  17.363   5.026  0.00  0.00    -0.056 A 
HETATM   25  C   UNK N   1      22.313  17.304   5.544  0.00  0.00     0.009 A 
HETATM   26  C   UNK N   1      21.323  18.174   5.070  0.00  0.00     0.024 A 
HETATM   27  C   UNK N   1      21.627  19.108   4.076  0.00  0.00     0.034 A 
HETATM   28  C   UNK N   1      22.919  19.173   3.552  0.00  0.00     0.024 A 
HETATM   29 Cl   UNK N   1      20.396  20.209   3.495  0.00  0.00    -0.084 Cl
HETATM   30  C   UNK N   1      23.907  18.307   4.027  0.00  0.00     0.009 A 
ENDBRANCH  23  24
ENDBRANCH   4  23
ENDBRANCH   1   4
BRANCH   3  31
HETATM   31  C   UNK N   1      28.166  17.447   3.979  0.00  0.00     0.164 C 
BRANCH  31  32
HETATM   32  C   UNK N   1      27.670  18.727   4.623  0.00  0.00    -0.040 A 
HETATM   33  C   UNK N   1      27.818  18.928   5.997  0.00  0.00     0.009 A 
HETATM   34  C   UNK N   1      27.375  20.112   6.599  0.00  0.00     0.001 A 
HETATM   35  C   UNK N   1      26.767  21.104   5.827  0.00  0.00     0.000 A 
HETATM   36  C   UNK N   1      26.597  20.907   4.455  0.00  0.00     0.001 A 
HETATM   37  C   UNK N   1      27.046  19.725   3.859  0.00  0.00     0.009 A 
ENDBRANCH  31  32
ENDBRANCH   3  31
BRANCH   3  38
HETATM   38  C   UNK N   1      29.464  15.801   5.394  0.00  0.00     0.088 C 
BRANCH  38  39
HETATM   39  C   UNK N   1      29.889  16.318   6.749  0.00  0.00     0.030 C 
BRANCH  39  40
HETATM   40  C   UNK N   1      30.973  17.365   6.627  0.00  0.00     0.041 C 
BRANCH  40  41
HETATM   41  C   UNK N   1      31.996  17.052   7.656  0.00  0.00    -0.056 A 
HETATM   42  C   UNK N   1      33.120  17.868   7.807  0.00  0.00     0.024 A 
HETATM   43  C   UNK N   1      34.099  17.512   8.737  0.00  0.00     0.088 A 
HETATM   44  N   UNK N   1      33.959  16.378   9.478  0.00  0.00    -0.375 N 
HETATM   45  C   UNK N   1      32.872  15.570   9.340  0.00  0.00     0.088 A 
ATOM     46  HN  UNK N   1      34.683  16.129  10.150  1.00  0.00     0.164 HD
HETATM   47  C   UNK N   1      31.872  15.893   8.423  0.00  0.00     0.024 A 
ENDBRANCH  40  41
ENDBRANCH  39  40
ENDBRANCH  38  39
BRANCH  38  48
HETATM   48  C   UNK N   1      30.562  16.175   4.408  0.00  0.00     0.030 C 
BRANCH  48  49
HETATM   49  C   UNK N   1      31.388  14.960   3.993  0.00  0.00     0.041 C 
BRANCH  49  50
HETATM   50  C   UNK N   1      32.610  14.734   4.836  0.00  0.00    -0.056 A 
HETATM   51  C   UNK N   1      33.706  15.608   4.808  0.00  0.00     0.024 A 
HETATM   52  C   UNK N   1      34.826  15.333   5.594  0.00  0.00     0.088 A 
HETATM   53  N   UNK N   1      34.854  14.221   6.376  0.00  0.00    -0.375 N 
HETATM   54  C   UNK N   1      33.803  13.359   6.423  0.00  0.00     0.088 A 
ATOM     55  HN  UNK N   1      35.682  14.030   6.942  1.00  0.00     0.164 HD
HETATM   56  C   UNK N   1      32.663  13.602   5.654  0.00  0.00     0.024 A 
ENDBRANCH  49  50
ENDBRANCH  48  49
ENDBRANCH  38  48
ENDBRANCH   3  38
TORSDOF 18
ENDMDL
