MODEL 1
REMARK VINA RESULT:      -7.7      0.000      0.000
REMARK  10 active torsions:
REMARK  status: ('A' for Active; 'I' for Inactive)
REMARK    1  A    between atoms: C_2  and  N_3 
REMARK    2  A    between atoms: N_3  and  C_4 
REMARK    3  A    between atoms: N_3  and  C_6 
REMARK    4  A    between atoms: C_6  and  C_7 
REMARK    5  A    between atoms: C_12  and  C_17 
REMARK    6  A    between atoms: C_17  and  O_18 
REMARK    7  A    between atoms: O_18  and  C_19 
REMARK       I    between atoms: C_19  and  N_21 
REMARK    8  A    between atoms: N_21  and  C_22 
REMARK    9  A    between atoms: C_25  and  C_28 
REMARK       I    between atoms: C_28  and  N_30 
REMARK   10  A    between atoms: N_30  and  O_31 
ROOT
HETATM    1  C   UNK N   1      35.126  14.246  11.316  0.00  0.00     0.219 C 
ENDROOT
BRANCH   1   2
HETATM    2  C   UNK N   1      35.430  13.743  12.671  0.00  0.00    -0.033 A 
HETATM    3  C   UNK N   1      34.860  12.529  13.064  0.00  0.00     0.021 A 
HETATM    4  C   UNK N   1      35.095  12.024  14.323  0.00  0.00    -0.025 A 
HETATM    5  C   UNK N   1      34.460  10.849  14.723  0.00  0.00     0.013 A 
HETATM    6  C   UNK N   1      35.914  12.741  15.217  0.00  0.00    -0.025 A 
HETATM    7  C   UNK N   1      34.555  10.439  16.050  0.00  0.00     0.010 A 
HETATM    8  C   UNK N   1      35.326  11.178  16.953  0.00  0.00    -0.029 A 
HETATM    9  C   UNK N   1      36.027  12.309  16.528  0.00  0.00     0.021 A 
HETATM   10  C   UNK N   1      36.528  13.933  14.813  0.00  0.00     0.013 A 
HETATM   11  C   UNK N   1      36.291  14.432  13.529  0.00  0.00     0.010 A 
BRANCH   8  12
HETATM   12  C   UNK N   1      35.114  10.989  18.412  0.00  0.00     0.311 C 
BRANCH  12  13
HETATM   13  N   UNK N   1      35.196   9.550  18.689  0.00  0.00     0.091 N 
BRANCH  13  14
HETATM   14  C   UNK N   1      36.578   9.209  18.985  0.00  0.00     0.268 C 
HETATM   15  C   UNK N   1      37.095  10.074  20.127  0.00  0.00     0.037 C 
ENDBRANCH  13  14
BRANCH  13  16
HETATM   16  C   UNK N   1      34.390   9.226  19.866  0.00  0.00     0.268 C 
HETATM   17  C   UNK N   1      33.119   8.510  19.436  0.00  0.00     0.037 C 
ENDBRANCH  13  16
ENDBRANCH  12  13
ENDBRANCH   8  12
ENDBRANCH   1   2
BRANCH   1  18
HETATM   18  O   UNK N   1      35.374  15.590  11.368  0.00  0.00    -0.299 OA
BRANCH  18  19
HETATM   19  C   UNK N   1      35.068  16.389  10.344  0.00  0.00     0.365 C 
HETATM   20  O   UNK N   1      35.510  17.534  10.319  0.00  0.00    -0.238 OA
HETATM   21  N   UNK N   1      34.210  15.938   9.390  0.00  0.00    -0.303 N 
HETATM   22  H   UNK N   1      33.958  14.986   9.389  0.00  0.00     0.171 HD
BRANCH  21  23
HETATM   23  C   UNK N   1      33.667  16.787   8.401  0.00  0.00     0.036 C 
HETATM   24  C   UNK N   1      34.412  16.961   7.238  0.00  0.00     0.030 C 
HETATM   25  C   UNK N   1      33.766  17.280   6.047  0.00  0.00     0.019 C 
HETATM   26  C   UNK N   1      32.372  17.417   6.030  0.00  0.00     0.034 C 
HETATM   27  C   UNK N   1      31.652  17.393   7.225  0.00  0.00     0.019 C 
HETATM   28  C   UNK N   1      32.297  17.083   8.406  0.00  0.00     0.030 C 
BRANCH  26  29
HETATM   29  C   UNK N   1      31.642  17.326   4.761  0.00  0.00     0.275 C 
HETATM   30  O   UNK N   1      30.432  17.495   4.734  0.00  0.00    -0.265 OA
HETATM   31  N   UNK N   1      32.340  17.225   3.604  0.00  0.00    -0.233 N 
HETATM   32  H   UNK N   1      33.313  17.079   3.637  0.00  0.00     0.197 HD
BRANCH  31  33
HETATM   33  O   UNK N   1      31.727  17.322   2.418  0.00  0.00    -0.287 OA
HETATM   34  H   UNK N   1      31.942  18.045   1.808  0.00  0.00     0.244 HD
ENDBRANCH  31  33
ENDBRANCH  26  29
ENDBRANCH  21  23
ENDBRANCH  18  19
ENDBRANCH   1  18
TORSDOF 10
ENDMDL
MODEL 2
REMARK VINA RESULT:      -7.7     18.256     23.157
REMARK  10 active torsions:
REMARK  status: ('A' for Active; 'I' for Inactive)
REMARK    1  A    between atoms: C_2  and  N_3 
REMARK    2  A    between atoms: N_3  and  C_4 
REMARK    3  A    between atoms: N_3  and  C_6 
REMARK    4  A    between atoms: C_6  and  C_7 
REMARK    5  A    between atoms: C_12  and  C_17 
REMARK    6  A    between atoms: C_17  and  O_18 
REMARK    7  A    between atoms: O_18  and  C_19 
REMARK       I    between atoms: C_19  and  N_21 
REMARK    8  A    between atoms: N_21  and  C_22 
REMARK    9  A    between atoms: C_25  and  C_28 
REMARK       I    between atoms: C_28  and  N_30 
REMARK   10  A    between atoms: N_30  and  O_31 
ROOT
HETATM    1  C   UNK N   1      25.506  25.341  -8.073  0.00  0.00     0.219 C 
ENDROOT
BRANCH   1   2
HETATM    2  C   UNK N   1      25.842  26.381  -7.079  0.00  0.00    -0.033 A 
HETATM    3  C   UNK N   1      26.880  27.267  -7.381  0.00  0.00     0.021 A 
HETATM    4  C   UNK N   1      27.247  28.242  -6.481  0.00  0.00    -0.025 A 
HETATM    5  C   UNK N   1      28.331  29.070  -6.768  0.00  0.00     0.013 A 
HETATM    6  C   UNK N   1      26.571  28.340  -5.249  0.00  0.00    -0.025 A 
HETATM    7  C   UNK N   1      28.813  29.931  -5.785  0.00  0.00     0.010 A 
HETATM    8  C   UNK N   1      28.175  29.993  -4.542  0.00  0.00    -0.029 A 
HETATM    9  C   UNK N   1      27.039  29.220  -4.287  0.00  0.00     0.021 A 
HETATM   10  C   UNK N   1      25.499  27.487  -4.961  0.00  0.00     0.013 A 
HETATM   11  C   UNK N   1      25.127  26.507  -5.886  0.00  0.00     0.010 A 
BRANCH   8  12
HETATM   12  C   UNK N   1      28.897  30.583  -3.385  0.00  0.00     0.311 C 
BRANCH  12  13
HETATM   13  N   UNK N   1      29.169  29.500  -2.433  0.00  0.00     0.091 N 
BRANCH  13  14
HETATM   14  C   UNK N   1      30.324  28.749  -2.896  0.00  0.00     0.268 C 
HETATM   15  C   UNK N   1      31.485  28.926  -1.925  0.00  0.00     0.037 C 
ENDBRANCH  13  14
BRANCH  13  16
HETATM   16  C   UNK N   1      29.493  30.063  -1.122  0.00  0.00     0.268 C 
HETATM   17  C   UNK N   1      28.300  29.916  -0.191  0.00  0.00     0.037 C 
ENDBRANCH  13  16
ENDBRANCH  12  13
ENDBRANCH   8  12
ENDBRANCH   1   2
BRANCH   1  18
HETATM   18  O   UNK N   1      26.656  24.623  -8.245  0.00  0.00    -0.299 OA
BRANCH  18  19
HETATM   19  C   UNK N   1      27.026  23.691  -7.365  0.00  0.00     0.365 C 
HETATM   20  O   UNK N   1      26.195  22.889  -6.949  0.00  0.00    -0.238 OA
HETATM   21  N   UNK N   1      28.301  23.701  -6.891  0.00  0.00    -0.303 N 
HETATM   22  H   UNK N   1      28.963  24.290  -7.320  0.00  0.00     0.171 HD
BRANCH  21  23
HETATM   23  C   UNK N   1      28.709  22.896  -5.805  0.00  0.00     0.036 C 
HETATM   24  C   UNK N   1      29.419  21.736  -6.108  0.00  0.00     0.030 C 
HETATM   25  C   UNK N   1      30.308  21.209  -5.176  0.00  0.00     0.019 C 
HETATM   26  C   UNK N   1      30.484  21.855  -3.945  0.00  0.00     0.034 C 
HETATM   27  C   UNK N   1      29.659  22.922  -3.590  0.00  0.00     0.019 C 
HETATM   28  C   UNK N   1      28.773  23.439  -4.515  0.00  0.00     0.030 C 
BRANCH  26  29
HETATM   29  C   UNK N   1      31.683  21.588  -3.143  0.00  0.00     0.275 C 
HETATM   30  O   UNK N   1      31.790  22.060  -2.021  0.00  0.00    -0.265 OA
HETATM   31  N   UNK N   1      32.586  20.682  -3.587  0.00  0.00    -0.233 N 
HETATM   32  H   UNK N   1      32.497  20.315  -4.497  0.00  0.00     0.197 HD
BRANCH  31  33
HETATM   33  O   UNK N   1      33.597  20.276  -2.809  0.00  0.00    -0.287 OA
HETATM   34  H   UNK N   1      34.473  20.686  -2.882  0.00  0.00     0.244 HD
ENDBRANCH  31  33
ENDBRANCH  26  29
ENDBRANCH  21  23
ENDBRANCH  18  19
ENDBRANCH   1  18
TORSDOF 10
ENDMDL
MODEL 3
REMARK VINA RESULT:      -7.6      2.112      3.694
REMARK  10 active torsions:
REMARK  status: ('A' for Active; 'I' for Inactive)
REMARK    1  A    between atoms: C_2  and  N_3 
REMARK    2  A    between atoms: N_3  and  C_4 
REMARK    3  A    between atoms: N_3  and  C_6 
REMARK    4  A    between atoms: C_6  and  C_7 
REMARK    5  A    between atoms: C_12  and  C_17 
REMARK    6  A    between atoms: C_17  and  O_18 
REMARK    7  A    between atoms: O_18  and  C_19 
REMARK       I    between atoms: C_19  and  N_21 
REMARK    8  A    between atoms: N_21  and  C_22 
REMARK    9  A    between atoms: C_25  and  C_28 
REMARK       I    between atoms: C_28  and  N_30 
REMARK   10  A    between atoms: N_30  and  O_31 
ROOT
HETATM    1  C   UNK N   1      34.644  12.007  14.005  0.00  0.00     0.219 C 
ENDROOT
BRANCH   1   2
HETATM    2  C   UNK N   1      34.822  11.794  15.456  0.00  0.00    -0.033 A 
HETATM    3  C   UNK N   1      34.846  10.479  15.928  0.00  0.00     0.021 A 
HETATM    4  C   UNK N   1      34.989  10.225  17.273  0.00  0.00    -0.025 A 
HETATM    5  C   UNK N   1      34.939   8.911  17.735  0.00  0.00     0.013 A 
HETATM    6  C   UNK N   1      35.108  11.301  18.175  0.00  0.00    -0.025 A 
HETATM    7  C   UNK N   1      34.902   8.668  19.106  0.00  0.00     0.010 A 
HETATM    8  C   UNK N   1      34.967   9.739  20.003  0.00  0.00    -0.029 A 
HETATM    9  C   UNK N   1      35.101  11.050  19.536  0.00  0.00     0.021 A 
HETATM   10  C   UNK N   1      35.133  12.620  17.703  0.00  0.00     0.013 A 
HETATM   11  C   UNK N   1      34.998  12.867  16.333  0.00  0.00     0.010 A 
BRANCH   8  12
HETATM   12  C   UNK N   1      34.533   9.534  21.409  0.00  0.00     0.311 C 
BRANCH  12  13
HETATM   13  N   UNK N   1      33.115   9.906  21.493  0.00  0.00     0.091 N 
BRANCH  13  14
HETATM   14  C   UNK N   1      32.314   8.694  21.525  0.00  0.00     0.268 C 
HETATM   15  C   UNK N   1      31.363   8.666  20.335  0.00  0.00     0.037 C 
ENDBRANCH  13  14
BRANCH  13  16
HETATM   16  C   UNK N   1      32.870  10.641  22.734  0.00  0.00     0.268 C 
HETATM   17  C   UNK N   1      33.615   9.977  23.881  0.00  0.00     0.037 C 
ENDBRANCH  13  16
ENDBRANCH  12  13
ENDBRANCH   8  12
ENDBRANCH   1   2
BRANCH   1  18
HETATM   18  O   UNK N   1      34.812  13.351  13.815  0.00  0.00    -0.299 OA
BRANCH  18  19
HETATM   19  C   UNK N   1      35.351  13.828  12.691  0.00  0.00     0.365 C 
HETATM   20  O   UNK N   1      36.561  14.021  12.637  0.00  0.00    -0.238 OA
HETATM   21  N   UNK N   1      34.532  14.161  11.658  0.00  0.00    -0.303 N 
HETATM   22  H   UNK N   1      33.584  13.898  11.699  0.00  0.00     0.171 HD
BRANCH  21  23
HETATM   23  C   UNK N   1      34.993  14.869  10.527  0.00  0.00     0.036 C 
HETATM   24  C   UNK N   1      35.093  14.161   9.333  0.00  0.00     0.030 C 
HETATM   25  C   UNK N   1      34.985  14.836   8.120  0.00  0.00     0.019 C 
HETATM   26  C   UNK N   1      34.770  16.220   8.114  0.00  0.00     0.034 C 
HETATM   27  C   UNK N   1      34.827  16.942   9.307  0.00  0.00     0.019 C 
HETATM   28  C   UNK N   1      34.941  16.270  10.508  0.00  0.00     0.030 C 
BRANCH  26  29
HETATM   29  C   UNK N   1      34.238  16.874   6.914  0.00  0.00     0.275 C 
HETATM   30  O   UNK N   1      34.302  18.088   6.796  0.00  0.00    -0.265 OA
HETATM   31  N   UNK N   1      33.833  16.111   5.871  0.00  0.00    -0.233 N 
HETATM   32  H   UNK N   1      33.776  15.134   5.980  0.00  0.00     0.197 HD
BRANCH  31  33
HETATM   33  O   UNK N   1      33.513  16.663   4.695  0.00  0.00    -0.287 OA
HETATM   34  H   UNK N   1      34.145  17.231   4.227  0.00  0.00     0.244 HD
ENDBRANCH  31  33
ENDBRANCH  26  29
ENDBRANCH  21  23
ENDBRANCH  18  19
ENDBRANCH   1  18
TORSDOF 10
ENDMDL
MODEL 4
REMARK VINA RESULT:      -7.6      3.571     12.333
REMARK  10 active torsions:
REMARK  status: ('A' for Active; 'I' for Inactive)
REMARK    1  A    between atoms: C_2  and  N_3 
REMARK    2  A    between atoms: N_3  and  C_4 
REMARK    3  A    between atoms: N_3  and  C_6 
REMARK    4  A    between atoms: C_6  and  C_7 
REMARK    5  A    between atoms: C_12  and  C_17 
REMARK    6  A    between atoms: C_17  and  O_18 
REMARK    7  A    between atoms: O_18  and  C_19 
REMARK       I    between atoms: C_19  and  N_21 
REMARK    8  A    between atoms: N_21  and  C_22 
REMARK    9  A    between atoms: C_25  and  C_28 
REMARK       I    between atoms: C_28  and  N_30 
REMARK   10  A    between atoms: N_30  and  O_31 
ROOT
HETATM    1  C   UNK N   1      35.816  13.545  12.463  0.00  0.00     0.219 C 
ENDROOT
BRANCH   1   2
HETATM    2  C   UNK N   1      35.316  14.566  11.519  0.00  0.00    -0.033 A 
HETATM    3  C   UNK N   1      34.253  14.221  10.680  0.00  0.00     0.021 A 
HETATM    4  C   UNK N   1      33.763  15.128   9.769  0.00  0.00    -0.025 A 
HETATM    5  C   UNK N   1      32.750  14.743   8.891  0.00  0.00     0.013 A 
HETATM    6  C   UNK N   1      34.341  16.410   9.683  0.00  0.00    -0.025 A 
HETATM    7  C   UNK N   1      32.381  15.598   7.855  0.00  0.00     0.010 A 
HETATM    8  C   UNK N   1      32.992  16.850   7.737  0.00  0.00    -0.029 A 
HETATM    9  C   UNK N   1      33.948  17.265   8.668  0.00  0.00     0.021 A 
HETATM   10  C   UNK N   1      35.374  16.778  10.554  0.00  0.00     0.013 A 
HETATM   11  C   UNK N   1      35.859  15.853  11.483  0.00  0.00     0.010 A 
BRANCH   8  12
HETATM   12  C   UNK N   1      32.906  17.580   6.445  0.00  0.00     0.311 C 
BRANCH  12  13
HETATM   13  N   UNK N   1      32.460  16.623   5.424  0.00  0.00     0.091 N 
BRANCH  13  14
HETATM   14  C   UNK N   1      31.449  17.259   4.597  0.00  0.00     0.268 C 
HETATM   15  C   UNK N   1      30.155  17.418   5.385  0.00  0.00     0.037 C 
ENDBRANCH  13  14
BRANCH  13  16
HETATM   16  C   UNK N   1      33.585  16.259   4.563  0.00  0.00     0.268 C 
HETATM   17  C   UNK N   1      33.090  16.015   3.146  0.00  0.00     0.037 C 
ENDBRANCH  13  16
ENDBRANCH  12  13
ENDBRANCH   8  12
ENDBRANCH   1   2
BRANCH   1  18
HETATM   18  O   UNK N   1      35.103  13.739  13.613  0.00  0.00    -0.299 OA
BRANCH  18  19
HETATM   19  C   UNK N   1      35.644  13.504  14.809  0.00  0.00     0.365 C 
HETATM   20  O   UNK N   1      36.850  13.668  14.968  0.00  0.00    -0.238 OA
HETATM   21  N   UNK N   1      34.858  13.012  15.804  0.00  0.00    -0.303 N 
HETATM   22  H   UNK N   1      33.882  12.990  15.671  0.00  0.00     0.171 HD
BRANCH  21  23
HETATM   23  C   UNK N   1      35.390  12.533  17.020  0.00  0.00     0.036 C 
HETATM   24  C   UNK N   1      35.197  13.323  18.151  0.00  0.00     0.030 C 
HETATM   25  C   UNK N   1      35.166  12.729  19.409  0.00  0.00     0.019 C 
HETATM   26  C   UNK N   1      35.324  11.342  19.525  0.00  0.00     0.034 C 
HETATM   27  C   UNK N   1      35.671  10.582  18.408  0.00  0.00     0.019 C 
HETATM   28  C   UNK N   1      35.707  11.175  17.161  0.00  0.00     0.030 C 
BRANCH  26  29
HETATM   29  C   UNK N   1      34.881  10.654  20.742  0.00  0.00     0.275 C 
HETATM   30  O   UNK N   1      35.510   9.698  21.171  0.00  0.00    -0.265 OA
HETATM   31  N   UNK N   1      33.875  11.188  21.474  0.00  0.00    -0.233 N 
HETATM   32  H   UNK N   1      33.368  11.952  21.115  0.00  0.00     0.197 HD
BRANCH  31  33
HETATM   33  O   UNK N   1      33.561  10.697  22.679  0.00  0.00    -0.287 OA
HETATM   34  H   UNK N   1      33.836   9.802  22.934  0.00  0.00     0.244 HD
ENDBRANCH  31  33
ENDBRANCH  26  29
ENDBRANCH  21  23
ENDBRANCH  18  19
ENDBRANCH   1  18
TORSDOF 10
ENDMDL
MODEL 5
REMARK VINA RESULT:      -7.6      1.580      2.663
REMARK  10 active torsions:
REMARK  status: ('A' for Active; 'I' for Inactive)
REMARK    1  A    between atoms: C_2  and  N_3 
REMARK    2  A    between atoms: N_3  and  C_4 
REMARK    3  A    between atoms: N_3  and  C_6 
REMARK    4  A    between atoms: C_6  and  C_7 
REMARK    5  A    between atoms: C_12  and  C_17 
REMARK    6  A    between atoms: C_17  and  O_18 
REMARK    7  A    between atoms: O_18  and  C_19 
REMARK       I    between atoms: C_19  and  N_21 
REMARK    8  A    between atoms: N_21  and  C_22 
REMARK    9  A    between atoms: C_25  and  C_28 
REMARK       I    between atoms: C_28  and  N_30 
REMARK   10  A    between atoms: N_30  and  O_31 
ROOT
HETATM    1  C   UNK N   1      36.096  14.037  13.433  0.00  0.00     0.219 C 
ENDROOT
BRANCH   1   2
HETATM    2  C   UNK N   1      35.851  13.111  14.558  0.00  0.00    -0.033 A 
HETATM    3  C   UNK N   1      35.595  13.661  15.817  0.00  0.00     0.021 A 
HETATM    4  C   UNK N   1      35.380  12.843  16.903  0.00  0.00    -0.025 A 
HETATM    5  C   UNK N   1      35.198  13.408  18.165  0.00  0.00     0.013 A 
HETATM    6  C   UNK N   1      35.422  11.445  16.739  0.00  0.00    -0.025 A 
HETATM    7  C   UNK N   1      35.161  12.582  19.285  0.00  0.00     0.010 A 
HETATM    8  C   UNK N   1      35.255  11.195  19.130  0.00  0.00    -0.029 A 
HETATM    9  C   UNK N   1      35.355  10.629  17.856  0.00  0.00     0.021 A 
HETATM   10  C   UNK N   1      35.629  10.888  15.471  0.00  0.00     0.013 A 
HETATM   11  C   UNK N   1      35.836  11.727  14.372  0.00  0.00     0.010 A 
BRANCH   8  12
HETATM   12  C   UNK N   1      35.616  10.357  20.302  0.00  0.00     0.311 C 
BRANCH  12  13
HETATM   13  N   UNK N   1      34.443   9.541  20.641  0.00  0.00     0.091 N 
BRANCH  13  14
HETATM   14  C   UNK N   1      34.781   8.139  20.463  0.00  0.00     0.268 C 
HETATM   15  C   UNK N   1      33.868   7.510  19.419  0.00  0.00     0.037 C 
ENDBRANCH  13  14
BRANCH  13  16
HETATM   16  C   UNK N   1      34.089   9.745  22.045  0.00  0.00     0.268 C 
HETATM   17  C   UNK N   1      32.935  10.730  22.146  0.00  0.00     0.037 C 
ENDBRANCH  13  16
ENDBRANCH  12  13
ENDBRANCH   8  12
ENDBRANCH   1   2
BRANCH   1  18
HETATM   18  O   UNK N   1      34.881  14.195  12.825  0.00  0.00    -0.299 OA
BRANCH  18  19
HETATM   19  C   UNK N   1      34.782  14.308  11.500  0.00  0.00     0.365 C 
HETATM   20  O   UNK N   1      35.714  13.940  10.791  0.00  0.00    -0.238 OA
HETATM   21  N   UNK N   1      33.679  14.901  10.970  0.00  0.00    -0.303 N 
HETATM   22  H   UNK N   1      32.911  15.089  11.558  0.00  0.00     0.171 HD
BRANCH  21  23
HETATM   23  C   UNK N   1      33.594  15.255   9.606  0.00  0.00     0.036 C 
HETATM   24  C   UNK N   1      32.853  14.415   8.778  0.00  0.00     0.030 C 
HETATM   25  C   UNK N   1      32.258  14.929   7.630  0.00  0.00     0.019 C 
HETATM   26  C   UNK N   1      32.405  16.288   7.322  0.00  0.00     0.034 C 
HETATM   27  C   UNK N   1      33.273  17.085   8.069  0.00  0.00     0.019 C 
HETATM   28  C   UNK N   1      33.867  16.570   9.205  0.00  0.00     0.030 C 
BRANCH  26  29
HETATM   29  C   UNK N   1      31.471  16.934   6.394  0.00  0.00     0.275 C 
HETATM   30  O   UNK N   1      30.410  17.383   6.803  0.00  0.00    -0.265 OA
HETATM   31  N   UNK N   1      31.867  17.179   5.122  0.00  0.00    -0.233 N 
HETATM   32  H   UNK N   1      32.719  16.804   4.800  0.00  0.00     0.197 HD
BRANCH  31  33
HETATM   33  O   UNK N   1      31.120  17.924   4.298  0.00  0.00    -0.287 OA
HETATM   34  H   UNK N   1      30.361  18.424   4.636  0.00  0.00     0.244 HD
ENDBRANCH  31  33
ENDBRANCH  26  29
ENDBRANCH  21  23
ENDBRANCH  18  19
ENDBRANCH   1  18
TORSDOF 10
ENDMDL
MODEL 6
REMARK VINA RESULT:      -7.4      3.562     12.155
REMARK  10 active torsions:
REMARK  status: ('A' for Active; 'I' for Inactive)
REMARK    1  A    between atoms: C_2  and  N_3 
REMARK    2  A    between atoms: N_3  and  C_4 
REMARK    3  A    between atoms: N_3  and  C_6 
REMARK    4  A    between atoms: C_6  and  C_7 
REMARK    5  A    between atoms: C_12  and  C_17 
REMARK    6  A    between atoms: C_17  and  O_18 
REMARK    7  A    between atoms: O_18  and  C_19 
REMARK       I    between atoms: C_19  and  N_21 
REMARK    8  A    between atoms: N_21  and  C_22 
REMARK    9  A    between atoms: C_25  and  C_28 
REMARK       I    between atoms: C_28  and  N_30 
REMARK   10  A    between atoms: N_30  and  O_31 
ROOT
HETATM    1  C   UNK N   1      36.505  13.713  12.095  0.00  0.00     0.219 C 
ENDROOT
BRANCH   1   2
HETATM    2  C   UNK N   1      35.719  14.631  11.245  0.00  0.00    -0.033 A 
HETATM    3  C   UNK N   1      34.685  14.091  10.476  0.00  0.00     0.021 A 
HETATM    4  C   UNK N   1      33.935  14.899   9.652  0.00  0.00    -0.025 A 
HETATM    5  C   UNK N   1      32.955  14.332   8.838  0.00  0.00     0.013 A 
HETATM    6  C   UNK N   1      34.218  16.277   9.586  0.00  0.00    -0.025 A 
HETATM    7  C   UNK N   1      32.324  15.119   7.878  0.00  0.00     0.010 A 
HETATM    8  C   UNK N   1      32.641  16.477   7.775  0.00  0.00    -0.029 A 
HETATM    9  C   UNK N   1      33.564  17.059   8.648  0.00  0.00     0.021 A 
HETATM   10  C   UNK N   1      35.221  16.833  10.390  0.00  0.00     0.013 A 
HETATM   11  C   UNK N   1      35.970  16.005  11.232  0.00  0.00     0.010 A 
BRANCH   8  12
HETATM   12  C   UNK N   1      32.289  17.211   6.532  0.00  0.00     0.311 C 
BRANCH  12  13
HETATM   13  N   UNK N   1      30.978  16.724   6.086  0.00  0.00     0.091 N 
BRANCH  13  14
HETATM   14  C   UNK N   1      29.942  17.435   6.815  0.00  0.00     0.268 C 
HETATM   15  C   UNK N   1      28.857  17.905   5.856  0.00  0.00     0.037 C 
ENDBRANCH  13  14
BRANCH  13  16
HETATM   16  C   UNK N   1      30.804  17.010   4.662  0.00  0.00     0.268 C 
HETATM   17  C   UNK N   1      32.084  17.606   4.096  0.00  0.00     0.037 C 
ENDBRANCH  13  16
ENDBRANCH  12  13
ENDBRANCH   8  12
ENDBRANCH   1   2
BRANCH   1  18
HETATM   18  O   UNK N   1      36.331  14.167  13.373  0.00  0.00    -0.299 OA
BRANCH  18  19
HETATM   19  C   UNK N   1      35.681  13.438  14.282  0.00  0.00     0.365 C 
HETATM   20  O   UNK N   1      34.542  13.051  14.043  0.00  0.00    -0.238 OA
HETATM   21  N   UNK N   1      36.271  13.208  15.486  0.00  0.00    -0.303 N 
HETATM   22  H   UNK N   1      37.219  13.446  15.604  0.00  0.00     0.171 HD
BRANCH  21  23
HETATM   23  C   UNK N   1      35.572  12.640  16.573  0.00  0.00     0.036 C 
HETATM   24  C   UNK N   1      35.573  11.251  16.671  0.00  0.00     0.030 C 
HETATM   25  C   UNK N   1      35.427  10.648  17.917  0.00  0.00     0.019 C 
HETATM   26  C   UNK N   1      35.286  11.445  19.060  0.00  0.00     0.034 C 
HETATM   27  C   UNK N   1      35.130  12.826  18.936  0.00  0.00     0.019 C 
HETATM   28  C   UNK N   1      35.269  13.421  17.697  0.00  0.00     0.030 C 
BRANCH  26  29
HETATM   29  C   UNK N   1      35.555  10.878  20.386  0.00  0.00     0.275 C 
HETATM   30  O   UNK N   1      34.844   9.990  20.831  0.00  0.00    -0.265 OA
HETATM   31  N   UNK N   1      36.693  11.225  21.033  0.00  0.00    -0.233 N 
HETATM   32  H   UNK N   1      37.254  11.949  20.671  0.00  0.00     0.197 HD
BRANCH  31  33
HETATM   33  O   UNK N   1      37.067  10.599  22.156  0.00  0.00    -0.287 OA
HETATM   34  H   UNK N   1      37.483  11.091  22.881  0.00  0.00     0.244 HD
ENDBRANCH  31  33
ENDBRANCH  26  29
ENDBRANCH  21  23
ENDBRANCH  18  19
ENDBRANCH   1  18
TORSDOF 10
ENDMDL
MODEL 7
REMARK VINA RESULT:      -7.3      1.896      2.954
REMARK  10 active torsions:
REMARK  status: ('A' for Active; 'I' for Inactive)
REMARK    1  A    between atoms: C_2  and  N_3 
REMARK    2  A    between atoms: N_3  and  C_4 
REMARK    3  A    between atoms: N_3  and  C_6 
REMARK    4  A    between atoms: C_6  and  C_7 
REMARK    5  A    between atoms: C_12  and  C_17 
REMARK    6  A    between atoms: C_17  and  O_18 
REMARK    7  A    between atoms: O_18  and  C_19 
REMARK       I    between atoms: C_19  and  N_21 
REMARK    8  A    between atoms: N_21  and  C_22 
REMARK    9  A    between atoms: C_25  and  C_28 
REMARK       I    between atoms: C_28  and  N_30 
REMARK   10  A    between atoms: N_30  and  O_31 
ROOT
HETATM    1  C   UNK N   1      34.867  12.399  13.220  0.00  0.00     0.219 C 
ENDROOT
BRANCH   1   2
HETATM    2  C   UNK N   1      35.031  12.244  14.680  0.00  0.00    -0.033 A 
HETATM    3  C   UNK N   1      34.879  10.966  15.226  0.00  0.00     0.021 A 
HETATM    4  C   UNK N   1      35.002  10.769  16.583  0.00  0.00    -0.025 A 
HETATM    5  C   UNK N   1      34.777   9.502  17.118  0.00  0.00     0.013 A 
HETATM    6  C   UNK N   1      35.280  11.866  17.421  0.00  0.00    -0.025 A 
HETATM    7  C   UNK N   1      34.723   9.342  18.500  0.00  0.00     0.010 A 
HETATM    8  C   UNK N   1      34.947  10.441  19.336  0.00  0.00    -0.029 A 
HETATM    9  C   UNK N   1      35.254  11.693  18.795  0.00  0.00     0.021 A 
HETATM   10  C   UNK N   1      35.481  13.140  16.876  0.00  0.00     0.013 A 
HETATM   11  C   UNK N   1      35.364  13.328  15.496  0.00  0.00     0.010 A 
BRANCH   8  12
HETATM   12  C   UNK N   1      34.505  10.376  20.753  0.00  0.00     0.311 C 
BRANCH  12  13
HETATM   13  N   UNK N   1      33.751   9.128  20.925  0.00  0.00     0.091 N 
BRANCH  13  14
HETATM   14  C   UNK N   1      34.352   8.364  22.005  0.00  0.00     0.268 C 
HETATM   15  C   UNK N   1      34.534   9.248  23.232  0.00  0.00     0.037 C 
ENDBRANCH  13  14
BRANCH  13  16
HETATM   16  C   UNK N   1      32.371   9.433  21.302  0.00  0.00     0.268 C 
HETATM   17  C   UNK N   1      31.412   8.711  20.368  0.00  0.00     0.037 C 
ENDBRANCH  13  16
ENDBRANCH  12  13
ENDBRANCH   8  12
ENDBRANCH   1   2
BRANCH   1  18
HETATM   18  O   UNK N   1      34.913  13.747  12.995  0.00  0.00    -0.299 OA
BRANCH  18  19
HETATM   19  C   UNK N   1      34.803  14.245  11.762  0.00  0.00     0.365 C 
HETATM   20  O   UNK N   1      35.064  15.428  11.563  0.00  0.00    -0.238 OA
HETATM   21  N   UNK N   1      34.329  13.447  10.768  0.00  0.00    -0.303 N 
HETATM   22  H   UNK N   1      34.228  12.482  10.941  0.00  0.00     0.171 HD
BRANCH  21  23
HETATM   23  C   UNK N   1      33.978  13.951   9.497  0.00  0.00     0.036 C 
HETATM   24  C   UNK N   1      32.834  14.740   9.423  0.00  0.00     0.030 C 
HETATM   25  C   UNK N   1      32.721  15.697   8.418  0.00  0.00     0.019 C 
HETATM   26  C   UNK N   1      33.762  15.860   7.496  0.00  0.00     0.034 C 
HETATM   27  C   UNK N   1      34.832  14.964   7.483  0.00  0.00     0.019 C 
HETATM   28  C   UNK N   1      34.938  14.012   8.477  0.00  0.00     0.030 C 
BRANCH  26  29
HETATM   29  C   UNK N   1      33.867  17.101   6.721  0.00  0.00     0.275 C 
HETATM   30  O   UNK N   1      34.587  18.009   7.108  0.00  0.00    -0.265 OA
HETATM   31  N   UNK N   1      33.296  17.163   5.494  0.00  0.00    -0.233 N 
HETATM   32  H   UNK N   1      32.709  16.431   5.196  0.00  0.00     0.197 HD
BRANCH  31  33
HETATM   33  O   UNK N   1      33.519  18.203   4.682  0.00  0.00    -0.287 OA
HETATM   34  H   UNK N   1      33.741  18.062   3.748  0.00  0.00     0.244 HD
ENDBRANCH  31  33
ENDBRANCH  26  29
ENDBRANCH  21  23
ENDBRANCH  18  19
ENDBRANCH   1  18
TORSDOF 10
ENDMDL
MODEL 8
REMARK VINA RESULT:      -7.3      1.471      2.616
REMARK  10 active torsions:
REMARK  status: ('A' for Active; 'I' for Inactive)
REMARK    1  A    between atoms: C_2  and  N_3 
REMARK    2  A    between atoms: N_3  and  C_4 
REMARK    3  A    between atoms: N_3  and  C_6 
REMARK    4  A    between atoms: C_6  and  C_7 
REMARK    5  A    between atoms: C_12  and  C_17 
REMARK    6  A    between atoms: C_17  and  O_18 
REMARK    7  A    between atoms: O_18  and  C_19 
REMARK       I    between atoms: C_19  and  N_21 
REMARK    8  A    between atoms: N_21  and  C_22 
REMARK    9  A    between atoms: C_25  and  C_28 
REMARK       I    between atoms: C_28  and  N_30 
REMARK   10  A    between atoms: N_30  and  O_31 
ROOT
HETATM    1  C   UNK N   1      35.757  13.926  12.999  0.00  0.00     0.219 C 
ENDROOT
BRANCH   1   2
HETATM    2  C   UNK N   1      35.443  12.924  14.038  0.00  0.00    -0.033 A 
HETATM    3  C   UNK N   1      35.474  13.332  15.374  0.00  0.00     0.021 A 
HETATM    4  C   UNK N   1      35.209  12.433  16.382  0.00  0.00    -0.025 A 
HETATM    5  C   UNK N   1      35.315  12.839  17.712  0.00  0.00     0.013 A 
HETATM    6  C   UNK N   1      34.909  11.095  16.059  0.00  0.00    -0.025 A 
HETATM    7  C   UNK N   1      35.225  11.890  18.726  0.00  0.00     0.010 A 
HETATM    8  C   UNK N   1      34.979  10.551  18.406  0.00  0.00    -0.029 A 
HETATM    9  C   UNK N   1      34.792  10.162  17.076  0.00  0.00     0.021 A 
HETATM   10  C   UNK N   1      34.830  10.691  14.721  0.00  0.00     0.013 A 
HETATM   11  C   UNK N   1      35.090  11.614  13.703  0.00  0.00     0.010 A 
BRANCH   8  12
HETATM   12  C   UNK N   1      35.276   9.498  19.411  0.00  0.00     0.311 C 
BRANCH  12  13
HETATM   13  N   UNK N   1      35.059  10.081  20.741  0.00  0.00     0.091 N 
BRANCH  13  14
HETATM   14  C   UNK N   1      33.816   9.558  21.283  0.00  0.00     0.268 C 
HETATM   15  C   UNK N   1      33.047  10.667  21.988  0.00  0.00     0.037 C 
ENDBRANCH  13  14
BRANCH  13  16
HETATM   16  C   UNK N   1      36.144   9.684  21.638  0.00  0.00     0.268 C 
HETATM   17  C   UNK N   1      37.468   9.726  20.892  0.00  0.00     0.037 C 
ENDBRANCH  13  16
ENDBRANCH  12  13
ENDBRANCH   8  12
ENDBRANCH   1   2
BRANCH   1  18
HETATM   18  O   UNK N   1      34.555  14.237  12.425  0.00  0.00    -0.299 OA
BRANCH  18  19
HETATM   19  C   UNK N   1      34.453  14.454  11.112  0.00  0.00     0.365 C 
HETATM   20  O   UNK N   1      35.432  14.281  10.394  0.00  0.00    -0.238 OA
HETATM   21  N   UNK N   1      33.283  14.937  10.613  0.00  0.00    -0.303 N 
HETATM   22  H   UNK N   1      32.492  14.967  11.200  0.00  0.00     0.171 HD
BRANCH  21  23
HETATM   23  C   UNK N   1      33.162  15.397   9.284  0.00  0.00     0.036 C 
HETATM   24  C   UNK N   1      32.518  14.557   8.379  0.00  0.00     0.030 C 
HETATM   25  C   UNK N   1      31.872  15.101   7.273  0.00  0.00     0.019 C 
HETATM   26  C   UNK N   1      31.871  16.489   7.085  0.00  0.00     0.034 C 
HETATM   27  C   UNK N   1      32.647  17.307   7.907  0.00  0.00     0.019 C 
HETATM   28  C   UNK N   1      33.292  16.763   9.000  0.00  0.00     0.030 C 
BRANCH  26  29
HETATM   29  C   UNK N   1      30.874  17.109   6.205  0.00  0.00     0.275 C 
HETATM   30  O   UNK N   1      29.864  17.609   6.678  0.00  0.00    -0.265 OA
HETATM   31  N   UNK N   1      31.162  17.271   4.892  0.00  0.00    -0.233 N 
HETATM   32  H   UNK N   1      31.973  16.855   4.519  0.00  0.00     0.197 HD
BRANCH  31  33
HETATM   33  O   UNK N   1      30.362  17.990   4.095  0.00  0.00    -0.287 OA
HETATM   34  H   UNK N   1      30.151  17.681   3.199  0.00  0.00     0.244 HD
ENDBRANCH  31  33
ENDBRANCH  26  29
ENDBRANCH  21  23
ENDBRANCH  18  19
ENDBRANCH   1  18
TORSDOF 10
ENDMDL
MODEL 9
REMARK VINA RESULT:      -7.0      3.194     12.320
REMARK  10 active torsions:
REMARK  status: ('A' for Active; 'I' for Inactive)
REMARK    1  A    between atoms: C_2  and  N_3 
REMARK    2  A    between atoms: N_3  and  C_4 
REMARK    3  A    between atoms: N_3  and  C_6 
REMARK    4  A    between atoms: C_6  and  C_7 
REMARK    5  A    between atoms: C_12  and  C_17 
REMARK    6  A    between atoms: C_17  and  O_18 
REMARK    7  A    between atoms: O_18  and  C_19 
REMARK       I    between atoms: C_19  and  N_21 
REMARK    8  A    between atoms: N_21  and  C_22 
REMARK    9  A    between atoms: C_25  and  C_28 
REMARK       I    between atoms: C_28  and  N_30 
REMARK   10  A    between atoms: N_30  and  O_31 
ROOT
HETATM    1  C   UNK N   1      34.857  16.549   8.921  0.00  0.00     0.219 C 
ENDROOT
BRANCH   1   2
HETATM    2  C   UNK N   1      33.865  16.830   7.862  0.00  0.00    -0.033 A 
HETATM    3  C   UNK N   1      32.537  17.038   8.245  0.00  0.00     0.021 A 
HETATM    4  C   UNK N   1      31.569  17.283   7.297  0.00  0.00    -0.025 A 
HETATM    5  C   UNK N   1      30.239  17.417   7.690  0.00  0.00     0.013 A 
HETATM    6  C   UNK N   1      31.925  17.321   5.935  0.00  0.00    -0.025 A 
HETATM    7  C   UNK N   1      29.242  17.484   6.720  0.00  0.00     0.010 A 
HETATM    8  C   UNK N   1      29.589  17.469   5.365  0.00  0.00    -0.029 A 
HETATM    9  C   UNK N   1      30.930  17.417   4.976  0.00  0.00     0.021 A 
HETATM   10  C   UNK N   1      33.262  17.161   5.548  0.00  0.00     0.013 A 
HETATM   11  C   UNK N   1      34.239  16.923   6.519  0.00  0.00     0.010 A 
BRANCH   8  12
HETATM   12  C   UNK N   1      28.551  17.139   4.355  0.00  0.00     0.311 C 
BRANCH  12  13
HETATM   13  N   UNK N   1      27.309  17.810   4.759  0.00  0.00     0.091 N 
BRANCH  13  14
HETATM   14  C   UNK N   1      27.104  18.968   3.906  0.00  0.00     0.268 C 
HETATM   15  C   UNK N   1      27.306  20.248   4.706  0.00  0.00     0.037 C 
ENDBRANCH  13  14
BRANCH  13  16
HETATM   16  C   UNK N   1      26.175  16.906   4.573  0.00  0.00     0.268 C 
HETATM   17  C   UNK N   1      25.836  16.804   3.094  0.00  0.00     0.037 C 
ENDBRANCH  13  16
ENDBRANCH  12  13
ENDBRANCH   8  12
ENDBRANCH   1   2
BRANCH   1  18
HETATM   18  O   UNK N   1      34.488  15.343   9.448  0.00  0.00    -0.299 OA
BRANCH  18  19
HETATM   19  C   UNK N   1      35.241  14.730  10.363  0.00  0.00     0.365 C 
HETATM   20  O   UNK N   1      36.274  14.167  10.016  0.00  0.00    -0.238 OA
HETATM   21  N   UNK N   1      34.804  14.680  11.650  0.00  0.00    -0.303 N 
HETATM   22  H   UNK N   1      34.027  15.227  11.910  0.00  0.00     0.171 HD
BRANCH  21  23
HETATM   23  C   UNK N   1      35.424  13.872  12.627  0.00  0.00     0.036 C 
HETATM   24  C   UNK N   1      36.242  14.513  13.554  0.00  0.00     0.030 C 
HETATM   25  C   UNK N   1      36.426  13.953  14.815  0.00  0.00     0.019 C 
HETATM   26  C   UNK N   1      35.782  12.752  15.140  0.00  0.00     0.034 C 
HETATM   27  C   UNK N   1      35.092  12.040  14.158  0.00  0.00     0.019 C 
HETATM   28  C   UNK N   1      34.917  12.595  12.906  0.00  0.00     0.030 C 
BRANCH  26  29
HETATM   29  C   UNK N   1      35.609  12.371  16.546  0.00  0.00     0.275 C 
HETATM   30  O   UNK N   1      35.958  11.265  16.931  0.00  0.00    -0.265 OA
HETATM   31  N   UNK N   1      35.221  13.310  17.442  0.00  0.00    -0.233 N 
HETATM   32  H   UNK N   1      34.933  14.195  17.120  0.00  0.00     0.197 HD
BRANCH  31  33
HETATM   33  O   UNK N   1      35.226  13.055  18.755  0.00  0.00    -0.287 OA
HETATM   34  H   UNK N   1      34.549  13.437  19.336  0.00  0.00     0.244 HD
ENDBRANCH  31  33
ENDBRANCH  26  29
ENDBRANCH  21  23
ENDBRANCH  18  19
ENDBRANCH   1  18
TORSDOF 10
ENDMDL
