MODEL 1
REMARK VINA RESULT:      -6.7      0.000      0.000
REMARK  7 active torsions:
REMARK  status: ('A' for Active; 'I' for Inactive)
REMARK    1  A    between atoms: C_9  and  C_8 
REMARK    2  A    between atoms: O_26  and  C_8 
REMARK    3  A    between atoms: C_17  and  C_11 
REMARK    4  A    between atoms: N_22  and  C_14 
REMARK    5  A    between atoms: N_22  and  C_16 
REMARK    6  A    between atoms: O_25  and  C_17 
REMARK    7  A    between atoms: N_23  and  O_26 
ROOT
HETATM    1  C   UNK N   1      27.669  20.148   7.051  0.00  0.00     0.021 A 
HETATM    2  C   UNK N   1      27.286  20.724   5.852  0.00  0.00     0.046 A 
HETATM    3  C   UNK N   1      28.140  18.825   7.144  0.00  0.00     0.046 A 
HETATM    4  C   UNK N   1      27.392  20.004   4.679  0.00  0.00     0.157 A 
HETATM    5  C   UNK N   1      27.860  18.692   4.699  0.00  0.00     0.182 A 
HETATM    6  C   UNK N   1      28.216  18.056   5.926  0.00  0.00     0.089 A 
HETATM    7  F   UNK N   1      27.060  20.590   3.502  0.00  0.00    -0.203 F 
HETATM    8  F   UNK N   1      28.014  18.075   3.503  0.00  0.00    -0.200 F 
ENDROOT
BRANCH   3   9
HETATM    9  C   UNK N   1      28.556  18.440   8.553  0.00  0.00     0.172 C 
HETATM   10  N   UNK N   1      29.757  18.350   9.020  0.00  0.00    -0.244 N 
ATOM     11  HN  UNK N   1      29.852  18.154  10.017  1.00  0.00     0.196 HD
BRANCH  10  12
HETATM   12  O   UNK N   1      30.865  18.488   8.335  0.00  0.00    -0.278 OA
BRANCH  12  13
HETATM   13  C   UNK N   1      31.910  17.611   8.535  0.00  0.00     0.205 C 
BRANCH  13  14
HETATM   14  C   UNK N   1      33.221  18.151   7.976  0.00  0.00     0.012 A 
HETATM   15  C   UNK N   1      34.372  17.582   8.779  0.00  0.00     0.007 A 
HETATM   16  C   UNK N   1      34.044  17.004   7.419  0.00  0.00     0.007 A 
ENDBRANCH  13  14
ENDBRANCH  12  13
ENDBRANCH  10  12
BRANCH   9  17
HETATM   17  O   UNK N   1      27.558  18.161   9.417  0.00  0.00    -0.344 OA
HETATM   18  H   UNK N   1      26.847  18.762   9.524  0.00  0.00     0.219 HD
ENDBRANCH   9  17
ENDBRANCH   3   9
BRANCH   6  19
HETATM   19  N   UNK N   1      28.728  16.721   5.924  0.00  0.00    -0.352 N 
HETATM   20  H   UNK N   1      28.234  16.065   6.467  0.00  0.00     0.166 HD
BRANCH  19  21
HETATM   21  C   UNK N   1      29.874  16.227   5.222  0.00  0.00     0.054 A 
HETATM   22  C   UNK N   1      31.010  17.028   5.010  0.00  0.00     0.032 A 
HETATM   23  C   UNK N   1      32.133  16.518   4.354  0.00  0.00     0.020 A 
HETATM   24  C   UNK N   1      32.126  15.208   3.876  0.00  0.00     0.008 A 
HETATM   25  C   UNK N   1      30.989  14.415   4.037  0.00  0.00     0.044 A 
HETATM   26  I   UNK N   1      33.837  14.421   2.937  0.00  0.00    -0.045 I 
HETATM   27  C   UNK N   1      29.863  14.918   4.698  0.00  0.00     0.061 A 
HETATM   28 Cl   UNK N   1      28.463  13.877   4.885  0.00  0.00    -0.082 Cl
ENDBRANCH  19  21
ENDBRANCH   6  19
TORSDOF 7
ENDMDL
MODEL 2
REMARK VINA RESULT:      -6.6      3.136      5.366
REMARK  7 active torsions:
REMARK  status: ('A' for Active; 'I' for Inactive)
REMARK    1  A    between atoms: C_9  and  C_8 
REMARK    2  A    between atoms: O_26  and  C_8 
REMARK    3  A    between atoms: C_17  and  C_11 
REMARK    4  A    between atoms: N_22  and  C_14 
REMARK    5  A    between atoms: N_22  and  C_16 
REMARK    6  A    between atoms: O_25  and  C_17 
REMARK    7  A    between atoms: N_23  and  O_26 
ROOT
HETATM    1  C   UNK N   1      30.360  18.190   8.778  0.00  0.00     0.021 A 
HETATM    2  C   UNK N   1      31.640  17.689   8.607  0.00  0.00     0.046 A 
HETATM    3  C   UNK N   1      29.376  18.122   7.775  0.00  0.00     0.046 A 
HETATM    4  C   UNK N   1      31.980  17.064   7.424  0.00  0.00     0.157 A 
HETATM    5  C   UNK N   1      31.050  16.954   6.393  0.00  0.00     0.182 A 
HETATM    6  C   UNK N   1      29.738  17.503   6.524  0.00  0.00     0.089 A 
HETATM    7  F   UNK N   1      33.219  16.534   7.281  0.00  0.00    -0.203 F 
HETATM    8  F   UNK N   1      31.427  16.257   5.295  0.00  0.00    -0.200 F 
ENDROOT
BRANCH   3   9
HETATM    9  C   UNK N   1      28.035  18.681   8.219  0.00  0.00     0.172 C 
HETATM   10  N   UNK N   1      27.307  19.555   7.605  0.00  0.00    -0.244 N 
ATOM     11  HN  UNK N   1      26.393  19.761   8.009  1.00  0.00     0.196 HD
BRANCH  10  12
HETATM   12  O   UNK N   1      27.633  20.203   6.514  0.00  0.00    -0.278 OA
BRANCH  12  13
HETATM   13  C   UNK N   1      26.668  20.484   5.568  0.00  0.00     0.205 C 
BRANCH  13  14
HETATM   14  C   UNK N   1      27.109  20.075   4.168  0.00  0.00     0.012 A 
HETATM   15  C   UNK N   1      26.140  19.045   3.626  0.00  0.00     0.007 A 
HETATM   16  C   UNK N   1      26.047  20.485   3.165  0.00  0.00     0.007 A 
ENDBRANCH  13  14
ENDBRANCH  12  13
ENDBRANCH  10  12
BRANCH   9  17
HETATM   17  O   UNK N   1      27.547  18.212   9.385  0.00  0.00    -0.344 OA
HETATM   18  H   UNK N   1      27.079  17.401   9.407  0.00  0.00     0.219 HD
ENDBRANCH   9  17
ENDBRANCH   3   9
BRANCH   6  19
HETATM   19  N   UNK N   1      28.786  17.351   5.468  0.00  0.00    -0.352 N 
HETATM   20  H   UNK N   1      28.669  18.125   4.873  0.00  0.00     0.166 HD
BRANCH  19  21
HETATM   21  C   UNK N   1      27.982  16.202   5.177  0.00  0.00     0.054 A 
HETATM   22  C   UNK N   1      27.086  15.671   6.123  0.00  0.00     0.032 A 
HETATM   23  C   UNK N   1      26.284  14.571   5.810  0.00  0.00     0.020 A 
HETATM   24  C   UNK N   1      26.386  13.969   4.556  0.00  0.00     0.008 A 
HETATM   25  C   UNK N   1      27.303  14.454   3.624  0.00  0.00     0.044 A 
HETATM   26  I   UNK N   1      25.139  12.346   4.064  0.00  0.00    -0.045 I 
HETATM   27  C   UNK N   1      28.105  15.560   3.929  0.00  0.00     0.061 A 
HETATM   28 Cl   UNK N   1      29.235  16.139   2.718  0.00  0.00    -0.082 Cl
ENDBRANCH  19  21
ENDBRANCH   6  19
TORSDOF 7
ENDMDL
MODEL 3
REMARK VINA RESULT:      -6.5      3.380      5.364
REMARK  7 active torsions:
REMARK  status: ('A' for Active; 'I' for Inactive)
REMARK    1  A    between atoms: C_9  and  C_8 
REMARK    2  A    between atoms: O_26  and  C_8 
REMARK    3  A    between atoms: C_17  and  C_11 
REMARK    4  A    between atoms: N_22  and  C_14 
REMARK    5  A    between atoms: N_22  and  C_16 
REMARK    6  A    between atoms: O_25  and  C_17 
REMARK    7  A    between atoms: N_23  and  O_26 
ROOT
HETATM    1  C   UNK N   1      27.011  19.500   3.678  0.00  0.00     0.021 A 
HETATM    2  C   UNK N   1      26.603  20.674   4.288  0.00  0.00     0.046 A 
HETATM    3  C   UNK N   1      27.614  18.444   4.387  0.00  0.00     0.046 A 
HETATM    4  C   UNK N   1      26.751  20.828   5.652  0.00  0.00     0.157 A 
HETATM    5  C   UNK N   1      27.331  19.817   6.415  0.00  0.00     0.182 A 
HETATM    6  C   UNK N   1      27.805  18.616   5.806  0.00  0.00     0.089 A 
HETATM    7  F   UNK N   1      26.305  21.960   6.249  0.00  0.00    -0.203 F 
HETATM    8  F   UNK N   1      27.369  20.002   7.756  0.00  0.00    -0.200 F 
ENDROOT
BRANCH   3   9
HETATM    9  C   UNK N   1      27.918  17.239   3.514  0.00  0.00     0.172 C 
HETATM   10  N   UNK N   1      27.104  16.298   3.163  0.00  0.00    -0.244 N 
ATOM     11  HN  UNK N   1      27.457  15.603   2.506  1.00  0.00     0.196 HD
BRANCH  10  12
HETATM   12  O   UNK N   1      25.869  16.153   3.574  0.00  0.00    -0.278 OA
BRANCH  12  13
HETATM   13  C   UNK N   1      25.575  15.226   4.553  0.00  0.00     0.205 C 
BRANCH  13  14
HETATM   14  C   UNK N   1      25.193  15.890   5.869  0.00  0.00     0.012 A 
HETATM   15  C   UNK N   1      24.328  14.939   6.670  0.00  0.00     0.007 A 
HETATM   16  C   UNK N   1      25.791  15.106   7.023  0.00  0.00     0.007 A 
ENDBRANCH  13  14
ENDBRANCH  12  13
ENDBRANCH  10  12
BRANCH   9  17
HETATM   17  O   UNK N   1      29.180  17.139   3.049  0.00  0.00    -0.344 OA
HETATM   18  H   UNK N   1      29.813  16.629   3.515  0.00  0.00     0.219 HD
ENDBRANCH   9  17
ENDBRANCH   3   9
BRANCH   6  19
HETATM   19  N   UNK N   1      28.366  17.574   6.610  0.00  0.00    -0.352 N 
HETATM   20  H   UNK N   1      27.750  16.859   6.887  0.00  0.00     0.166 HD
BRANCH  19  21
HETATM   21  C   UNK N   1      29.721  17.452   7.058  0.00  0.00     0.054 A 
HETATM   22  C   UNK N   1      30.770  17.174   6.163  0.00  0.00     0.032 A 
HETATM   23  C   UNK N   1      32.091  17.092   6.612  0.00  0.00     0.020 A 
HETATM   24  C   UNK N   1      32.378  17.260   7.966  0.00  0.00     0.008 A 
HETATM   25  C   UNK N   1      31.343  17.490   8.873  0.00  0.00     0.044 A 
HETATM   26  I   UNK N   1      34.372  17.193   8.635  0.00  0.00    -0.045 I 
HETATM   27  C   UNK N   1      30.019  17.578   8.429  0.00  0.00     0.061 A 
HETATM   28 Cl   UNK N   1      28.755  17.880   9.608  0.00  0.00    -0.082 Cl
ENDBRANCH  19  21
ENDBRANCH   6  19
TORSDOF 7
ENDMDL
MODEL 4
REMARK VINA RESULT:      -6.4      2.781      3.349
REMARK  7 active torsions:
REMARK  status: ('A' for Active; 'I' for Inactive)
REMARK    1  A    between atoms: C_9  and  C_8 
REMARK    2  A    between atoms: O_26  and  C_8 
REMARK    3  A    between atoms: C_17  and  C_11 
REMARK    4  A    between atoms: N_22  and  C_14 
REMARK    5  A    between atoms: N_22  and  C_16 
REMARK    6  A    between atoms: O_25  and  C_17 
REMARK    7  A    between atoms: N_23  and  O_26 
ROOT
HETATM    1  C   UNK N   1      27.812  20.179   7.010  0.00  0.00     0.021 A 
HETATM    2  C   UNK N   1      27.555  20.732   5.767  0.00  0.00     0.046 A 
HETATM    3  C   UNK N   1      28.070  18.808   7.195  0.00  0.00     0.046 A 
HETATM    4  C   UNK N   1      27.579  19.933   4.642  0.00  0.00     0.157 A 
HETATM    5  C   UNK N   1      27.837  18.568   4.753  0.00  0.00     0.182 A 
HETATM    6  C   UNK N   1      28.059  17.963   6.027  0.00  0.00     0.089 A 
HETATM    7  F   UNK N   1      27.374  20.489   3.423  0.00  0.00    -0.203 F 
HETATM    8  F   UNK N   1      27.926  17.862   3.601  0.00  0.00    -0.200 F 
ENDROOT
BRANCH   3   9
HETATM    9  C   UNK N   1      28.383  18.451   8.638  0.00  0.00     0.172 C 
HETATM   10  N   UNK N   1      29.534  18.491   9.224  0.00  0.00    -0.244 N 
ATOM     11  HN  UNK N   1      29.551  18.292  10.224  1.00  0.00     0.196 HD
BRANCH  10  12
HETATM   12  O   UNK N   1      30.682  18.762   8.654  0.00  0.00    -0.278 OA
BRANCH  12  13
HETATM   13  C   UNK N   1      31.580  17.746   8.399  0.00  0.00     0.205 C 
BRANCH  13  14
HETATM   14  C   UNK N   1      32.991  18.277   8.180  0.00  0.00     0.012 A 
HETATM   15  C   UNK N   1      33.981  17.149   8.388  0.00  0.00     0.007 A 
HETATM   16  C   UNK N   1      33.613  17.579   6.984  0.00  0.00     0.007 A 
ENDBRANCH  13  14
ENDBRANCH  12  13
ENDBRANCH  10  12
BRANCH   9  17
HETATM   17  O   UNK N   1      27.342  18.049   9.395  0.00  0.00    -0.344 OA
HETATM   18  H   UNK N   1      26.561  17.729   8.988  0.00  0.00     0.219 HD
ENDBRANCH   9  17
ENDBRANCH   3   9
BRANCH   6  19
HETATM   19  N   UNK N   1      28.357  16.567   6.119  0.00  0.00    -0.352 N 
HETATM   20  H   UNK N   1      29.308  16.330   6.205  0.00  0.00     0.166 HD
BRANCH  19  21
HETATM   21  C   UNK N   1      27.432  15.474   6.100  0.00  0.00     0.054 A 
HETATM   22  C   UNK N   1      26.305  15.448   6.943  0.00  0.00     0.032 A 
HETATM   23  C   UNK N   1      25.394  14.390   6.887  0.00  0.00     0.020 A 
HETATM   24  C   UNK N   1      25.611  13.330   6.007  0.00  0.00     0.008 A 
HETATM   25  C   UNK N   1      26.748  13.318   5.198  0.00  0.00     0.044 A 
HETATM   26  I   UNK N   1      24.210  11.764   5.882  0.00  0.00    -0.045 I 
HETATM   27  C   UNK N   1      27.661  14.378   5.246  0.00  0.00     0.061 A 
HETATM   28 Cl   UNK N   1      29.069  14.321   4.200  0.00  0.00    -0.082 Cl
ENDBRANCH  19  21
ENDBRANCH   6  19
TORSDOF 7
ENDMDL
MODEL 5
REMARK VINA RESULT:      -6.4     10.271     12.652
REMARK  7 active torsions:
REMARK  status: ('A' for Active; 'I' for Inactive)
REMARK    1  A    between atoms: C_9  and  C_8 
REMARK    2  A    between atoms: O_26  and  C_8 
REMARK    3  A    between atoms: C_17  and  C_11 
REMARK    4  A    between atoms: N_22  and  C_14 
REMARK    5  A    between atoms: N_22  and  C_16 
REMARK    6  A    between atoms: O_25  and  C_17 
REMARK    7  A    between atoms: N_23  and  O_26 
ROOT
HETATM    1  C   UNK N   1      34.966  13.057  17.341  0.00  0.00     0.021 A 
HETATM    2  C   UNK N   1      35.331  14.190  18.050  0.00  0.00     0.046 A 
HETATM    3  C   UNK N   1      35.472  12.765  16.061  0.00  0.00     0.046 A 
HETATM    4  C   UNK N   1      36.253  15.067  17.516  0.00  0.00     0.157 A 
HETATM    5  C   UNK N   1      36.800  14.832  16.256  0.00  0.00     0.182 A 
HETATM    6  C   UNK N   1      36.407  13.698  15.483  0.00  0.00     0.089 A 
HETATM    7  F   UNK N   1      36.641  16.148  18.235  0.00  0.00    -0.203 F 
HETATM    8  F   UNK N   1      37.758  15.690  15.831  0.00  0.00    -0.200 F 
ENDROOT
BRANCH   3   9
HETATM    9  C   UNK N   1      34.972  11.439  15.513  0.00  0.00     0.172 C 
HETATM   10  N   UNK N   1      35.348  10.253  15.863  0.00  0.00    -0.244 N 
ATOM     11  HN  UNK N   1      34.848   9.468  15.445  1.00  0.00     0.196 HD
BRANCH  10  12
HETATM   12  O   UNK N   1      36.310   9.965  16.704  0.00  0.00    -0.278 OA
BRANCH  12  13
HETATM   13  C   UNK N   1      36.005   9.429  17.939  0.00  0.00     0.205 C 
BRANCH  13  14
HETATM   14  C   UNK N   1      34.504   9.417  18.199  0.00  0.00     0.012 A 
HETATM   15  C   UNK N   1      34.151   8.178  18.995  0.00  0.00     0.007 A 
HETATM   16  C   UNK N   1      34.249   9.519  19.691  0.00  0.00     0.007 A 
ENDBRANCH  13  14
ENDBRANCH  12  13
ENDBRANCH  10  12
BRANCH   9  17
HETATM   17  O   UNK N   1      34.028  11.506  14.553  0.00  0.00    -0.344 OA
HETATM   18  H   UNK N   1      33.775  12.336  14.199  0.00  0.00     0.219 HD
ENDBRANCH   9  17
ENDBRANCH   3   9
BRANCH   6  19
HETATM   19  N   UNK N   1      37.005  13.454  14.207  0.00  0.00    -0.352 N 
HETATM   20  H   UNK N   1      37.893  13.030  14.217  0.00  0.00     0.166 HD
BRANCH  19  21
HETATM   21  C   UNK N   1      36.462  13.755  12.917  0.00  0.00     0.054 A 
HETATM   22  C   UNK N   1      36.036  15.054  12.581  0.00  0.00     0.032 A 
HETATM   23  C   UNK N   1      35.541  15.337  11.306  0.00  0.00     0.020 A 
HETATM   24  C   UNK N   1      35.439  14.320  10.356  0.00  0.00     0.008 A 
HETATM   25  C   UNK N   1      35.813  13.018  10.689  0.00  0.00     0.044 A 
HETATM   26  I   UNK N   1      34.746  14.758   8.418  0.00  0.00    -0.045 I 
HETATM   27  C   UNK N   1      36.315  12.729  11.963  0.00  0.00     0.061 A 
HETATM   28 Cl   UNK N   1      36.782  11.077  12.327  0.00  0.00    -0.082 Cl
ENDBRANCH  19  21
ENDBRANCH   6  19
TORSDOF 7
ENDMDL
MODEL 6
REMARK VINA RESULT:      -6.3     10.449     13.095
REMARK  7 active torsions:
REMARK  status: ('A' for Active; 'I' for Inactive)
REMARK    1  A    between atoms: C_9  and  C_8 
REMARK    2  A    between atoms: O_26  and  C_8 
REMARK    3  A    between atoms: C_17  and  C_11 
REMARK    4  A    between atoms: N_22  and  C_14 
REMARK    5  A    between atoms: N_22  and  C_16 
REMARK    6  A    between atoms: O_25  and  C_17 
REMARK    7  A    between atoms: N_23  and  O_26 
ROOT
HETATM    1  C   UNK N   1      37.306  15.010  15.548  0.00  0.00     0.021 A 
HETATM    2  C   UNK N   1      37.223  15.906  16.601  0.00  0.00     0.046 A 
HETATM    3  C   UNK N   1      36.591  13.799  15.521  0.00  0.00     0.046 A 
HETATM    4  C   UNK N   1      36.386  15.639  17.665  0.00  0.00     0.157 A 
HETATM    5  C   UNK N   1      35.642  14.461  17.697  0.00  0.00     0.182 A 
HETATM    6  C   UNK N   1      35.744  13.498  16.648  0.00  0.00     0.089 A 
HETATM    7  F   UNK N   1      36.273  16.542  18.669  0.00  0.00    -0.203 F 
HETATM    8  F   UNK N   1      34.782  14.304  18.731  0.00  0.00    -0.200 F 
ENDROOT
BRANCH   3   9
HETATM    9  C   UNK N   1      36.797  13.015  14.236  0.00  0.00     0.172 C 
HETATM   10  N   UNK N   1      36.192  13.185  13.107  0.00  0.00    -0.244 N 
ATOM     11  HN  UNK N   1      36.511  12.618  12.322  1.00  0.00     0.196 HD
BRANCH  10  12
HETATM   12  O   UNK N   1      35.206  14.016  12.877  0.00  0.00    -0.278 OA
BRANCH  12  13
HETATM   13  C   UNK N   1      35.451  15.210  12.229  0.00  0.00     0.205 C 
BRANCH  13  14
HETATM   14  C   UNK N   1      35.441  15.047  10.715  0.00  0.00     0.012 A 
HETATM   15  C   UNK N   1      34.011  15.109  10.220  0.00  0.00     0.007 A 
HETATM   16  C   UNK N   1      34.912  16.317  10.073  0.00  0.00     0.007 A 
ENDBRANCH  13  14
ENDBRANCH  12  13
ENDBRANCH  10  12
BRANCH   9  17
HETATM   17  O   UNK N   1      37.718  12.031  14.276  0.00  0.00    -0.344 OA
HETATM   18  H   UNK N   1      37.763  11.460  15.018  0.00  0.00     0.219 HD
ENDBRANCH   9  17
ENDBRANCH   3   9
BRANCH   6  19
HETATM   19  N   UNK N   1      34.947  12.311  16.681  0.00  0.00    -0.352 N 
HETATM   20  H   UNK N   1      33.972  12.442  16.669  0.00  0.00     0.166 HD
BRANCH  19  21
HETATM   21  C   UNK N   1      35.403  10.954  16.729  0.00  0.00     0.054 A 
HETATM   22  C   UNK N   1      36.290  10.511  17.727  0.00  0.00     0.032 A 
HETATM   23  C   UNK N   1      36.697   9.175  17.779  0.00  0.00     0.020 A 
HETATM   24  C   UNK N   1      36.244   8.270  16.820  0.00  0.00     0.008 A 
HETATM   25  C   UNK N   1      35.402   8.706  15.796  0.00  0.00     0.044 A 
HETATM   26  I   UNK N   1      36.813   6.247  16.931  0.00  0.00    -0.045 I 
HETATM   27  C   UNK N   1      34.986  10.040  15.741  0.00  0.00     0.061 A 
HETATM   28 Cl   UNK N   1      33.916  10.534  14.441  0.00  0.00    -0.082 Cl
ENDBRANCH  19  21
ENDBRANCH   6  19
TORSDOF 7
ENDMDL
MODEL 7
REMARK VINA RESULT:      -6.3      9.589     12.052
REMARK  7 active torsions:
REMARK  status: ('A' for Active; 'I' for Inactive)
REMARK    1  A    between atoms: C_9  and  C_8 
REMARK    2  A    between atoms: O_26  and  C_8 
REMARK    3  A    between atoms: C_17  and  C_11 
REMARK    4  A    between atoms: N_22  and  C_14 
REMARK    5  A    between atoms: N_22  and  C_16 
REMARK    6  A    between atoms: O_25  and  C_17 
REMARK    7  A    between atoms: N_23  and  O_26 
ROOT
HETATM    1  C   UNK N   1      34.832  13.072  17.035  0.00  0.00     0.021 A 
HETATM    2  C   UNK N   1      35.309  14.107  17.822  0.00  0.00     0.046 A 
HETATM    3  C   UNK N   1      35.281  12.849  15.720  0.00  0.00     0.046 A 
HETATM    4  C   UNK N   1      36.288  14.948  17.333  0.00  0.00     0.157 A 
HETATM    5  C   UNK N   1      36.783  14.776  16.042  0.00  0.00     0.182 A 
HETATM    6  C   UNK N   1      36.276  13.748  15.191  0.00  0.00     0.089 A 
HETATM    7  F   UNK N   1      36.784  15.929  18.126  0.00  0.00    -0.203 F 
HETATM    8  F   UNK N   1      37.799  15.585  15.659  0.00  0.00    -0.200 F 
ENDROOT
BRANCH   3   9
HETATM    9  C   UNK N   1      34.658  11.619  15.081  0.00  0.00     0.172 C 
HETATM   10  N   UNK N   1      34.727  10.398  15.497  0.00  0.00    -0.244 N 
ATOM     11  HN  UNK N   1      34.181   9.704  14.986  1.00  0.00     0.196 HD
BRANCH  10  12
HETATM   12  O   UNK N   1      35.433   9.967  16.513  0.00  0.00    -0.278 OA
BRANCH  12  13
HETATM   13  C   UNK N   1      36.806   9.879  16.407  0.00  0.00     0.205 C 
BRANCH  13  14
HETATM   14  C   UNK N   1      37.244   9.490  15.001  0.00  0.00     0.012 A 
HETATM   15  C   UNK N   1      38.407  10.368  14.586  0.00  0.00     0.007 A 
HETATM   16  C   UNK N   1      38.661   8.948  15.046  0.00  0.00     0.007 A 
ENDBRANCH  13  14
ENDBRANCH  12  13
ENDBRANCH  10  12
BRANCH   9  17
HETATM   17  O   UNK N   1      33.950  11.825  13.951  0.00  0.00    -0.344 OA
HETATM   18  H   UNK N   1      33.081  12.172  13.998  0.00  0.00     0.219 HD
ENDBRANCH   9  17
ENDBRANCH   3   9
BRANCH   6  19
HETATM   19  N   UNK N   1      36.821  13.564  13.881  0.00  0.00    -0.352 N 
HETATM   20  H   UNK N   1      37.663  13.058  13.827  0.00  0.00     0.166 HD
BRANCH  19  21
HETATM   21  C   UNK N   1      36.282  14.030  12.639  0.00  0.00     0.054 A 
HETATM   22  C   UNK N   1      35.886  15.368  12.463  0.00  0.00     0.032 A 
HETATM   23  C   UNK N   1      35.395  15.814  11.234  0.00  0.00     0.020 A 
HETATM   24  C   UNK N   1      35.266  14.921  10.170  0.00  0.00     0.008 A 
HETATM   25  C   UNK N   1      35.610  13.580  10.342  0.00  0.00     0.044 A 
HETATM   26  I   UNK N   1      34.579  15.603   8.301  0.00  0.00    -0.045 I 
HETATM   27  C   UNK N   1      36.108  13.128  11.570  0.00  0.00     0.061 A 
HETATM   28 Cl   UNK N   1      36.537  11.435  11.731  0.00  0.00    -0.082 Cl
ENDBRANCH  19  21
ENDBRANCH   6  19
TORSDOF 7
ENDMDL
MODEL 8
REMARK VINA RESULT:      -6.2      3.477      5.725
REMARK  7 active torsions:
REMARK  status: ('A' for Active; 'I' for Inactive)
REMARK    1  A    between atoms: C_9  and  C_8 
REMARK    2  A    between atoms: O_26  and  C_8 
REMARK    3  A    between atoms: C_17  and  C_11 
REMARK    4  A    between atoms: N_22  and  C_14 
REMARK    5  A    between atoms: N_22  and  C_16 
REMARK    6  A    between atoms: O_25  and  C_17 
REMARK    7  A    between atoms: N_23  and  O_26 
ROOT
HETATM    1  C   UNK N   1      27.452  19.432   3.959  0.00  0.00     0.021 A 
HETATM    2  C   UNK N   1      27.047  20.547   4.674  0.00  0.00     0.046 A 
HETATM    3  C   UNK N   1      28.004  18.293   4.575  0.00  0.00     0.046 A 
HETATM    4  C   UNK N   1      27.149  20.555   6.051  0.00  0.00     0.157 A 
HETATM    5  C   UNK N   1      27.678  19.456   6.724  0.00  0.00     0.182 A 
HETATM    6  C   UNK N   1      28.147  18.312   6.010  0.00  0.00     0.089 A 
HETATM    7  F   UNK N   1      26.706  21.630   6.747  0.00  0.00    -0.203 F 
HETATM    8  F   UNK N   1      27.671  19.501   8.077  0.00  0.00    -0.200 F 
ENDROOT
BRANCH   3   9
HETATM    9  C   UNK N   1      28.313  17.178   3.592  0.00  0.00     0.172 C 
HETATM   10  N   UNK N   1      27.534  16.212   3.229  0.00  0.00    -0.244 N 
ATOM     11  HN  UNK N   1      27.878  15.592   2.496  1.00  0.00     0.196 HD
BRANCH  10  12
HETATM   12  O   UNK N   1      26.345  15.956   3.715  0.00  0.00    -0.278 OA
BRANCH  12  13
HETATM   13  C   UNK N   1      25.266  15.837   2.864  0.00  0.00     0.205 C 
BRANCH  13  14
HETATM   14  C   UNK N   1      25.584  14.958   1.661  0.00  0.00     0.012 A 
HETATM   15  C   UNK N   1      25.126  13.543   1.948  0.00  0.00     0.007 A 
HETATM   16  C   UNK N   1      24.291  14.440   1.058  0.00  0.00     0.007 A 
ENDBRANCH  13  14
ENDBRANCH  12  13
ENDBRANCH  10  12
BRANCH   9  17
HETATM   17  O   UNK N   1      29.540  17.196   3.031  0.00  0.00    -0.344 OA
HETATM   18  H   UNK N   1      29.871  16.432   2.600  0.00  0.00     0.219 HD
ENDBRANCH   9  17
ENDBRANCH   3   9
BRANCH   6  19
HETATM   19  N   UNK N   1      28.656  17.179   6.719  0.00  0.00    -0.352 N 
HETATM   20  H   UNK N   1      28.015  16.454   6.897  0.00  0.00     0.166 HD
BRANCH  19  21
HETATM   21  C   UNK N   1      29.989  16.978   7.200  0.00  0.00     0.054 A 
HETATM   22  C   UNK N   1      30.582  17.862   8.119  0.00  0.00     0.032 A 
HETATM   23  C   UNK N   1      31.872  17.630   8.605  0.00  0.00     0.020 A 
HETATM   24  C   UNK N   1      32.597  16.526   8.158  0.00  0.00     0.008 A 
HETATM   25  C   UNK N   1      32.041  15.666   7.210  0.00  0.00     0.044 A 
HETATM   26  I   UNK N   1      34.518  16.146   8.930  0.00  0.00    -0.045 I 
HETATM   27  C   UNK N   1      30.747  15.889   6.725  0.00  0.00     0.061 A 
HETATM   28 Cl   UNK N   1      30.089  14.771   5.544  0.00  0.00    -0.082 Cl
ENDBRANCH  19  21
ENDBRANCH   6  19
TORSDOF 7
ENDMDL
MODEL 9
REMARK VINA RESULT:      -6.1      8.719     11.221
REMARK  7 active torsions:
REMARK  status: ('A' for Active; 'I' for Inactive)
REMARK    1  A    between atoms: C_9  and  C_8 
REMARK    2  A    between atoms: O_26  and  C_8 
REMARK    3  A    between atoms: C_17  and  C_11 
REMARK    4  A    between atoms: N_22  and  C_14 
REMARK    5  A    between atoms: N_22  and  C_16 
REMARK    6  A    between atoms: O_25  and  C_17 
REMARK    7  A    between atoms: N_23  and  O_26 
ROOT
HETATM    1  C   UNK N   1      34.873  11.589  14.535  0.00  0.00     0.021 A 
HETATM    2  C   UNK N   1      35.058  12.252  15.736  0.00  0.00     0.046 A 
HETATM    3  C   UNK N   1      35.381  12.070  13.314  0.00  0.00     0.046 A 
HETATM    4  C   UNK N   1      35.793  13.420  15.770  0.00  0.00     0.157 A 
HETATM    5  C   UNK N   1      36.332  13.947  14.598  0.00  0.00     0.182 A 
HETATM    6  C   UNK N   1      36.118  13.310  13.338  0.00  0.00     0.089 A 
HETATM    7  F   UNK N   1      36.010  14.039  16.956  0.00  0.00    -0.203 F 
HETATM    8  F   UNK N   1      37.109  15.049  14.719  0.00  0.00    -0.200 F 
ENDROOT
BRANCH   3   9
HETATM    9  C   UNK N   1      35.104  11.139  12.147  0.00  0.00     0.172 C 
HETATM   10  N   UNK N   1      35.839  10.161  11.730  0.00  0.00    -0.244 N 
ATOM     11  HN  UNK N   1      35.461   9.586  10.977  1.00  0.00     0.196 HD
BRANCH  10  12
HETATM   12  O   UNK N   1      37.024   9.839  12.185  0.00  0.00    -0.278 OA
BRANCH  12  13
HETATM   13  C   UNK N   1      37.156   8.808  13.092  0.00  0.00     0.205 C 
BRANCH  13  14
HETATM   14  C   UNK N   1      38.344   9.018  14.022  0.00  0.00     0.012 A 
HETATM   15  C   UNK N   1      38.343  10.452  14.510  0.00  0.00     0.007 A 
HETATM   16  C   UNK N   1      37.843   9.347  15.416  0.00  0.00     0.007 A 
ENDBRANCH  13  14
ENDBRANCH  12  13
ENDBRANCH  10  12
BRANCH   9  17
HETATM   17  O   UNK N   1      33.959  11.355  11.466  0.00  0.00    -0.344 OA
HETATM   18  H   UNK N   1      33.369  10.645  11.302  0.00  0.00     0.219 HD
ENDBRANCH   9  17
ENDBRANCH   3   9
BRANCH   6  19
HETATM   19  N   UNK N   1      36.707  13.846  12.151  0.00  0.00    -0.352 N 
HETATM   20  H   UNK N   1      37.651  13.618  11.993  0.00  0.00     0.166 HD
BRANCH  19  21
HETATM   21  C   UNK N   1      36.083  14.676  11.165  0.00  0.00     0.054 A 
HETATM   22  C   UNK N   1      35.525  15.923  11.499  0.00  0.00     0.032 A 
HETATM   23  C   UNK N   1      34.951  16.736  10.518  0.00  0.00     0.020 A 
HETATM   24  C   UNK N   1      34.902  16.300   9.194  0.00  0.00     0.008 A 
HETATM   25  C   UNK N   1      35.408  15.045   8.855  0.00  0.00     0.044 A 
HETATM   26  I   UNK N   1      34.088  17.547   7.706  0.00  0.00    -0.045 I 
HETATM   27  C   UNK N   1      35.990  14.229   9.832  0.00  0.00     0.061 A 
HETATM   28 Cl   UNK N   1      36.624  12.665   9.352  0.00  0.00    -0.082 Cl
ENDBRANCH  19  21
ENDBRANCH   6  19
TORSDOF 7
ENDMDL
