MODEL 1
REMARK VINA RESULT:      -8.7      0.000      0.000
REMARK  7 active torsions:
REMARK  status: ('A' for Active; 'I' for Inactive)
REMARK    1  A    between atoms: C_2  and  S_4 
REMARK    2  A    between atoms: S_4  and  C_7 
REMARK    3  A    between atoms: C_12  and  N_13 
REMARK       I    between atoms: N_13  and  C_14 
REMARK       I    between atoms: C_20  and  N_23 
REMARK    4  A    between atoms: N_23  and  C_24 
REMARK    5  A    between atoms: C_27  and  N_32 
REMARK    6  A    between atoms: C_29  and  O_30 
REMARK    7  A    between atoms: C_35  and  N_38 
ROOT
HETATM    1  N   UNK N   1      23.391  17.149   5.241  0.00  0.00    -0.190 N 
HETATM    2  C   UNK N   1      23.548  18.281   4.401  0.00  0.00     0.698 A 
HETATM    3  N   UNK N   1      22.553  18.978   3.789  0.00  0.00    -0.187 N 
ATOM      4  HN  UNK N   1      21.580  18.685   3.874  1.00  0.00     0.185 HD
HETATM    5  C   UNK N   1      22.894  20.094   3.049  0.00  0.00     0.215 A 
HETATM    6  N   UNK N   1      24.206  20.510   2.957  0.00  0.00    -0.187 N 
ATOM      7  HN  UNK N   1      24.453  21.346   2.427  1.00  0.00     0.185 HD
HETATM    8  C   UNK N   1      25.163  19.780   3.590  0.00  0.00     0.698 A 
HETATM    9  N   UNK N   1      24.781  18.703   4.266  0.00  0.00    -0.022 N 
ATOM     10  HN  UNK N   1      25.512  18.156   4.721  1.00  0.00     0.203 HD
HETATM   11  N   UNK N   1      26.548  20.164   3.676  0.00  0.00    -0.188 N 
HETATM   12  H   UNK N   1      24.232  16.827   5.638  0.00  0.00     0.184 HD
HETATM   13  H   UNK N   1      26.901  20.874   3.092  0.00  0.00     0.184 HD
ENDROOT
BRANCH  11  14
HETATM   14  C   UNK N   1      27.426  19.498   4.631  0.00  0.00     0.082 A 
HETATM   15  C   UNK N   1      28.430  18.632   4.158  0.00  0.00     0.035 A 
HETATM   16  C   UNK N   1      29.197  17.830   4.944  0.00  0.00     0.032 A 
HETATM   17  C   UNK N   1      29.002  17.844   6.301  0.00  0.00     0.033 A 
HETATM   18  C   UNK N   1      28.066  18.751   6.855  0.00  0.00     0.068 A 
HETATM   19  C   UNK N   1      27.276  19.593   6.040  0.00  0.00     0.097 A 
BRANCH  17  20
HETATM   20  N   UNK N   1      29.770  16.970   7.118  0.00  0.00    -0.381 N 
HETATM   21  C   UNK N   1      30.688  16.017   6.523  0.00  0.00     0.125 C 
HETATM   22  C   UNK N   1      32.098  16.627   6.521  0.00  0.00     0.055 C 
HETATM   23  C   UNK N   1      32.416  17.372   7.845  0.00  0.00     0.226 C 
HETATM   24  C   UNK N   1      31.253  18.209   8.410  0.00  0.00     0.055 C 
HETATM   25  C   UNK N   1      30.018  17.346   8.474  0.00  0.00     0.125 C 
BRANCH  23  26
HETATM   26  N   UNK N   1      33.197  16.626   8.853  0.00  0.00     0.096 N 
HETATM   27  C   UNK N   1      34.516  17.161   9.180  0.00  0.00     0.303 C 
HETATM   28  C   UNK N   1      34.983  16.471  10.465  0.00  0.00     0.302 C 
HETATM   29  N   UNK N   1      35.044  15.013  10.287  0.00  0.00     0.087 N 
HETATM   30  C   UNK N   1      33.773  14.478   9.802  0.00  0.00     0.302 C 
HETATM   31  C   UNK N   1      35.229  14.438  11.606  0.00  0.00     0.310 C 
HETATM   32  C   UNK N   1      33.338  15.202   8.545  0.00  0.00     0.303 C 
ENDBRANCH  23  26
ENDBRANCH  17  20
BRANCH  19  33
HETATM   33  O   UNK N   1      26.394  20.420   6.657  0.00  0.00    -0.354 OA
HETATM   34  C   UNK N   1      26.518  21.785   6.742  0.00  0.00     0.210 C 
ENDBRANCH  19  33
ENDBRANCH  11  14
BRANCH   1  35
HETATM   35  C   UNK N   1      22.267  16.401   5.614  0.00  0.00     0.070 A 
HETATM   36  C   UNK N   1      21.707  16.570   6.881  0.00  0.00     0.031 A 
HETATM   37  C   UNK N   1      20.584  15.839   7.251  0.00  0.00     0.002 A 
HETATM   38  C   UNK N   1      19.999  14.952   6.349  0.00  0.00     0.002 A 
HETATM   39  C   UNK N   1      20.554  14.767   5.083  0.00  0.00     0.026 A 
HETATM   40  C   UNK N   1      21.701  15.467   4.690  0.00  0.00     0.086 A 
BRANCH  40  41
HETATM   41  S   UNK N   1      22.432  15.067   3.035  0.00  0.00     0.181 S 
HETATM   42  O   UNK N   1      21.244  14.166   2.683  0.00  0.00    -0.222 OA
HETATM   43  O   UNK N   1      21.723  16.295   2.441  0.00  0.00    -0.222 OA
BRANCH  41  44
HETATM   44  C   UNK N   1      23.149  14.658   1.367  0.00  0.00     0.105 C 
HETATM   45  C   UNK N   1      24.667  14.515   1.294  0.00  0.00     0.026 C 
HETATM   46  C   UNK N   1      22.472  13.489   0.685  0.00  0.00     0.026 C 
ENDBRANCH  41  44
ENDBRANCH  40  41
ENDBRANCH   1  35
TORSDOF 7
ENDMDL
MODEL 2
REMARK VINA RESULT:      -8.5      3.260      5.596
REMARK  7 active torsions:
REMARK  status: ('A' for Active; 'I' for Inactive)
REMARK    1  A    between atoms: C_2  and  S_4 
REMARK    2  A    between atoms: S_4  and  C_7 
REMARK    3  A    between atoms: C_12  and  N_13 
REMARK       I    between atoms: N_13  and  C_14 
REMARK       I    between atoms: C_20  and  N_23 
REMARK    4  A    between atoms: N_23  and  C_24 
REMARK    5  A    between atoms: C_27  and  N_32 
REMARK    6  A    between atoms: C_29  and  O_30 
REMARK    7  A    between atoms: C_35  and  N_38 
ROOT
HETATM    1  N   UNK N   1      23.041  13.258   6.823  0.00  0.00    -0.190 N 
HETATM    2  C   UNK N   1      22.345  13.061   5.603  0.00  0.00     0.698 A 
HETATM    3  N   UNK N   1      21.148  12.434   5.447  0.00  0.00    -0.187 N 
ATOM      4  HN  UNK N   1      20.672  12.009   6.243  1.00  0.00     0.185 HD
HETATM    5  C   UNK N   1      20.593  12.386   4.183  0.00  0.00     0.215 A 
HETATM    6  N   UNK N   1      21.221  12.985   3.110  0.00  0.00    -0.187 N 
ATOM      7  HN  UNK N   1      20.799  12.966   2.181  1.00  0.00     0.185 HD
HETATM    8  C   UNK N   1      22.414  13.602   3.320  0.00  0.00     0.698 A 
HETATM    9  N   UNK N   1      22.913  13.595   4.550  0.00  0.00    -0.022 N 
ATOM     10  HN  UNK N   1      23.817  14.047   4.688  1.00  0.00     0.203 HD
HETATM   11  N   UNK N   1      23.116  14.366   2.321  0.00  0.00    -0.188 N 
HETATM   12  H   UNK N   1      23.862  13.792   6.732  0.00  0.00     0.184 HD
HETATM   13  H   UNK N   1      22.859  14.294   1.373  0.00  0.00     0.184 HD
ENDROOT
BRANCH  11  14
HETATM   14  C   UNK N   1      24.209  15.245   2.718  0.00  0.00     0.082 A 
HETATM   15  C   UNK N   1      25.511  14.982   2.250  0.00  0.00     0.035 A 
HETATM   16  C   UNK N   1      26.633  15.622   2.677  0.00  0.00     0.032 A 
HETATM   17  C   UNK N   1      26.520  16.599   3.632  0.00  0.00     0.033 A 
HETATM   18  C   UNK N   1      25.233  16.973   4.088  0.00  0.00     0.068 A 
HETATM   19  C   UNK N   1      24.065  16.317   3.638  0.00  0.00     0.097 A 
BRANCH  17  20
HETATM   20  N   UNK N   1      27.698  17.233   4.112  0.00  0.00    -0.381 N 
HETATM   21  C   UNK N   1      27.636  18.165   5.223  0.00  0.00     0.125 C 
HETATM   22  C   UNK N   1      27.980  17.411   6.517  0.00  0.00     0.055 C 
HETATM   23  C   UNK N   1      29.163  16.426   6.324  0.00  0.00     0.226 C 
HETATM   24  C   UNK N   1      29.139  15.639   5.000  0.00  0.00     0.055 C 
HETATM   25  C   UNK N   1      28.959  16.611   3.860  0.00  0.00     0.125 C 
BRANCH  23  26
HETATM   26  N   UNK N   1      30.497  16.901   6.745  0.00  0.00     0.096 N 
HETATM   27  C   UNK N   1      31.643  16.137   6.260  0.00  0.00     0.303 C 
HETATM   28  C   UNK N   1      32.894  16.986   6.503  0.00  0.00     0.302 C 
HETATM   29  N   UNK N   1      33.047  17.303   7.930  0.00  0.00     0.087 N 
HETATM   30  C   UNK N   1      31.841  17.925   8.474  0.00  0.00     0.302 C 
HETATM   31  C   UNK N   1      34.082  18.314   8.026  0.00  0.00     0.310 C 
HETATM   32  C   UNK N   1      30.627  17.064   8.193  0.00  0.00     0.303 C 
ENDBRANCH  23  26
ENDBRANCH  17  20
BRANCH  19  33
HETATM   33  O   UNK N   1      22.875  16.734   4.140  0.00  0.00    -0.354 OA
HETATM   34  C   UNK N   1      22.016  17.607   3.518  0.00  0.00     0.210 C 
ENDBRANCH  19  33
ENDBRANCH  11  14
BRANCH   1  35
HETATM   35  C   UNK N   1      22.782  12.837   8.134  0.00  0.00     0.070 A 
HETATM   36  C   UNK N   1      23.378  11.673   8.621  0.00  0.00     0.031 A 
HETATM   37  C   UNK N   1      23.134  11.257   9.926  0.00  0.00     0.002 A 
HETATM   38  C   UNK N   1      22.313  12.014  10.759  0.00  0.00     0.002 A 
HETATM   39  C   UNK N   1      21.703  13.175  10.281  0.00  0.00     0.026 A 
HETATM   40  C   UNK N   1      21.907  13.605   8.964  0.00  0.00     0.086 A 
BRANCH  40  41
HETATM   41  S   UNK N   1      20.961  15.091   8.386  0.00  0.00     0.181 S 
HETATM   42  O   UNK N   1      20.032  14.220   7.535  0.00  0.00    -0.222 OA
HETATM   43  O   UNK N   1      20.032  14.954   9.604  0.00  0.00    -0.222 OA
BRANCH  41  44
HETATM   44  C   UNK N   1      19.998  16.571   7.801  0.00  0.00     0.105 C 
HETATM   45  C   UNK N   1      19.168  17.303   8.853  0.00  0.00     0.026 C 
HETATM   46  C   UNK N   1      20.822  17.553   6.997  0.00  0.00     0.026 C 
ENDBRANCH  41  44
ENDBRANCH  40  41
ENDBRANCH   1  35
TORSDOF 7
ENDMDL
MODEL 3
REMARK VINA RESULT:      -8.2      1.566      1.667
REMARK  7 active torsions:
REMARK  status: ('A' for Active; 'I' for Inactive)
REMARK    1  A    between atoms: C_2  and  S_4 
REMARK    2  A    between atoms: S_4  and  C_7 
REMARK    3  A    between atoms: C_12  and  N_13 
REMARK       I    between atoms: N_13  and  C_14 
REMARK       I    between atoms: C_20  and  N_23 
REMARK    4  A    between atoms: N_23  and  C_24 
REMARK    5  A    between atoms: C_27  and  N_32 
REMARK    6  A    between atoms: C_29  and  O_30 
REMARK    7  A    between atoms: C_35  and  N_38 
ROOT
HETATM    1  N   UNK N   1      23.631  17.373   5.592  0.00  0.00    -0.190 N 
HETATM    2  C   UNK N   1      23.821  18.403   4.635  0.00  0.00     0.698 A 
HETATM    3  N   UNK N   1      22.845  19.089   3.981  0.00  0.00    -0.187 N 
ATOM      4  HN  UNK N   1      21.861  18.861   4.121  1.00  0.00     0.185 HD
HETATM    5  C   UNK N   1      23.221  20.103   3.121  0.00  0.00     0.215 A 
HETATM    6  N   UNK N   1      24.550  20.433   2.951  0.00  0.00    -0.187 N 
ATOM      7  HN  UNK N   1      24.824  21.195   2.331  1.00  0.00     0.185 HD
HETATM    8  C   UNK N   1      25.486  19.718   3.631  0.00  0.00     0.698 A 
HETATM    9  N   UNK N   1      25.070  18.738   4.424  0.00  0.00    -0.022 N 
ATOM     10  HN  UNK N   1      25.784  18.200   4.914  1.00  0.00     0.203 HD
HETATM   11  N   UNK N   1      26.892  20.030   3.640  0.00  0.00    -0.188 N 
HETATM   12  H   UNK N   1      24.466  17.046   5.997  0.00  0.00     0.184 HD
HETATM   13  H   UNK N   1      27.263  20.656   2.977  0.00  0.00     0.184 HD
ENDROOT
BRANCH  11  14
HETATM   14  C   UNK N   1      27.763  19.417   4.635  0.00  0.00     0.082 A 
HETATM   15  C   UNK N   1      28.470  18.245   4.305  0.00  0.00     0.035 A 
HETATM   16  C   UNK N   1      29.178  17.490   5.188  0.00  0.00     0.032 A 
HETATM   17  C   UNK N   1      29.225  17.873   6.503  0.00  0.00     0.033 A 
HETATM   18  C   UNK N   1      28.605  19.085   6.892  0.00  0.00     0.068 A 
HETATM   19  C   UNK N   1      27.879  19.876   5.974  0.00  0.00     0.097 A 
BRANCH  17  20
HETATM   20  N   UNK N   1      29.924  17.058   7.435  0.00  0.00    -0.381 N 
HETATM   21  C   UNK N   1      30.610  15.856   6.998  0.00  0.00     0.125 C 
HETATM   22  C   UNK N   1      32.092  16.192   6.768  0.00  0.00     0.055 C 
HETATM   23  C   UNK N   1      32.661  17.117   7.876  0.00  0.00     0.226 C 
HETATM   24  C   UNK N   1      31.713  18.245   8.325  0.00  0.00     0.055 C 
HETATM   25  C   UNK N   1      30.369  17.647   8.658  0.00  0.00     0.125 C 
BRANCH  23  26
HETATM   26  N   UNK N   1      33.413  16.462   8.966  0.00  0.00     0.096 N 
HETATM   27  C   UNK N   1      34.674  17.088   9.354  0.00  0.00     0.303 C 
HETATM   28  C   UNK N   1      35.092  16.480  10.696  0.00  0.00     0.302 C 
HETATM   29  N   UNK N   1      35.248  15.022  10.588  0.00  0.00     0.087 N 
HETATM   30  C   UNK N   1      34.045  14.393  10.045  0.00  0.00     0.302 C 
HETATM   31  C   UNK N   1      35.375  14.513  11.940  0.00  0.00     0.310 C 
HETATM   32  C   UNK N   1      33.656  15.037   8.731  0.00  0.00     0.303 C 
ENDBRANCH  23  26
ENDBRANCH  17  20
BRANCH  19  33
HETATM   33  O   UNK N   1      27.306  21.015   6.439  0.00  0.00    -0.354 OA
HETATM   34  C   UNK N   1      26.248  21.069   7.314  0.00  0.00     0.210 C 
ENDBRANCH  19  33
ENDBRANCH  11  14
BRANCH   1  35
HETATM   35  C   UNK N   1      22.481  16.732   6.069  0.00  0.00     0.070 A 
HETATM   36  C   UNK N   1      21.423  17.486   6.578  0.00  0.00     0.031 A 
HETATM   37  C   UNK N   1      20.274  16.854   7.041  0.00  0.00     0.002 A 
HETATM   38  C   UNK N   1      20.165  15.466   6.978  0.00  0.00     0.002 A 
HETATM   39  C   UNK N   1      21.220  14.700   6.481  0.00  0.00     0.026 A 
HETATM   40  C   UNK N   1      22.401  15.304   6.032  0.00  0.00     0.086 A 
BRANCH  40  41
HETATM   41  S   UNK N   1      23.788  14.196   5.501  0.00  0.00     0.181 S 
HETATM   42  O   UNK N   1      22.811  13.066   5.162  0.00  0.00    -0.222 OA
HETATM   43  O   UNK N   1      23.679  14.767   4.077  0.00  0.00    -0.222 OA
BRANCH  41  44
HETATM   44  C   UNK N   1      25.169  13.073   4.959  0.00  0.00     0.105 C 
HETATM   45  C   UNK N   1      26.589  13.594   5.158  0.00  0.00     0.026 C 
HETATM   46  C   UNK N   1      25.043  11.659   5.483  0.00  0.00     0.026 C 
ENDBRANCH  41  44
ENDBRANCH  40  41
ENDBRANCH   1  35
TORSDOF 7
ENDMDL
MODEL 4
REMARK VINA RESULT:      -8.1      1.483      2.113
REMARK  7 active torsions:
REMARK  status: ('A' for Active; 'I' for Inactive)
REMARK    1  A    between atoms: C_2  and  S_4 
REMARK    2  A    between atoms: S_4  and  C_7 
REMARK    3  A    between atoms: C_12  and  N_13 
REMARK       I    between atoms: N_13  and  C_14 
REMARK       I    between atoms: C_20  and  N_23 
REMARK    4  A    between atoms: N_23  and  C_24 
REMARK    5  A    between atoms: C_27  and  N_32 
REMARK    6  A    between atoms: C_29  and  O_30 
REMARK    7  A    between atoms: C_35  and  N_38 
ROOT
HETATM    1  N   UNK N   1      23.796  17.191   5.120  0.00  0.00    -0.190 N 
HETATM    2  C   UNK N   1      24.268  18.302   4.375  0.00  0.00     0.698 A 
HETATM    3  N   UNK N   1      23.508  19.284   3.819  0.00  0.00    -0.187 N 
ATOM      4  HN  UNK N   1      22.490  19.253   3.877  1.00  0.00     0.185 HD
HETATM    5  C   UNK N   1      24.149  20.323   3.173  0.00  0.00     0.215 A 
HETATM    6  N   UNK N   1      25.527  20.381   3.119  0.00  0.00    -0.187 N 
ATOM      7  HN  UNK N   1      25.999  21.160   2.659  1.00  0.00     0.185 HD
HETATM    8  C   UNK N   1      26.241  19.376   3.693  0.00  0.00     0.698 A 
HETATM    9  N   UNK N   1      25.571  18.390   4.278  0.00  0.00    -0.022 N 
ATOM     10  HN  UNK N   1      26.120  17.634   4.689  1.00  0.00     0.203 HD
HETATM   11  N   UNK N   1      27.675  19.370   3.814  0.00  0.00    -0.188 N 
HETATM   12  H   UNK N   1      24.513  16.627   5.492  0.00  0.00     0.184 HD
HETATM   13  H   UNK N   1      28.218  20.004   3.291  0.00  0.00     0.184 HD
ENDROOT
BRANCH  11  14
HETATM   14  C   UNK N   1      28.322  18.423   4.714  0.00  0.00     0.082 A 
HETATM   15  C   UNK N   1      28.494  18.766   6.069  0.00  0.00     0.035 A 
HETATM   16  C   UNK N   1      29.224  18.048   6.965  0.00  0.00     0.032 A 
HETATM   17  C   UNK N   1      29.850  16.902   6.548  0.00  0.00     0.033 A 
HETATM   18  C   UNK N   1      29.654  16.452   5.219  0.00  0.00     0.068 A 
HETATM   19  C   UNK N   1      28.887  17.191   4.290  0.00  0.00     0.097 A 
BRANCH  17  20
HETATM   20  N   UNK N   1      30.651  16.178   7.472  0.00  0.00    -0.381 N 
HETATM   21  C   UNK N   1      31.464  15.061   7.030  0.00  0.00     0.125 C 
HETATM   22  C   UNK N   1      32.894  15.564   6.777  0.00  0.00     0.055 C 
HETATM   23  C   UNK N   1      33.369  16.555   7.873  0.00  0.00     0.226 C 
HETATM   24  C   UNK N   1      32.304  17.569   8.331  0.00  0.00     0.055 C 
HETATM   25  C   UNK N   1      31.042  16.822   8.686  0.00  0.00     0.125 C 
BRANCH  23  26
HETATM   26  N   UNK N   1      34.207  15.997   8.954  0.00  0.00     0.096 N 
HETATM   27  C   UNK N   1      34.939  16.959   9.772  0.00  0.00     0.303 C 
HETATM   28  C   UNK N   1      35.435  16.216  11.016  0.00  0.00     0.302 C 
HETATM   29  N   UNK N   1      36.299  15.086  10.646  0.00  0.00     0.087 N 
HETATM   30  C   UNK N   1      35.637  14.194   9.695  0.00  0.00     0.302 C 
HETATM   31  C   UNK N   1      36.494  14.297  11.847  0.00  0.00     0.310 C 
HETATM   32  C   UNK N   1      35.145  14.971   8.493  0.00  0.00     0.303 C 
ENDBRANCH  23  26
ENDBRANCH  17  20
BRANCH  19  33
HETATM   33  O   UNK N   1      28.765  16.691   3.035  0.00  0.00    -0.354 OA
HETATM   34  C   UNK N   1      29.519  15.667   2.515  0.00  0.00     0.210 C 
ENDBRANCH  19  33
ENDBRANCH  11  14
BRANCH   1  35
HETATM   35  C   UNK N   1      22.506  16.742   5.428  0.00  0.00     0.070 A 
HETATM   36  C   UNK N   1      21.773  17.367   6.437  0.00  0.00     0.031 A 
HETATM   37  C   UNK N   1      20.487  16.933   6.738  0.00  0.00     0.002 A 
HETATM   38  C   UNK N   1      19.915  15.886   6.016  0.00  0.00     0.002 A 
HETATM   39  C   UNK N   1      20.641  15.246   5.010  0.00  0.00     0.026 A 
HETATM   40  C   UNK N   1      21.949  15.642   4.703  0.00  0.00     0.086 A 
BRANCH  40  41
HETATM   41  S   UNK N   1      22.872  14.655   3.435  0.00  0.00     0.181 S 
HETATM   42  O   UNK N   1      21.566  14.103   2.853  0.00  0.00    -0.222 OA
HETATM   43  O   UNK N   1      22.827  15.863   2.483  0.00  0.00    -0.222 OA
BRANCH  41  44
HETATM   44  C   UNK N   1      23.782  13.662   2.152  0.00  0.00     0.105 C 
HETATM   45  C   UNK N   1      23.026  13.362   0.860  0.00  0.00     0.026 C 
HETATM   46  C   UNK N   1      25.167  14.189   1.846  0.00  0.00     0.026 C 
ENDBRANCH  41  44
ENDBRANCH  40  41
ENDBRANCH   1  35
TORSDOF 7
ENDMDL
MODEL 5
REMARK VINA RESULT:      -7.9      2.918      3.362
REMARK  7 active torsions:
REMARK  status: ('A' for Active; 'I' for Inactive)
REMARK    1  A    between atoms: C_2  and  S_4 
REMARK    2  A    between atoms: S_4  and  C_7 
REMARK    3  A    between atoms: C_12  and  N_13 
REMARK       I    between atoms: N_13  and  C_14 
REMARK       I    between atoms: C_20  and  N_23 
REMARK    4  A    between atoms: N_23  and  C_24 
REMARK    5  A    between atoms: C_27  and  N_32 
REMARK    6  A    between atoms: C_29  and  O_30 
REMARK    7  A    between atoms: C_35  and  N_38 
ROOT
HETATM    1  N   UNK N   1      25.676  14.493   6.938  0.00  0.00    -0.190 N 
HETATM    2  C   UNK N   1      25.178  15.650   6.284  0.00  0.00     0.698 A 
HETATM    3  N   UNK N   1      23.873  16.013   6.167  0.00  0.00    -0.187 N 
ATOM      4  HN  UNK N   1      23.129  15.417   6.530  1.00  0.00     0.185 HD
HETATM    5  C   UNK N   1      23.578  17.209   5.542  0.00  0.00     0.215 A 
HETATM    6  N   UNK N   1      24.584  18.031   5.075  0.00  0.00    -0.187 N 
ATOM      7  HN  UNK N   1      24.366  18.923   4.632  1.00  0.00     0.185 HD
HETATM    8  C   UNK N   1      25.873  17.623   5.220  0.00  0.00     0.698 A 
HETATM    9  N   UNK N   1      26.096  16.453   5.806  0.00  0.00    -0.022 N 
ATOM     10  HN  UNK N   1      27.067  16.153   5.892  1.00  0.00     0.203 HD
HETATM   11  N   UNK N   1      27.019  18.431   4.889  0.00  0.00    -0.188 N 
HETATM   12  H   UNK N   1      26.659  14.444   6.968  0.00  0.00     0.184 HD
HETATM   13  H   UNK N   1      26.910  19.241   4.340  0.00  0.00     0.184 HD
ENDROOT
BRANCH  11  14
HETATM   14  C   UNK N   1      28.340  18.045   5.370  0.00  0.00     0.082 A 
HETATM   15  C   UNK N   1      29.306  17.599   4.448  0.00  0.00     0.035 A 
HETATM   16  C   UNK N   1      30.508  17.058   4.784  0.00  0.00     0.032 A 
HETATM   17  C   UNK N   1      30.831  16.923   6.109  0.00  0.00     0.033 A 
HETATM   18  C   UNK N   1      29.942  17.426   7.091  0.00  0.00     0.068 A 
HETATM   19  C   UNK N   1      28.698  17.998   6.743  0.00  0.00     0.097 A 
BRANCH  17  20
HETATM   20  N   UNK N   1      32.066  16.314   6.461  0.00  0.00    -0.381 N 
HETATM   21  C   UNK N   1      33.304  17.070   6.417  0.00  0.00     0.125 C 
HETATM   22  C   UNK N   1      33.607  17.597   7.828  0.00  0.00     0.055 C 
HETATM   23  C   UNK N   1      33.319  16.537   8.924  0.00  0.00     0.226 C 
HETATM   24  C   UNK N   1      32.033  15.717   8.707  0.00  0.00     0.055 C 
HETATM   25  C   UNK N   1      32.042  15.161   7.305  0.00  0.00     0.125 C 
BRANCH  23  26
HETATM   26  N   UNK N   1      34.477  15.766   9.421  0.00  0.00     0.096 N 
HETATM   27  C   UNK N   1      35.339  16.437  10.388  0.00  0.00     0.303 C 
HETATM   28  C   UNK N   1      36.232  15.368  11.024  0.00  0.00     0.302 C 
HETATM   29  N   UNK N   1      37.035  14.678  10.004  0.00  0.00     0.087 N 
HETATM   30  C   UNK N   1      36.196  14.136   8.937  0.00  0.00     0.302 C 
HETATM   31  C   UNK N   1      37.633  13.525  10.650  0.00  0.00     0.310 C 
HETATM   32  C   UNK N   1      35.315  15.221   8.352  0.00  0.00     0.303 C 
ENDBRANCH  23  26
ENDBRANCH  17  20
BRANCH  19  33
HETATM   33  O   UNK N   1      27.904  18.440   7.751  0.00  0.00    -0.354 OA
HETATM   34  C   UNK N   1      28.178  18.306   9.090  0.00  0.00     0.210 C 
ENDBRANCH  19  33
ENDBRANCH  11  14
BRANCH   1  35
HETATM   35  C   UNK N   1      25.037  13.407   7.547  0.00  0.00     0.070 A 
HETATM   36  C   UNK N   1      24.910  13.363   8.936  0.00  0.00     0.031 A 
HETATM   37  C   UNK N   1      24.264  12.292   9.545  0.00  0.00     0.002 A 
HETATM   38  C   UNK N   1      23.721  11.270   8.769  0.00  0.00     0.002 A 
HETATM   39  C   UNK N   1      23.849  11.297   7.380  0.00  0.00     0.026 A 
HETATM   40  C   UNK N   1      24.518  12.347   6.739  0.00  0.00     0.086 A 
BRANCH  40  41
HETATM   41  S   UNK N   1      24.739  12.234   4.902  0.00  0.00     0.181 S 
HETATM   42  O   UNK N   1      23.787  11.037   4.820  0.00  0.00    -0.222 OA
HETATM   43  O   UNK N   1      23.574  13.220   4.716  0.00  0.00    -0.222 OA
BRANCH  41  44
HETATM   44  C   UNK N   1      24.946  12.109   3.058  0.00  0.00     0.105 C 
HETATM   45  C   UNK N   1      26.031  12.982   2.433  0.00  0.00     0.026 C 
HETATM   46  C   UNK N   1      25.053  10.687   2.553  0.00  0.00     0.026 C 
ENDBRANCH  41  44
ENDBRANCH  40  41
ENDBRANCH   1  35
TORSDOF 7
ENDMDL
MODEL 6
REMARK VINA RESULT:      -7.7      3.158      3.969
REMARK  7 active torsions:
REMARK  status: ('A' for Active; 'I' for Inactive)
REMARK    1  A    between atoms: C_2  and  S_4 
REMARK    2  A    between atoms: S_4  and  C_7 
REMARK    3  A    between atoms: C_12  and  N_13 
REMARK       I    between atoms: N_13  and  C_14 
REMARK       I    between atoms: C_20  and  N_23 
REMARK    4  A    between atoms: N_23  and  C_24 
REMARK    5  A    between atoms: C_27  and  N_32 
REMARK    6  A    between atoms: C_29  and  O_30 
REMARK    7  A    between atoms: C_35  and  N_38 
ROOT
HETATM    1  N   UNK N   1      25.283  14.236   7.311  0.00  0.00    -0.190 N 
HETATM    2  C   UNK N   1      24.770  15.338   6.578  0.00  0.00     0.698 A 
HETATM    3  N   UNK N   1      23.469  15.730   6.513  0.00  0.00    -0.187 N 
ATOM      4  HN  UNK N   1      22.738  15.198   6.985  1.00  0.00     0.185 HD
HETATM    5  C   UNK N   1      23.163  16.867   5.791  0.00  0.00     0.215 A 
HETATM    6  N   UNK N   1      24.154  17.605   5.177  0.00  0.00    -0.187 N 
ATOM      7  HN  UNK N   1      23.928  18.456   4.661  1.00  0.00     0.185 HD
HETATM    8  C   UNK N   1      25.439  17.172   5.275  0.00  0.00     0.698 A 
HETATM    9  N   UNK N   1      25.672  16.059   5.960  0.00  0.00    -0.022 N 
ATOM     10  HN  UNK N   1      26.638  15.737   6.010  1.00  0.00     0.203 HD
HETATM   11  N   UNK N   1      26.579  17.904   4.787  0.00  0.00    -0.188 N 
HETATM   12  H   UNK N   1      26.263  14.158   7.279  0.00  0.00     0.184 HD
HETATM   13  H   UNK N   1      26.452  18.659   4.167  0.00  0.00     0.184 HD
ENDROOT
BRANCH  11  14
HETATM   14  C   UNK N   1      27.920  17.525   5.213  0.00  0.00     0.082 A 
HETATM   15  C   UNK N   1      28.334  17.817   6.527  0.00  0.00     0.035 A 
HETATM   16  C   UNK N   1      29.605  17.667   6.992  0.00  0.00     0.032 A 
HETATM   17  C   UNK N   1      30.573  17.199   6.143  0.00  0.00     0.033 A 
HETATM   18  C   UNK N   1      30.212  16.808   4.831  0.00  0.00     0.068 A 
HETATM   19  C   UNK N   1      28.891  16.952   4.350  0.00  0.00     0.097 A 
BRANCH  17  20
HETATM   20  N   UNK N   1      31.910  17.089   6.615  0.00  0.00    -0.381 N 
HETATM   21  C   UNK N   1      32.263  17.539   7.948  0.00  0.00     0.125 C 
HETATM   22  C   UNK N   1      32.239  16.330   8.896  0.00  0.00     0.055 C 
HETATM   23  C   UNK N   1      32.868  15.066   8.251  0.00  0.00     0.226 C 
HETATM   24  C   UNK N   1      32.501  14.846   6.772  0.00  0.00     0.055 C 
HETATM   25  C   UNK N   1      32.769  16.121   6.010  0.00  0.00     0.125 C 
BRANCH  23  26
HETATM   26  N   UNK N   1      34.274  14.776   8.597  0.00  0.00     0.096 N 
HETATM   27  C   UNK N   1      34.733  13.410   8.362  0.00  0.00     0.303 C 
HETATM   28  C   UNK N   1      36.263  13.422   8.441  0.00  0.00     0.302 C 
HETATM   29  N   UNK N   1      36.719  13.904   9.752  0.00  0.00     0.087 N 
HETATM   30  C   UNK N   1      36.137  15.206  10.077  0.00  0.00     0.302 C 
HETATM   31  C   UNK N   1      38.146  14.135   9.640  0.00  0.00     0.310 C 
HETATM   32  C   UNK N   1      34.628  15.154   9.966  0.00  0.00     0.303 C 
ENDBRANCH  23  26
ENDBRANCH  17  20
BRANCH  19  33
HETATM   33  O   UNK N   1      28.639  16.563   3.074  0.00  0.00    -0.354 OA
HETATM   34  C   UNK N   1      29.153  15.440   2.473  0.00  0.00     0.210 C 
ENDBRANCH  19  33
ENDBRANCH  11  14
BRANCH   1  35
HETATM   35  C   UNK N   1      24.660  13.238   8.069  0.00  0.00     0.070 A 
HETATM   36  C   UNK N   1      24.673  13.311   9.463  0.00  0.00     0.031 A 
HETATM   37  C   UNK N   1      24.045  12.329  10.220  0.00  0.00     0.002 A 
HETATM   38  C   UNK N   1      23.380  11.278   9.590  0.00  0.00     0.002 A 
HETATM   39  C   UNK N   1      23.367  11.188   8.198  0.00  0.00     0.026 A 
HETATM   40  C   UNK N   1      24.014  12.146   7.408  0.00  0.00     0.086 A 
BRANCH  40  41
HETATM   41  S   UNK N   1      24.042  11.875   5.575  0.00  0.00     0.181 S 
HETATM   42  O   UNK N   1      23.064  10.702   5.692  0.00  0.00    -0.222 OA
HETATM   43  O   UNK N   1      22.882  12.874   5.424  0.00  0.00    -0.222 OA
BRANCH  41  44
HETATM   44  C   UNK N   1      24.054  11.593   3.736  0.00  0.00     0.105 C 
HETATM   45  C   UNK N   1      23.178  10.456   3.215  0.00  0.00     0.026 C 
HETATM   46  C   UNK N   1      23.828  12.851   2.927  0.00  0.00     0.026 C 
ENDBRANCH  41  44
ENDBRANCH  40  41
ENDBRANCH   1  35
TORSDOF 7
ENDMDL
MODEL 7
REMARK VINA RESULT:      -7.5      4.649      8.835
REMARK  7 active torsions:
REMARK  status: ('A' for Active; 'I' for Inactive)
REMARK    1  A    between atoms: C_2  and  S_4 
REMARK    2  A    between atoms: S_4  and  C_7 
REMARK    3  A    between atoms: C_12  and  N_13 
REMARK       I    between atoms: N_13  and  C_14 
REMARK       I    between atoms: C_20  and  N_23 
REMARK    4  A    between atoms: N_23  and  C_24 
REMARK    5  A    between atoms: C_27  and  N_32 
REMARK    6  A    between atoms: C_29  and  O_30 
REMARK    7  A    between atoms: C_35  and  N_38 
ROOT
HETATM    1  N   UNK N   1      27.467  17.765   6.826  0.00  0.00    -0.190 N 
HETATM    2  C   UNK N   1      26.824  18.635   5.909  0.00  0.00     0.698 A 
HETATM    3  N   UNK N   1      27.273  19.851   5.497  0.00  0.00    -0.187 N 
ATOM      4  HN  UNK N   1      28.132  20.248   5.878  1.00  0.00     0.185 HD
HETATM    5  C   UNK N   1      26.537  20.536   4.550  0.00  0.00     0.215 A 
HETATM    6  N   UNK N   1      25.390  19.987   4.011  0.00  0.00    -0.187 N 
ATOM      7  HN  UNK N   1      24.859  20.485   3.297  1.00  0.00     0.185 HD
HETATM    8  C   UNK N   1      24.986  18.767   4.454  0.00  0.00     0.698 A 
HETATM    9  N   UNK N   1      25.719  18.166   5.384  0.00  0.00    -0.022 N 
ATOM     10  HN  UNK N   1      25.393  17.259   5.719  1.00  0.00     0.203 HD
HETATM   11  N   UNK N   1      23.882  18.029   3.897  0.00  0.00    -0.188 N 
HETATM   12  H   UNK N   1      27.011  16.901   6.944  0.00  0.00     0.184 HD
HETATM   13  H   UNK N   1      23.237  18.478   3.304  0.00  0.00     0.184 HD
ENDROOT
BRANCH  11  14
HETATM   14  C   UNK N   1      23.723  16.615   4.213  0.00  0.00     0.082 A 
HETATM   15  C   UNK N   1      24.327  15.651   3.383  0.00  0.00     0.035 A 
HETATM   16  C   UNK N   1      24.118  14.309   3.472  0.00  0.00     0.032 A 
HETATM   17  C   UNK N   1      23.262  13.831   4.430  0.00  0.00     0.033 A 
HETATM   18  C   UNK N   1      22.683  14.736   5.352  0.00  0.00     0.068 A 
HETATM   19  C   UNK N   1      22.907  16.129   5.268  0.00  0.00     0.097 A 
BRANCH  17  20
HETATM   20  N   UNK N   1      23.006  12.434   4.492  0.00  0.00    -0.381 N 
HETATM   21  C   UNK N   1      23.516  11.543   3.467  0.00  0.00     0.125 C 
HETATM   22  C   UNK N   1      24.836  10.930   3.961  0.00  0.00     0.055 C 
HETATM   23  C   UNK N   1      24.770  10.524   5.457  0.00  0.00     0.226 C 
HETATM   24  C   UNK N   1      24.042  11.531   6.367  0.00  0.00     0.055 C 
HETATM   25  C   UNK N   1      22.699  11.853   5.760  0.00  0.00     0.125 C 
BRANCH  23  26
HETATM   26  N   UNK N   1      24.491   9.103   5.747  0.00  0.00     0.096 N 
HETATM   27  C   UNK N   1      24.112   8.781   7.119  0.00  0.00     0.303 C 
HETATM   28  C   UNK N   1      23.531   7.364   7.113  0.00  0.00     0.302 C 
HETATM   29  N   UNK N   1      24.513   6.396   6.605  0.00  0.00     0.087 N 
HETATM   30  C   UNK N   1      25.027   6.790   5.294  0.00  0.00     0.302 C 
HETATM   31  C   UNK N   1      23.799   5.153   6.384  0.00  0.00     0.310 C 
HETATM   32  C   UNK N   1      25.571   8.203   5.341  0.00  0.00     0.303 C 
ENDBRANCH  23  26
ENDBRANCH  17  20
BRANCH  19  33
HETATM   33  O   UNK N   1      22.300  16.922   6.186  0.00  0.00    -0.354 OA
HETATM   34  C   UNK N   1      21.260  16.538   6.999  0.00  0.00     0.210 C 
ENDBRANCH  19  33
ENDBRANCH  11  14
BRANCH   1  35
HETATM   35  C   UNK N   1      28.628  17.901   7.598  0.00  0.00     0.070 A 
HETATM   36  C   UNK N   1      28.562  18.502   8.855  0.00  0.00     0.031 A 
HETATM   37  C   UNK N   1      29.710  18.628   9.630  0.00  0.00     0.002 A 
HETATM   38  C   UNK N   1      30.927  18.133   9.164  0.00  0.00     0.002 A 
HETATM   39  C   UNK N   1      31.008  17.539   7.904  0.00  0.00     0.026 A 
HETATM   40  C   UNK N   1      29.876  17.422   7.088  0.00  0.00     0.086 A 
BRANCH  40  41
HETATM   41  S   UNK N   1      30.108  16.726   5.386  0.00  0.00     0.181 S 
HETATM   42  O   UNK N   1      29.850  18.094   4.747  0.00  0.00    -0.222 OA
HETATM   43  O   UNK N   1      31.615  17.019   5.488  0.00  0.00    -0.222 OA
BRANCH  41  44
HETATM   44  C   UNK N   1      30.344  16.046   3.671  0.00  0.00     0.105 C 
HETATM   45  C   UNK N   1      29.102  15.986   2.785  0.00  0.00     0.026 C 
HETATM   46  C   UNK N   1      31.500  16.672   2.923  0.00  0.00     0.026 C 
ENDBRANCH  41  44
ENDBRANCH  40  41
ENDBRANCH   1  35
TORSDOF 7
ENDMDL
MODEL 8
REMARK VINA RESULT:      -7.4      2.146      2.808
REMARK  7 active torsions:
REMARK  status: ('A' for Active; 'I' for Inactive)
REMARK    1  A    between atoms: C_2  and  S_4 
REMARK    2  A    between atoms: S_4  and  C_7 
REMARK    3  A    between atoms: C_12  and  N_13 
REMARK       I    between atoms: N_13  and  C_14 
REMARK       I    between atoms: C_20  and  N_23 
REMARK    4  A    between atoms: N_23  and  C_24 
REMARK    5  A    between atoms: C_27  and  N_32 
REMARK    6  A    between atoms: C_29  and  O_30 
REMARK    7  A    between atoms: C_35  and  N_38 
ROOT
HETATM    1  N   UNK N   1      24.555  14.842   5.965  0.00  0.00    -0.190 N 
HETATM    2  C   UNK N   1      24.409  16.217   5.648  0.00  0.00     0.698 A 
HETATM    3  N   UNK N   1      23.249  16.926   5.640  0.00  0.00    -0.187 N 
ATOM      4  HN  UNK N   1      22.357  16.472   5.836  1.00  0.00     0.185 HD
HETATM    5  C   UNK N   1      23.308  18.277   5.359  0.00  0.00     0.215 A 
HETATM    6  N   UNK N   1      24.517  18.900   5.122  0.00  0.00    -0.187 N 
ATOM      7  HN  UNK N   1      24.561  19.901   4.935  1.00  0.00     0.185 HD
HETATM    8  C   UNK N   1      25.649  18.146   5.145  0.00  0.00     0.698 A 
HETATM    9  N   UNK N   1      25.529  16.848   5.395  0.00  0.00    -0.022 N 
ATOM     10  HN  UNK N   1      26.385  16.293   5.392  1.00  0.00     0.203 HD
HETATM   11  N   UNK N   1      26.980  18.683   5.035  0.00  0.00    -0.188 N 
HETATM   12  H   UNK N   1      25.489  14.532   5.975  0.00  0.00     0.184 HD
HETATM   13  H   UNK N   1      27.115  19.607   4.723  0.00  0.00     0.184 HD
ENDROOT
BRANCH  11  14
HETATM   14  C   UNK N   1      28.127  17.855   5.386  0.00  0.00     0.082 A 
HETATM   15  C   UNK N   1      28.803  18.092   6.598  0.00  0.00     0.035 A 
HETATM   16  C   UNK N   1      29.976  17.505   6.960  0.00  0.00     0.032 A 
HETATM   17  C   UNK N   1      30.567  16.613   6.103  0.00  0.00     0.033 A 
HETATM   18  C   UNK N   1      29.901  16.265   4.902  0.00  0.00     0.068 A 
HETATM   19  C   UNK N   1      28.678  16.865   4.530  0.00  0.00     0.097 A 
BRANCH  17  20
HETATM   20  N   UNK N   1      31.816  16.037   6.460  0.00  0.00    -0.381 N 
HETATM   21  C   UNK N   1      33.052  16.772   6.268  0.00  0.00     0.125 C 
HETATM   22  C   UNK N   1      33.428  17.455   7.592  0.00  0.00     0.055 C 
HETATM   23  C   UNK N   1      33.193  16.530   8.816  0.00  0.00     0.226 C 
HETATM   24  C   UNK N   1      31.895  15.702   8.759  0.00  0.00     0.055 C 
HETATM   25  C   UNK N   1      31.831  14.989   7.431  0.00  0.00     0.125 C 
BRANCH  23  26
HETATM   26  N   UNK N   1      34.372  15.811   9.339  0.00  0.00     0.096 N 
HETATM   27  C   UNK N   1      35.243  16.559  10.241  0.00  0.00     0.303 C 
HETATM   28  C   UNK N   1      36.165  15.548  10.929  0.00  0.00     0.302 C 
HETATM   29  N   UNK N   1      36.958  14.802   9.942  0.00  0.00     0.087 N 
HETATM   30  C   UNK N   1      36.106  14.176   8.931  0.00  0.00     0.302 C 
HETATM   31  C   UNK N   1      37.586  13.704  10.652  0.00  0.00     0.310 C 
HETATM   32  C   UNK N   1      35.197  15.206   8.293  0.00  0.00     0.303 C 
ENDBRANCH  23  26
ENDBRANCH  17  20
BRANCH  19  33
HETATM   33  O   UNK N   1      28.119  16.480   3.355  0.00  0.00    -0.354 OA
HETATM   34  C   UNK N   1      28.645  15.544   2.498  0.00  0.00     0.210 C 
ENDBRANCH  19  33
ENDBRANCH  11  14
BRANCH   1  35
HETATM   35  C   UNK N   1      23.623  13.841   6.266  0.00  0.00     0.070 A 
HETATM   36  C   UNK N   1      23.536  13.339   7.565  0.00  0.00     0.031 A 
HETATM   37  C   UNK N   1      22.603  12.354   7.872  0.00  0.00     0.002 A 
HETATM   38  C   UNK N   1      21.737  11.880   6.889  0.00  0.00     0.002 A 
HETATM   39  C   UNK N   1      21.821  12.366   5.584  0.00  0.00     0.026 A 
HETATM   40  C   UNK N   1      22.767  13.339   5.236  0.00  0.00     0.086 A 
BRANCH  40  41
HETATM   41  S   UNK N   1      22.879  13.834   3.455  0.00  0.00     0.181 S 
HETATM   42  O   UNK N   1      21.701  12.929   3.085  0.00  0.00    -0.222 OA
HETATM   43  O   UNK N   1      21.932  15.013   3.738  0.00  0.00    -0.222 OA
BRANCH  41  44
HETATM   44  C   UNK N   1      22.975  14.325   1.663  0.00  0.00     0.105 C 
HETATM   45  C   UNK N   1      24.367  14.353   1.036  0.00  0.00     0.026 C 
HETATM   46  C   UNK N   1      22.008  13.574   0.774  0.00  0.00     0.026 C 
ENDBRANCH  41  44
ENDBRANCH  40  41
ENDBRANCH   1  35
TORSDOF 7
ENDMDL
MODEL 9
REMARK VINA RESULT:      -7.3      2.488      3.002
REMARK  7 active torsions:
REMARK  status: ('A' for Active; 'I' for Inactive)
REMARK    1  A    between atoms: C_2  and  S_4 
REMARK    2  A    between atoms: S_4  and  C_7 
REMARK    3  A    between atoms: C_12  and  N_13 
REMARK       I    between atoms: N_13  and  C_14 
REMARK       I    between atoms: C_20  and  N_23 
REMARK    4  A    between atoms: N_23  and  C_24 
REMARK    5  A    between atoms: C_27  and  N_32 
REMARK    6  A    between atoms: C_29  and  O_30 
REMARK    7  A    between atoms: C_35  and  N_38 
ROOT
HETATM    1  N   UNK N   1      25.322  14.834   6.175  0.00  0.00    -0.190 N 
HETATM    2  C   UNK N   1      25.035  16.158   5.751  0.00  0.00     0.698 A 
HETATM    3  N   UNK N   1      23.801  16.714   5.619  0.00  0.00    -0.187 N 
ATOM      4  HN  UNK N   1      22.958  16.166   5.791  1.00  0.00     0.185 HD
HETATM    5  C   UNK N   1      23.717  18.042   5.247  0.00  0.00     0.215 A 
HETATM    6  N   UNK N   1      24.857  18.794   5.043  0.00  0.00    -0.187 N 
ATOM      7  HN  UNK N   1      24.793  19.779   4.787  1.00  0.00     0.185 HD
HETATM    8  C   UNK N   1      26.066  18.191   5.191  0.00  0.00     0.698 A 
HETATM    9  N   UNK N   1      26.086  16.906   5.525  0.00  0.00    -0.022 N 
ATOM     10  HN  UNK N   1      27.000  16.463   5.615  1.00  0.00     0.203 HD
HETATM   11  N   UNK N   1      27.328  18.881   5.126  0.00  0.00    -0.188 N 
HETATM   12  H   UNK N   1      26.283  14.644   6.266  0.00  0.00     0.184 HD
HETATM   13  H   UNK N   1      27.373  19.793   4.758  0.00  0.00     0.184 HD
ENDROOT
BRANCH  11  14
HETATM   14  C   UNK N   1      28.537  18.226   5.608  0.00  0.00     0.082 A 
HETATM   15  C   UNK N   1      29.438  17.671   4.678  0.00  0.00     0.035 A 
HETATM   16  C   UNK N   1      30.508  16.895   5.002  0.00  0.00     0.032 A 
HETATM   17  C   UNK N   1      30.753  16.615   6.321  0.00  0.00     0.033 A 
HETATM   18  C   UNK N   1      29.936  17.207   7.316  0.00  0.00     0.068 A 
HETATM   19  C   UNK N   1      28.831  18.022   6.982  0.00  0.00     0.097 A 
BRANCH  17  20
HETATM   20  N   UNK N   1      31.842  15.765   6.656  0.00  0.00    -0.381 N 
HETATM   21  C   UNK N   1      32.992  15.656   5.779  0.00  0.00     0.125 C 
HETATM   22  C   UNK N   1      34.086  16.611   6.283  0.00  0.00     0.055 C 
HETATM   23  C   UNK N   1      34.215  16.589   7.830  0.00  0.00     0.226 C 
HETATM   24  C   UNK N   1      32.875  16.541   8.588  0.00  0.00     0.055 C 
HETATM   25  C   UNK N   1      32.039  15.418   8.027  0.00  0.00     0.125 C 
BRANCH  23  26
HETATM   26  N   UNK N   1      35.284  15.740   8.394  0.00  0.00     0.096 N 
HETATM   27  C   UNK N   1      35.423  14.404   7.824  0.00  0.00     0.303 C 
HETATM   28  C   UNK N   1      36.775  13.849   8.281  0.00  0.00     0.302 C 
HETATM   29  N   UNK N   1      36.854  13.799   9.748  0.00  0.00     0.087 N 
HETATM   30  C   UNK N   1      36.558  15.100  10.346  0.00  0.00     0.302 C 
HETATM   31  C   UNK N   1      38.239  13.525  10.083  0.00  0.00     0.310 C 
HETATM   32  C   UNK N   1      35.224  15.619   9.851  0.00  0.00     0.303 C 
ENDBRANCH  23  26
ENDBRANCH  17  20
BRANCH  19  33
HETATM   33  O   UNK N   1      28.096  18.535   8.001  0.00  0.00    -0.354 OA
HETATM   34  C   UNK N   1      28.109  18.076   9.295  0.00  0.00     0.210 C 
ENDBRANCH  19  33
ENDBRANCH  11  14
BRANCH   1  35
HETATM   35  C   UNK N   1      24.498  13.746   6.488  0.00  0.00     0.070 A 
HETATM   36  C   UNK N   1      24.152  13.493   7.816  0.00  0.00     0.031 A 
HETATM   37  C   UNK N   1      23.324  12.421   8.131  0.00  0.00     0.002 A 
HETATM   38  C   UNK N   1      22.817  11.609   7.118  0.00  0.00     0.002 A 
HETATM   39  C   UNK N   1      23.163  11.844   5.787  0.00  0.00     0.026 A 
HETATM   40  C   UNK N   1      24.017  12.899   5.440  0.00  0.00     0.086 A 
BRANCH  40  41
HETATM   41  S   UNK N   1      24.511  13.059   3.662  0.00  0.00     0.181 S 
HETATM   42  O   UNK N   1      24.670  11.541   3.527  0.00  0.00    -0.222 OA
HETATM   43  O   UNK N   1      23.029  12.975   3.258  0.00  0.00    -0.222 OA
BRANCH  41  44
HETATM   44  C   UNK N   1      25.004  13.200   1.873  0.00  0.00     0.105 C 
HETATM   45  C   UNK N   1      24.893  11.930   1.034  0.00  0.00     0.026 C 
HETATM   46  C   UNK N   1      24.362  14.368   1.157  0.00  0.00     0.026 C 
ENDBRANCH  41  44
ENDBRANCH  40  41
ENDBRANCH   1  35
TORSDOF 7
ENDMDL
