MODEL 1
REMARK VINA RESULT:      -7.4      0.000      0.000
REMARK  8 active torsions:
REMARK  status: ('A' for Active; 'I' for Inactive)
REMARK    1  A    between atoms: C_2  and  O_4 
REMARK    2  A    between atoms: O_4  and  C_5 
REMARK    3  A    between atoms: C_10  and  C_11 
REMARK    4  A    between atoms: C_11  and  O_13 
REMARK    5  A    between atoms: O_13  and  C_14 
REMARK    6  A    between atoms: C_18  and  C_20 
REMARK    7  A    between atoms: C_20  and  O_21 
REMARK    8  A    between atoms: O_21  and  N_22 
ROOT
HETATM    1  C   UNK N   1      29.135  17.755   4.957  0.00  0.00     0.301 C 
HETATM    2  O   UNK N   1      28.729  16.602   4.913  0.00  0.00    -0.259 OA
ENDROOT
BRANCH   1   3
HETATM    3  C   UNK N   1      28.294  18.852   5.492  0.00  0.00     0.073 A 
HETATM    4  C   UNK N   1      27.907  19.904   4.654  0.00  0.00     0.020 A 
HETATM    5  C   UNK N   1      27.124  20.949   5.148  0.00  0.00     0.001 A 
HETATM    6  C   UNK N   1      26.729  20.958   6.487  0.00  0.00     0.003 A 
HETATM    7  C   UNK N   1      27.123  19.928   7.339  0.00  0.00     0.038 A 
HETATM    8  C   UNK N   1      27.908  18.867   6.864  0.00  0.00     0.095 A 
BRANCH   8   9
HETATM    9  O   UNK N   1      28.333  17.874   7.702  0.00  0.00    -0.278 OA
BRANCH   9  10
HETATM   10  C   UNK N   1      28.566  17.931   9.043  0.00  0.00     0.260 C 
HETATM   11  C   UNK N   1      29.696  18.761   9.551  0.00  0.00     0.126 C 
HETATM   12  O   UNK N   1      27.866  17.327   9.840  0.00  0.00    -0.265 OA
ENDBRANCH   9  10
ENDBRANCH   8   9
ENDBRANCH   1   3
BRANCH   1  13
HETATM   13  O   UNK N   1      30.347  18.090   4.475  0.00  0.00    -0.275 OA
BRANCH  13  14
HETATM   14  C   UNK N   1      31.435  17.314   4.366  0.00  0.00     0.080 A 
HETATM   15  C   UNK N   1      31.827  16.675   3.181  0.00  0.00     0.037 A 
HETATM   16  C   UNK N   1      33.031  15.957   3.153  0.00  0.00     0.003 A 
HETATM   17  C   UNK N   1      33.846  15.912   4.294  0.00  0.00     0.009 A 
HETATM   18  C   UNK N   1      33.441  16.569   5.464  0.00  0.00    -0.029 A 
HETATM   19  C   UNK N   1      32.239  17.244   5.491  0.00  0.00     0.046 A 
BRANCH  18  20
HETATM   20  C   UNK N   1      34.256  16.550   6.698  0.00  0.00     0.246 C 
BRANCH  20  21
HETATM   21  O   UNK N   1      34.641  17.833   6.970  0.00  0.00    -0.217 OA
BRANCH  21  22
HETATM   22  N   UNK N   1      34.611  18.315   8.195  0.00  0.00     0.005 N 
HETATM   23  O   UNK N   1      35.236  19.292   8.455  0.00  0.00    -0.511 OA
HETATM   24  O   UNK N   1      33.885  17.731   9.128  0.00  0.00    -0.511 OA
ENDBRANCH  21  22
ENDBRANCH  20  21
ENDBRANCH  18  20
ENDBRANCH  13  14
ENDBRANCH   1  13
TORSDOF 8
ENDMDL
MODEL 2
REMARK VINA RESULT:      -7.1      7.876     11.102
REMARK  8 active torsions:
REMARK  status: ('A' for Active; 'I' for Inactive)
REMARK    1  A    between atoms: C_2  and  O_4 
REMARK    2  A    between atoms: O_4  and  C_5 
REMARK    3  A    between atoms: C_10  and  C_11 
REMARK    4  A    between atoms: C_11  and  O_13 
REMARK    5  A    between atoms: O_13  and  C_14 
REMARK    6  A    between atoms: C_18  and  C_20 
REMARK    7  A    between atoms: C_20  and  O_21 
REMARK    8  A    between atoms: O_21  and  N_22 
ROOT
HETATM    1  C   UNK N   1      36.147  13.765  14.445  0.00  0.00     0.301 C 
HETATM    2  O   UNK N   1      36.797  14.758  14.742  0.00  0.00    -0.259 OA
ENDROOT
BRANCH   1   3
HETATM    3  C   UNK N   1      36.481  12.429  14.991  0.00  0.00     0.073 A 
HETATM    4  C   UNK N   1      37.301  11.563  14.257  0.00  0.00     0.020 A 
HETATM    5  C   UNK N   1      37.615  10.297  14.754  0.00  0.00     0.001 A 
HETATM    6  C   UNK N   1      37.106   9.880  15.985  0.00  0.00     0.003 A 
HETATM    7  C   UNK N   1      36.272  10.722  16.718  0.00  0.00     0.038 A 
HETATM    8  C   UNK N   1      35.944  11.999  16.239  0.00  0.00     0.095 A 
BRANCH   8   9
HETATM    9  O   UNK N   1      35.095  12.816  16.932  0.00  0.00    -0.278 OA
BRANCH   9  10
HETATM   10  C   UNK N   1      35.310  13.470  18.108  0.00  0.00     0.260 C 
HETATM   11  C   UNK N   1      35.172  12.723  19.391  0.00  0.00     0.126 C 
HETATM   12  O   UNK N   1      35.622  14.650  18.136  0.00  0.00    -0.265 OA
ENDBRANCH   9  10
ENDBRANCH   8   9
ENDBRANCH   1   3
BRANCH   1  13
HETATM   13  O   UNK N   1      35.126  13.833  13.570  0.00  0.00    -0.275 OA
BRANCH  13  14
HETATM   14  C   UNK N   1      35.188  13.977  12.239  0.00  0.00     0.080 A 
HETATM   15  C   UNK N   1      35.258  12.905  11.336  0.00  0.00     0.037 A 
HETATM   16  C   UNK N   1      35.231  13.164   9.958  0.00  0.00     0.003 A 
HETATM   17  C   UNK N   1      35.100  14.482   9.495  0.00  0.00     0.009 A 
HETATM   18  C   UNK N   1      35.018  15.536  10.415  0.00  0.00    -0.029 A 
HETATM   19  C   UNK N   1      35.080  15.275  11.767  0.00  0.00     0.046 A 
BRANCH  18  20
HETATM   20  C   UNK N   1      34.887  16.946   9.985  0.00  0.00     0.246 C 
BRANCH  20  21
HETATM   21  O   UNK N   1      34.854  16.969   8.619  0.00  0.00    -0.217 OA
BRANCH  21  22
HETATM   22  N   UNK N   1      34.728  18.097   7.952  0.00  0.00     0.005 N 
HETATM   23  O   UNK N   1      35.095  19.114   8.446  0.00  0.00    -0.511 OA
HETATM   24  O   UNK N   1      34.209  18.104   6.740  0.00  0.00    -0.511 OA
ENDBRANCH  21  22
ENDBRANCH  20  21
ENDBRANCH  18  20
ENDBRANCH  13  14
ENDBRANCH   1  13
TORSDOF 8
ENDMDL
MODEL 3
REMARK VINA RESULT:      -7.0      7.648     10.794
REMARK  8 active torsions:
REMARK  status: ('A' for Active; 'I' for Inactive)
REMARK    1  A    between atoms: C_2  and  O_4 
REMARK    2  A    between atoms: O_4  and  C_5 
REMARK    3  A    between atoms: C_10  and  C_11 
REMARK    4  A    between atoms: C_11  and  O_13 
REMARK    5  A    between atoms: O_13  and  C_14 
REMARK    6  A    between atoms: C_18  and  C_20 
REMARK    7  A    between atoms: C_20  and  O_21 
REMARK    8  A    between atoms: O_21  and  N_22 
ROOT
HETATM    1  C   UNK N   1      35.856  13.770  14.479  0.00  0.00     0.301 C 
HETATM    2  O   UNK N   1      36.808  14.538  14.435  0.00  0.00    -0.259 OA
ENDROOT
BRANCH   1   3
HETATM    3  C   UNK N   1      35.631  12.881  15.643  0.00  0.00     0.073 A 
HETATM    4  C   UNK N   1      35.337  13.435  16.894  0.00  0.00     0.020 A 
HETATM    5  C   UNK N   1      35.133  12.609  18.002  0.00  0.00     0.001 A 
HETATM    6  C   UNK N   1      35.230  11.223  17.871  0.00  0.00     0.003 A 
HETATM    7  C   UNK N   1      35.542  10.657  16.636  0.00  0.00     0.038 A 
HETATM    8  C   UNK N   1      35.749  11.467  15.510  0.00  0.00     0.095 A 
BRANCH   8   9
HETATM    9  O   UNK N   1      36.095  10.924  14.304  0.00  0.00    -0.278 OA
BRANCH   9  10
HETATM   10  C   UNK N   1      35.369  10.096  13.502  0.00  0.00     0.260 C 
HETATM   11  C   UNK N   1      33.909  10.347  13.330  0.00  0.00     0.126 C 
HETATM   12  O   UNK N   1      35.886   9.159  12.914  0.00  0.00    -0.265 OA
ENDBRANCH   9  10
ENDBRANCH   8   9
ENDBRANCH   1   3
BRANCH   1  13
HETATM   13  O   UNK N   1      34.996  13.663  13.449  0.00  0.00    -0.275 OA
BRANCH  13  14
HETATM   14  C   UNK N   1      35.219  13.933  12.155  0.00  0.00     0.080 A 
HETATM   15  C   UNK N   1      35.416  12.951  11.172  0.00  0.00     0.037 A 
HETATM   16  C   UNK N   1      35.555  13.338   9.832  0.00  0.00     0.003 A 
HETATM   17  C   UNK N   1      35.462  14.694   9.481  0.00  0.00     0.009 A 
HETATM   18  C   UNK N   1      35.251  15.657  10.478  0.00  0.00    -0.029 A 
HETATM   19  C   UNK N   1      35.150  15.268  11.797  0.00  0.00     0.046 A 
BRANCH  18  20
HETATM   20  C   UNK N   1      35.152  17.100  10.168  0.00  0.00     0.246 C 
BRANCH  20  21
HETATM   21  O   UNK N   1      34.491  17.232   8.980  0.00  0.00    -0.217 OA
BRANCH  21  22
HETATM   22  N   UNK N   1      34.761  18.215   8.147  0.00  0.00     0.005 N 
HETATM   23  O   UNK N   1      35.305  19.193   8.550  0.00  0.00    -0.511 OA
HETATM   24  O   UNK N   1      34.445  18.118   6.871  0.00  0.00    -0.511 OA
ENDBRANCH  21  22
ENDBRANCH  20  21
ENDBRANCH  18  20
ENDBRANCH  13  14
ENDBRANCH   1  13
TORSDOF 8
ENDMDL
MODEL 4
REMARK VINA RESULT:      -6.9      2.418      4.430
REMARK  8 active torsions:
REMARK  status: ('A' for Active; 'I' for Inactive)
REMARK    1  A    between atoms: C_2  and  O_4 
REMARK    2  A    between atoms: O_4  and  C_5 
REMARK    3  A    between atoms: C_10  and  C_11 
REMARK    4  A    between atoms: C_11  and  O_13 
REMARK    5  A    between atoms: O_13  and  C_14 
REMARK    6  A    between atoms: C_18  and  C_20 
REMARK    7  A    between atoms: C_20  and  O_21 
REMARK    8  A    between atoms: O_21  and  N_22 
ROOT
HETATM    1  C   UNK N   1      28.613  17.269   4.512  0.00  0.00     0.301 C 
HETATM    2  O   UNK N   1      29.463  16.978   3.682  0.00  0.00    -0.259 OA
ENDROOT
BRANCH   1   3
HETATM    3  C   UNK N   1      27.516  18.214   4.197  0.00  0.00     0.073 A 
HETATM    4  C   UNK N   1      27.756  19.593   4.225  0.00  0.00     0.020 A 
HETATM    5  C   UNK N   1      26.728  20.495   3.941  0.00  0.00     0.001 A 
HETATM    6  C   UNK N   1      25.449  20.028   3.636  0.00  0.00     0.003 A 
HETATM    7  C   UNK N   1      25.189  18.659   3.624  0.00  0.00     0.038 A 
HETATM    8  C   UNK N   1      26.205  17.735   3.904  0.00  0.00     0.095 A 
BRANCH   8   9
HETATM    9  O   UNK N   1      25.950  16.392   3.934  0.00  0.00    -0.278 OA
BRANCH   9  10
HETATM   10  C   UNK N   1      25.417  15.603   2.960  0.00  0.00     0.260 C 
HETATM   11  C   UNK N   1      26.135  15.466   1.660  0.00  0.00     0.126 C 
HETATM   12  O   UNK N   1      24.370  14.999   3.128  0.00  0.00    -0.265 OA
ENDBRANCH   9  10
ENDBRANCH   8   9
ENDBRANCH   1   3
BRANCH   1  13
HETATM   13  O   UNK N   1      28.662  16.781   5.765  0.00  0.00    -0.275 OA
BRANCH  13  14
HETATM   14  C   UNK N   1      29.091  17.397   6.875  0.00  0.00     0.080 A 
HETATM   15  C   UNK N   1      28.256  18.107   7.751  0.00  0.00     0.037 A 
HETATM   16  C   UNK N   1      28.792  18.642   8.931  0.00  0.00     0.003 A 
HETATM   17  C   UNK N   1      30.145  18.434   9.242  0.00  0.00     0.009 A 
HETATM   18  C   UNK N   1      30.958  17.710   8.359  0.00  0.00    -0.029 A 
HETATM   19  C   UNK N   1      30.428  17.218   7.185  0.00  0.00     0.046 A 
BRANCH  18  20
HETATM   20  C   UNK N   1      32.392  17.466   8.632  0.00  0.00     0.246 C 
BRANCH  20  21
HETATM   21  O   UNK N   1      33.089  18.575   8.242  0.00  0.00    -0.217 OA
BRANCH  21  22
HETATM   22  N   UNK N   1      34.345  18.497   7.853  0.00  0.00     0.005 N 
HETATM   23  O   UNK N   1      35.184  19.081   8.460  0.00  0.00    -0.511 OA
HETATM   24  O   UNK N   1      34.677  17.770   6.805  0.00  0.00    -0.511 OA
ENDBRANCH  21  22
ENDBRANCH  20  21
ENDBRANCH  18  20
ENDBRANCH  13  14
ENDBRANCH   1  13
TORSDOF 8
ENDMDL
MODEL 5
REMARK VINA RESULT:      -6.9     11.327     13.701
REMARK  8 active torsions:
REMARK  status: ('A' for Active; 'I' for Inactive)
REMARK    1  A    between atoms: C_2  and  O_4 
REMARK    2  A    between atoms: O_4  and  C_5 
REMARK    3  A    between atoms: C_10  and  C_11 
REMARK    4  A    between atoms: C_11  and  O_13 
REMARK    5  A    between atoms: O_13  and  C_14 
REMARK    6  A    between atoms: C_18  and  C_20 
REMARK    7  A    between atoms: C_20  and  O_21 
REMARK    8  A    between atoms: O_21  and  N_22 
ROOT
HETATM    1  C   UNK N   1      27.297  24.496  -3.219  0.00  0.00     0.301 C 
HETATM    2  O   UNK N   1      26.755  23.636  -2.540  0.00  0.00    -0.259 OA
ENDROOT
BRANCH   1   3
HETATM    3  C   UNK N   1      26.511  25.543  -3.914  0.00  0.00     0.073 A 
HETATM    4  C   UNK N   1      26.407  26.822  -3.354  0.00  0.00     0.020 A 
HETATM    5  C   UNK N   1      25.660  27.814  -3.992  0.00  0.00     0.001 A 
HETATM    6  C   UNK N   1      25.004  27.536  -5.192  0.00  0.00     0.003 A 
HETATM    7  C   UNK N   1      25.082  26.263  -5.753  0.00  0.00     0.038 A 
HETATM    8  C   UNK N   1      25.826  25.251  -5.130  0.00  0.00     0.095 A 
BRANCH   8   9
HETATM    9  O   UNK N   1      25.875  23.988  -5.651  0.00  0.00    -0.278 OA
BRANCH   9  10
HETATM   10  C   UNK N   1      25.957  23.606  -6.956  0.00  0.00     0.260 C 
HETATM   11  C   UNK N   1      27.202  23.897  -7.723  0.00  0.00     0.126 C 
HETATM   12  O   UNK N   1      25.038  23.025  -7.511  0.00  0.00    -0.265 OA
ENDBRANCH   9  10
ENDBRANCH   8   9
ENDBRANCH   1   3
BRANCH   1  13
HETATM   13  O   UNK N   1      28.630  24.504  -3.407  0.00  0.00    -0.275 OA
BRANCH  13  14
HETATM   14  C   UNK N   1      29.435  23.461  -3.653  0.00  0.00     0.080 A 
HETATM   15  C   UNK N   1      30.181  22.796  -2.668  0.00  0.00     0.037 A 
HETATM   16  C   UNK N   1      30.925  21.660  -3.019  0.00  0.00     0.003 A 
HETATM   17  C   UNK N   1      30.891  21.180  -4.337  0.00  0.00     0.009 A 
HETATM   18  C   UNK N   1      30.128  21.853  -5.302  0.00  0.00    -0.029 A 
HETATM   19  C   UNK N   1      29.427  22.988  -4.954  0.00  0.00     0.046 A 
BRANCH  18  20
HETATM   20  C   UNK N   1      30.061  21.397  -6.708  0.00  0.00     0.246 C 
BRANCH  20  21
HETATM   21  O   UNK N   1      29.936  20.036  -6.705  0.00  0.00    -0.217 OA
BRANCH  21  22
HETATM   22  N   UNK N   1      29.119  19.417  -7.532  0.00  0.00     0.005 N 
HETATM   23  O   UNK N   1      28.244  20.027  -8.058  0.00  0.00    -0.511 OA
HETATM   24  O   UNK N   1      29.271  18.133  -7.788  0.00  0.00    -0.511 OA
ENDBRANCH  21  22
ENDBRANCH  20  21
ENDBRANCH  18  20
ENDBRANCH  13  14
ENDBRANCH   1  13
TORSDOF 8
ENDMDL
MODEL 6
REMARK VINA RESULT:      -6.8     11.871     14.015
REMARK  8 active torsions:
REMARK  status: ('A' for Active; 'I' for Inactive)
REMARK    1  A    between atoms: C_2  and  O_4 
REMARK    2  A    between atoms: O_4  and  C_5 
REMARK    3  A    between atoms: C_10  and  C_11 
REMARK    4  A    between atoms: C_11  and  O_13 
REMARK    5  A    between atoms: O_13  and  C_14 
REMARK    6  A    between atoms: C_18  and  C_20 
REMARK    7  A    between atoms: C_20  and  O_21 
REMARK    8  A    between atoms: O_21  and  N_22 
ROOT
HETATM    1  C   UNK N   1      26.202  23.511  -6.294  0.00  0.00     0.301 C 
HETATM    2  O   UNK N   1      25.250  22.743  -6.315  0.00  0.00    -0.259 OA
ENDROOT
BRANCH   1   3
HETATM    3  C   UNK N   1      26.161  24.776  -5.523  0.00  0.00     0.073 A 
HETATM    4  C   UNK N   1      26.515  24.777  -4.169  0.00  0.00     0.020 A 
HETATM    5  C   UNK N   1      26.470  25.959  -3.428  0.00  0.00     0.001 A 
HETATM    6  C   UNK N   1      26.062  27.150  -4.031  0.00  0.00     0.003 A 
HETATM    7  C   UNK N   1      25.687  27.162  -5.373  0.00  0.00     0.038 A 
HETATM    8  C   UNK N   1      25.726  25.987  -6.137  0.00  0.00     0.095 A 
BRANCH   8   9
HETATM    9  O   UNK N   1      25.321  25.980  -7.443  0.00  0.00    -0.278 OA
BRANCH   9  10
HETATM   10  C   UNK N   1      26.054  26.232  -8.564  0.00  0.00     0.260 C 
HETATM   11  C   UNK N   1      25.463  25.935  -9.901  0.00  0.00     0.126 C 
HETATM   12  O   UNK N   1      27.178  26.702  -8.500  0.00  0.00    -0.265 OA
ENDBRANCH   9  10
ENDBRANCH   8   9
ENDBRANCH   1   3
BRANCH   1  13
HETATM   13  O   UNK N   1      27.315  23.265  -7.011  0.00  0.00    -0.275 OA
BRANCH  13  14
HETATM   14  C   UNK N   1      28.154  22.225  -6.903  0.00  0.00     0.080 A 
HETATM   15  C   UNK N   1      28.173  21.138  -7.789  0.00  0.00     0.037 A 
HETATM   16  C   UNK N   1      29.151  20.144  -7.637  0.00  0.00     0.003 A 
HETATM   17  C   UNK N   1      30.117  20.261  -6.626  0.00  0.00     0.009 A 
HETATM   18  C   UNK N   1      30.087  21.363  -5.760  0.00  0.00    -0.029 A 
HETATM   19  C   UNK N   1      29.101  22.317  -5.897  0.00  0.00     0.046 A 
BRANCH  18  20
HETATM   20  C   UNK N   1      31.075  21.535  -4.672  0.00  0.00     0.246 C 
BRANCH  20  21
HETATM   21  O   UNK N   1      30.496  22.291  -3.692  0.00  0.00    -0.217 OA
BRANCH  21  22
HETATM   22  N   UNK N   1      31.019  22.373  -2.487  0.00  0.00     0.005 N 
HETATM   23  O   UNK N   1      30.474  23.024  -1.654  0.00  0.00    -0.511 OA
HETATM   24  O   UNK N   1      32.132  21.731  -2.194  0.00  0.00    -0.511 OA
ENDBRANCH  21  22
ENDBRANCH  20  21
ENDBRANCH  18  20
ENDBRANCH  13  14
ENDBRANCH   1  13
TORSDOF 8
ENDMDL
MODEL 7
REMARK VINA RESULT:      -6.6      3.922      7.397
REMARK  8 active torsions:
REMARK  status: ('A' for Active; 'I' for Inactive)
REMARK    1  A    between atoms: C_2  and  O_4 
REMARK    2  A    between atoms: O_4  and  C_5 
REMARK    3  A    between atoms: C_10  and  C_11 
REMARK    4  A    between atoms: C_11  and  O_13 
REMARK    5  A    between atoms: O_13  and  C_14 
REMARK    6  A    between atoms: C_18  and  C_20 
REMARK    7  A    between atoms: C_20  and  O_21 
REMARK    8  A    between atoms: O_21  and  N_22 
ROOT
HETATM    1  C   UNK N   1      29.622  17.266   5.192  0.00  0.00     0.301 C 
HETATM    2  O   UNK N   1      28.882  16.300   5.309  0.00  0.00    -0.259 OA
ENDROOT
BRANCH   1   3
HETATM    3  C   UNK N   1      31.002  17.255   5.730  0.00  0.00     0.073 A 
HETATM    4  C   UNK N   1      32.088  17.434   4.864  0.00  0.00     0.020 A 
HETATM    5  C   UNK N   1      33.394  17.414   5.356  0.00  0.00     0.001 A 
HETATM    6  C   UNK N   1      33.629  17.205   6.716  0.00  0.00     0.003 A 
HETATM    7  C   UNK N   1      32.561  17.005   7.587  0.00  0.00     0.038 A 
HETATM    8  C   UNK N   1      31.240  17.023   7.116  0.00  0.00     0.095 A 
BRANCH   8   9
HETATM    9  O   UNK N   1      30.188  16.787   7.956  0.00  0.00    -0.278 OA
BRANCH   9  10
HETATM   10  C   UNK N   1      29.458  17.681   8.680  0.00  0.00     0.260 C 
HETATM   11  C   UNK N   1      30.140  18.868   9.272  0.00  0.00     0.126 C 
HETATM   12  O   UNK N   1      28.258  17.539   8.849  0.00  0.00    -0.265 OA
ENDBRANCH   9  10
ENDBRANCH   8   9
ENDBRANCH   1   3
BRANCH   1  13
HETATM   13  O   UNK N   1      29.199  18.405   4.611  0.00  0.00    -0.275 OA
BRANCH  13  14
HETATM   14  C   UNK N   1      28.104  19.122   4.898  0.00  0.00     0.080 A 
HETATM   15  C   UNK N   1      27.881  19.755   6.130  0.00  0.00     0.037 A 
HETATM   16  C   UNK N   1      26.741  20.553   6.297  0.00  0.00     0.003 A 
HETATM   17  C   UNK N   1      25.853  20.739   5.226  0.00  0.00     0.009 A 
HETATM   18  C   UNK N   1      26.102  20.108   4.000  0.00  0.00    -0.029 A 
HETATM   19  C   UNK N   1      27.208  19.297   3.856  0.00  0.00     0.046 A 
BRANCH  18  20
HETATM   20  C   UNK N   1      25.198  20.262   2.838  0.00  0.00     0.246 C 
BRANCH  20  21
HETATM   21  O   UNK N   1      24.086  20.936   3.257  0.00  0.00    -0.217 OA
BRANCH  21  22
HETATM   22  N   UNK N   1      22.877  20.444   3.085  0.00  0.00     0.005 N 
HETATM   23  O   UNK N   1      22.659  19.310   3.371  0.00  0.00    -0.511 OA
HETATM   24  O   UNK N   1      21.906  21.200   2.611  0.00  0.00    -0.511 OA
ENDBRANCH  21  22
ENDBRANCH  20  21
ENDBRANCH  18  20
ENDBRANCH  13  14
ENDBRANCH   1  13
TORSDOF 8
ENDMDL
MODEL 8
REMARK VINA RESULT:      -6.6      1.841      3.140
REMARK  8 active torsions:
REMARK  status: ('A' for Active; 'I' for Inactive)
REMARK    1  A    between atoms: C_2  and  O_4 
REMARK    2  A    between atoms: O_4  and  C_5 
REMARK    3  A    between atoms: C_10  and  C_11 
REMARK    4  A    between atoms: C_11  and  O_13 
REMARK    5  A    between atoms: O_13  and  C_14 
REMARK    6  A    between atoms: C_18  and  C_20 
REMARK    7  A    between atoms: C_20  and  O_21 
REMARK    8  A    between atoms: O_21  and  N_22 
ROOT
HETATM    1  C   UNK N   1      28.433  17.531   5.947  0.00  0.00     0.301 C 
HETATM    2  O   UNK N   1      28.085  16.409   6.286  0.00  0.00    -0.259 OA
ENDROOT
BRANCH   1   3
HETATM    3  C   UNK N   1      27.479  18.488   5.339  0.00  0.00     0.073 A 
HETATM    4  C   UNK N   1      27.127  19.654   6.029  0.00  0.00     0.020 A 
HETATM    5  C   UNK N   1      26.221  20.558   5.473  0.00  0.00     0.001 A 
HETATM    6  C   UNK N   1      25.650  20.302   4.225  0.00  0.00     0.003 A 
HETATM    7  C   UNK N   1      25.975  19.137   3.534  0.00  0.00     0.038 A 
HETATM    8  C   UNK N   1      26.884  18.215   4.072  0.00  0.00     0.095 A 
BRANCH   8   9
HETATM    9  O   UNK N   1      27.177  17.049   3.421  0.00  0.00    -0.278 OA
BRANCH   9  10
HETATM   10  C   UNK N   1      26.383  15.959   3.224  0.00  0.00     0.260 C 
HETATM   11  C   UNK N   1      26.424  15.257   1.909  0.00  0.00     0.126 C 
HETATM   12  O   UNK N   1      25.646  15.538   4.101  0.00  0.00    -0.265 OA
ENDBRANCH   9  10
ENDBRANCH   8   9
ENDBRANCH   1   3
BRANCH   1  13
HETATM   13  O   UNK N   1      29.713  17.933   6.066  0.00  0.00    -0.275 OA
BRANCH  13  14
HETATM   14  C   UNK N   1      30.796  17.429   5.459  0.00  0.00     0.080 A 
HETATM   15  C   UNK N   1      30.845  17.083   4.101  0.00  0.00     0.037 A 
HETATM   16  C   UNK N   1      32.056  16.645   3.545  0.00  0.00     0.003 A 
HETATM   17  C   UNK N   1      33.211  16.589   4.340  0.00  0.00     0.009 A 
HETATM   18  C   UNK N   1      33.142  16.952   5.692  0.00  0.00    -0.029 A 
HETATM   19  C   UNK N   1      31.940  17.349   6.237  0.00  0.00     0.046 A 
BRANCH  18  20
HETATM   20  C   UNK N   1      34.326  16.907   6.579  0.00  0.00     0.246 C 
BRANCH  20  21
HETATM   21  O   UNK N   1      34.550  18.170   7.050  0.00  0.00    -0.217 OA
BRANCH  21  22
HETATM   22  N   UNK N   1      34.808  18.395   8.321  0.00  0.00     0.005 N 
HETATM   23  O   UNK N   1      35.424  19.364   8.631  0.00  0.00    -0.511 OA
HETATM   24  O   UNK N   1      34.380  17.563   9.250  0.00  0.00    -0.511 OA
ENDBRANCH  21  22
ENDBRANCH  20  21
ENDBRANCH  18  20
ENDBRANCH  13  14
ENDBRANCH   1  13
TORSDOF 8
ENDMDL
MODEL 9
REMARK VINA RESULT:      -6.5      8.969     11.881
REMARK  8 active torsions:
REMARK  status: ('A' for Active; 'I' for Inactive)
REMARK    1  A    between atoms: C_2  and  O_4 
REMARK    2  A    between atoms: O_4  and  C_5 
REMARK    3  A    between atoms: C_10  and  C_11 
REMARK    4  A    between atoms: C_11  and  O_13 
REMARK    5  A    between atoms: O_13  and  C_14 
REMARK    6  A    between atoms: C_18  and  C_20 
REMARK    7  A    between atoms: C_20  and  O_21 
REMARK    8  A    between atoms: O_21  and  N_22 
ROOT
HETATM    1  C   UNK N   1      35.174  12.420  15.241  0.00  0.00     0.301 C 
HETATM    2  O   UNK N   1      34.109  12.443  14.640  0.00  0.00    -0.259 OA
ENDROOT
BRANCH   1   3
HETATM    3  C   UNK N   1      35.249  12.044  16.672  0.00  0.00     0.073 A 
HETATM    4  C   UNK N   1      35.232  10.693  17.039  0.00  0.00     0.020 A 
HETATM    5  C   UNK N   1      35.289  10.326  18.385  0.00  0.00     0.001 A 
HETATM    6  C   UNK N   1      35.356  11.305  19.377  0.00  0.00     0.003 A 
HETATM    7  C   UNK N   1      35.354  12.654  19.030  0.00  0.00     0.038 A 
HETATM    8  C   UNK N   1      35.298  13.047  17.685  0.00  0.00     0.095 A 
BRANCH   8   9
HETATM    9  O   UNK N   1      35.254  14.368  17.336  0.00  0.00    -0.278 OA
BRANCH   9  10
HETATM   10  C   UNK N   1      36.178  15.342  17.567  0.00  0.00     0.260 C 
HETATM   11  C   UNK N   1      37.316  15.505  16.618  0.00  0.00     0.126 C 
HETATM   12  O   UNK N   1      36.092  16.090  18.528  0.00  0.00    -0.265 OA
ENDBRANCH   9  10
ENDBRANCH   8   9
ENDBRANCH   1   3
BRANCH   1  13
HETATM   13  O   UNK N   1      36.324  12.781  14.641  0.00  0.00    -0.275 OA
BRANCH  13  14
HETATM   14  C   UNK N   1      36.746  12.468  13.408  0.00  0.00     0.080 A 
HETATM   15  C   UNK N   1      37.075  11.167  12.998  0.00  0.00     0.037 A 
HETATM   16  C   UNK N   1      37.423  10.935  11.660  0.00  0.00     0.003 A 
HETATM   17  C   UNK N   1      37.406  11.993  10.738  0.00  0.00     0.009 A 
HETATM   18  C   UNK N   1      37.061  13.282  11.166  0.00  0.00    -0.029 A 
HETATM   19  C   UNK N   1      36.754  13.506  12.492  0.00  0.00     0.046 A 
BRANCH  18  20
HETATM   20  C   UNK N   1      37.033  14.436  10.241  0.00  0.00     0.246 C 
BRANCH  20  21
HETATM   21  O   UNK N   1      36.460  15.489  10.897  0.00  0.00    -0.217 OA
BRANCH  21  22
HETATM   22  N   UNK N   1      35.513  16.214  10.340  0.00  0.00     0.005 N 
HETATM   23  O   UNK N   1      34.597  15.674   9.808  0.00  0.00    -0.511 OA
HETATM   24  O   UNK N   1      35.568  17.531  10.377  0.00  0.00    -0.511 OA
ENDBRANCH  21  22
ENDBRANCH  20  21
ENDBRANCH  18  20
ENDBRANCH  13  14
ENDBRANCH   1  13
TORSDOF 8
ENDMDL
