MODEL 1
REMARK VINA RESULT:      -2.9      0.000      0.000
REMARK  0 active torsions:
REMARK  status: ('A' for Active; 'I' for Inactive)
ROOT
HETATM    1  O   UNK N   1      38.725  20.791  20.640  0.00  0.00    -0.285 OA
ATOM      2  HO  UNK N   1      37.873  20.481  20.359  1.00  0.00     0.236 HD
HETATM    3 Cl   UNK N   1      40.093  21.288  21.093  0.00  0.00     0.098 Cl
HETATM    4  O   UNK N   1      41.461  21.787  21.543  0.00  0.00    -0.285 OA
ATOM      5  HO  UNK N   1      42.313  22.097  21.825  1.00  0.00     0.236 HD
ENDROOT
TORSDOF 0
ENDMDL
MODEL 2
REMARK VINA RESULT:      -2.9     26.859     27.675
REMARK  0 active torsions:
REMARK  status: ('A' for Active; 'I' for Inactive)
ROOT
HETATM    1  O   UNK N   1      20.936  21.333   2.868  0.00  0.00    -0.285 OA
ATOM      2  HO  UNK N   1      21.042  21.570   3.781  1.00  0.00     0.236 HD
HETATM    3 Cl   UNK N   1      20.766  20.953   1.402  0.00  0.00     0.098 Cl
HETATM    4  O   UNK N   1      20.594  20.573  -0.064  0.00  0.00    -0.285 OA
ATOM      5  HO  UNK N   1      20.488  20.336  -0.978  1.00  0.00     0.236 HD
ENDROOT
TORSDOF 0
ENDMDL
MODEL 3
REMARK VINA RESULT:      -2.9     26.861     27.623
REMARK  0 active torsions:
REMARK  status: ('A' for Active; 'I' for Inactive)
ROOT
HETATM    1  O   UNK N   1      20.595  20.587  -0.062  0.00  0.00    -0.285 OA
ATOM      2  HO  UNK N   1      20.491  20.355  -0.978  1.00  0.00     0.236 HD
HETATM    3 Cl   UNK N   1      20.760  20.960   1.406  0.00  0.00     0.098 Cl
HETATM    4  O   UNK N   1      20.927  21.331   2.875  0.00  0.00    -0.285 OA
ATOM      5  HO  UNK N   1      21.031  21.563   3.790  1.00  0.00     0.236 HD
ENDROOT
TORSDOF 0
ENDMDL
MODEL 4
REMARK VINA RESULT:      -2.6     20.278     21.041
REMARK  0 active torsions:
REMARK  status: ('A' for Active; 'I' for Inactive)
ROOT
HETATM    1  O   UNK N   1      22.754  11.163  11.534  0.00  0.00    -0.285 OA
ATOM      2  HO  UNK N   1      22.446  10.746  10.738  1.00  0.00     0.236 HD
HETATM    3 Cl   UNK N   1      23.247  11.833  12.811  0.00  0.00     0.098 Cl
HETATM    4  O   UNK N   1      23.742  12.502  14.088  0.00  0.00    -0.285 OA
ATOM      5  HO  UNK N   1      24.050  12.919  14.884  1.00  0.00     0.236 HD
ENDROOT
TORSDOF 0
ENDMDL
MODEL 5
REMARK VINA RESULT:      -2.5     20.502     21.445
REMARK  0 active torsions:
REMARK  status: ('A' for Active; 'I' for Inactive)
ROOT
HETATM    1  O   UNK N   1      23.829  12.366  13.552  0.00  0.00    -0.285 OA
ATOM      2  HO  UNK N   1      24.269  12.693  14.327  1.00  0.00     0.236 HD
HETATM    3 Cl   UNK N   1      23.123  11.843  12.307  0.00  0.00     0.098 Cl
HETATM    4  O   UNK N   1      22.418  11.317  11.062  0.00  0.00    -0.285 OA
ATOM      5  HO  UNK N   1      21.978  10.990  10.286  1.00  0.00     0.236 HD
ENDROOT
TORSDOF 0
ENDMDL
MODEL 6
REMARK VINA RESULT:      -2.3      8.247      8.822
REMARK  0 active torsions:
REMARK  status: ('A' for Active; 'I' for Inactive)
ROOT
HETATM    1  O   UNK N   1      47.595  19.041  20.728  0.00  0.00    -0.285 OA
ATOM      2  HO  UNK N   1      46.968  18.613  21.299  1.00  0.00     0.236 HD
HETATM    3 Cl   UNK N   1      48.601  19.728  19.812  0.00  0.00     0.098 Cl
HETATM    4  O   UNK N   1      49.607  20.413  18.895  0.00  0.00    -0.285 OA
ATOM      5  HO  UNK N   1      50.234  20.841  18.324  1.00  0.00     0.236 HD
ENDROOT
TORSDOF 0
ENDMDL
MODEL 7
REMARK VINA RESULT:      -2.3     24.848     25.475
REMARK  0 active torsions:
REMARK  status: ('A' for Active; 'I' for Inactive)
ROOT
HETATM    1  O   UNK N   1      30.686  22.891  -1.517  0.00  0.00    -0.285 OA
ATOM      2  HO  UNK N   1      31.621  22.784  -1.382  1.00  0.00     0.236 HD
HETATM    3 Cl   UNK N   1      29.188  23.063  -1.735  0.00  0.00     0.098 Cl
HETATM    4  O   UNK N   1      27.689  23.236  -1.950  0.00  0.00    -0.285 OA
ATOM      5  HO  UNK N   1      26.755  23.343  -2.085  1.00  0.00     0.236 HD
ENDROOT
TORSDOF 0
ENDMDL
MODEL 8
REMARK VINA RESULT:      -2.3     15.674     16.368
REMARK  0 active torsions:
REMARK  status: ('A' for Active; 'I' for Inactive)
ROOT
HETATM    1  O   UNK N   1      27.418  18.237   9.354  0.00  0.00    -0.285 OA
ATOM      2  HO  UNK N   1      26.473  18.196   9.260  1.00  0.00     0.236 HD
HETATM    3 Cl   UNK N   1      28.933  18.302   9.506  0.00  0.00     0.098 Cl
HETATM    4  O   UNK N   1      30.448  18.367   9.656  0.00  0.00    -0.285 OA
ATOM      5  HO  UNK N   1      31.392  18.408   9.750  1.00  0.00     0.236 HD
ENDROOT
TORSDOF 0
ENDMDL
MODEL 9
REMARK VINA RESULT:      -2.3     13.959     14.547
REMARK  0 active torsions:
REMARK  status: ('A' for Active; 'I' for Inactive)
ROOT
HETATM    1  O   UNK N   1      32.805  17.816   7.736  0.00  0.00    -0.285 OA
ATOM      2  HO  UNK N   1      32.008  17.362   7.487  1.00  0.00     0.236 HD
HETATM    3 Cl   UNK N   1      34.085  18.542   8.134  0.00  0.00     0.098 Cl
HETATM    4  O   UNK N   1      35.363  19.270   8.533  0.00  0.00    -0.285 OA
ATOM      5  HO  UNK N   1      36.160  19.723   8.781  1.00  0.00     0.236 HD
ENDROOT
TORSDOF 0
ENDMDL
