MODEL 1
REMARK VINA RESULT:      -6.6      0.000      0.000
REMARK  10 active torsions:
REMARK  status: ('A' for Active; 'I' for Inactive)
REMARK    1  A    between atoms: C_2  and  O_4 
REMARK    2  A    between atoms: C_5  and  O_4 
REMARK    3  A    between atoms: C_16  and  C_34 
REMARK    4  A    between atoms: C_21  and  N_22 
REMARK    5  A    between atoms: N_22  and  C_23 
REMARK    6  A    between atoms: N_22  and  C_26 
REMARK    7  A    between atoms: C_23  and  C_24 
REMARK    8  A    between atoms: C_26  and  C_27 
REMARK    9  A    between atoms: C_30  and  O_33 
REMARK   10  A    between atoms: C_34  and  O_35 
ROOT
HETATM    1  C   UNK N   1      23.563  15.164   3.005  0.00  0.00     0.164 C 
HETATM    2  C   UNK N   1      23.195  14.614   1.629  0.00  0.00     0.055 C 
HETATM    3  C   UNK N   1      23.908  13.306   1.358  0.00  0.00     0.027 C 
HETATM    4  C   UNK N   1      25.409  13.433   1.597  0.00  0.00     0.039 C 
HETATM    5  C   UNK N   1      25.854  12.116   2.248  0.00  0.00     0.018 C 
HETATM    6  C   UNK N   1      24.637  11.533   2.956  0.00  0.00     0.080 C 
HETATM    7  C   UNK N   1      23.510  12.203   2.271  0.00  0.00     0.136 C 
HETATM    8  O   UNK N   1      22.355  11.827   2.396  0.00  0.00    -0.297 OA
HETATM    9  C   UNK N   1      25.908  14.638   2.399  0.00  0.00     0.006 A 
HETATM   10  C   UNK N   1      25.070  15.510   3.048  0.00  0.00    -0.024 A 
HETATM   11  C   UNK N   1      25.666  16.747   3.840  0.00  0.00     0.042 A 
HETATM   12  C   UNK N   1      24.968  18.121   3.452  0.00  0.00     0.173 C 
HETATM   13  O   UNK N   1      25.713  19.279   3.643  0.00  0.00    -0.308 OA
HETATM   14  C   UNK N   1      26.967  19.368   4.124  0.00  0.00     0.295 C 
HETATM   15  O   UNK N   1      27.413  20.468   4.427  0.00  0.00    -0.259 OA
HETATM   16  C   UNK N   1      27.810  18.175   4.220  0.00  0.00     0.065 C 
HETATM   17  C   UNK N   1      29.071  18.322   4.704  0.00  0.00     0.104 C 
HETATM   18  C   UNK N   1      27.196  16.922   3.669  0.00  0.00     0.012 A 
HETATM   19  C   UNK N   1      27.947  16.043   2.970  0.00  0.00     0.125 A 
HETATM   20  C   UNK N   1      27.359  14.854   2.382  0.00  0.00     0.212 A 
HETATM   21  O   UNK N   1      28.088  14.057   1.806  0.00  0.00    -0.285 OA
HETATM   22  C   UNK N   1      25.463  16.477   5.332  0.00  0.00     0.028 C 
HETATM   23  C   UNK N   1      23.646  12.889  -0.078  0.00  0.00     0.024 C 
ENDROOT
BRANCH  17  24
HETATM   24  N   UNK N   1      29.991  17.279   5.005  0.00  0.00    -0.382 N 
BRANCH  24  25
HETATM   25  C   UNK N   1      31.351  17.479   4.561  0.00  0.00     0.149 C 
BRANCH  25  26
HETATM   26  C   UNK N   1      32.303  16.833   5.512  0.00  0.00    -0.018 C 
HETATM   27  C   UNK N   1      33.418  17.464   5.869  0.00  0.00     0.008 C 
ENDBRANCH  25  26
ENDBRANCH  24  25
BRANCH  24  28
HETATM   28  C   UNK N   1      29.773  16.516   6.222  0.00  0.00     0.149 C 
BRANCH  28  29
HETATM   29  C   UNK N   1      29.233  17.350   7.348  0.00  0.00    -0.018 C 
HETATM   30  C   UNK N   1      30.017  17.756   8.342  0.00  0.00     0.008 C 
ENDBRANCH  28  29
ENDBRANCH  24  28
ENDBRANCH  17  24
BRANCH  19  31
HETATM   31  O   UNK N   1      29.254  16.272   2.738  0.00  0.00    -0.356 OA
HETATM   32  H   UNK N   1      29.702  17.072   2.928  0.00  0.00     0.218 HD
ENDBRANCH  19  31
BRANCH  12  33
HETATM   33  C   UNK N   1      23.673  18.387   4.227  0.00  0.00     0.201 C 
BRANCH  33  34
HETATM   34  O   UNK N   1      23.321  19.735   4.142  0.00  0.00    -0.393 OA
HETATM   35  C   UNK N   1      22.311  19.788   3.181  0.00  0.00     0.201 C 
ENDBRANCH  33  34
ENDBRANCH  12  33
BRANCH   1  36
HETATM   36  O   UNK N   1      22.741  16.238   3.243  0.00  0.00    -0.312 OA
BRANCH  36  37
HETATM   37  C   UNK N   1      21.403  16.169   3.479  0.00  0.00     0.255 C 
HETATM   38  C   UNK N   1      20.403  16.726   2.516  0.00  0.00     0.126 C 
HETATM   39  O   UNK N   1      21.005  15.643   4.505  0.00  0.00    -0.266 OA
ENDBRANCH  36  37
ENDBRANCH   1  36
TORSDOF 10
ENDMDL
MODEL 2
REMARK VINA RESULT:      -6.5     11.589     13.616
REMARK  10 active torsions:
REMARK  status: ('A' for Active; 'I' for Inactive)
REMARK    1  A    between atoms: C_2  and  O_4 
REMARK    2  A    between atoms: C_5  and  O_4 
REMARK    3  A    between atoms: C_16  and  C_34 
REMARK    4  A    between atoms: C_21  and  N_22 
REMARK    5  A    between atoms: N_22  and  C_23 
REMARK    6  A    between atoms: N_22  and  C_26 
REMARK    7  A    between atoms: C_23  and  C_24 
REMARK    8  A    between atoms: C_26  and  C_27 
REMARK    9  A    between atoms: C_30  and  O_33 
REMARK   10  A    between atoms: C_34  and  O_35 
ROOT
HETATM    1  C   UNK N   1      27.373  24.750  -7.195  0.00  0.00     0.164 C 
HETATM    2  C   UNK N   1      26.271  25.253  -6.265  0.00  0.00     0.055 C 
HETATM    3  C   UNK N   1      26.844  26.111  -5.157  0.00  0.00     0.027 C 
HETATM    4  C   UNK N   1      27.988  25.400  -4.441  0.00  0.00     0.039 C 
HETATM    5  C   UNK N   1      29.040  26.475  -4.136  0.00  0.00     0.018 C 
HETATM    6  C   UNK N   1      28.860  27.582  -5.169  0.00  0.00     0.080 C 
HETATM    7  C   UNK N   1      27.473  27.370  -5.634  0.00  0.00     0.136 C 
HETATM    8  O   UNK N   1      26.874  28.202  -6.299  0.00  0.00    -0.297 OA
HETATM    9  C   UNK N   1      28.624  24.189  -5.130  0.00  0.00     0.006 A 
HETATM   10  C   UNK N   1      28.333  23.817  -6.418  0.00  0.00    -0.024 A 
HETATM   11  C   UNK N   1      29.019  22.537  -7.052  0.00  0.00     0.042 A 
HETATM   12  C   UNK N   1      27.972  21.542  -7.717  0.00  0.00     0.173 C 
HETATM   13  O   UNK N   1      28.348  20.208  -7.812  0.00  0.00    -0.308 OA
HETATM   14  C   UNK N   1      29.507  19.659  -7.402  0.00  0.00     0.295 C 
HETATM   15  O   UNK N   1      29.776  18.512  -7.739  0.00  0.00    -0.259 OA
HETATM   16  C   UNK N   1      30.403  20.399  -6.511  0.00  0.00     0.065 C 
HETATM   17  C   UNK N   1      31.555  19.795  -6.121  0.00  0.00     0.104 C 
HETATM   18  C   UNK N   1      29.879  21.727  -6.051  0.00  0.00     0.012 A 
HETATM   19  C   UNK N   1      30.079  22.136  -4.779  0.00  0.00     0.125 A 
HETATM   20  C   UNK N   1      29.532  23.391  -4.299  0.00  0.00     0.212 A 
HETATM   21  O   UNK N   1      29.785  23.748  -3.156  0.00  0.00    -0.285 OA
HETATM   22  C   UNK N   1      30.004  23.024  -8.117  0.00  0.00     0.028 C 
HETATM   23  C   UNK N   1      25.741  26.444  -4.169  0.00  0.00     0.024 C 
ENDROOT
BRANCH  17  24
HETATM   24  N   UNK N   1      32.615  20.389  -5.379  0.00  0.00    -0.382 N 
BRANCH  24  25
HETATM   25  C   UNK N   1      33.200  19.576  -4.338  0.00  0.00     0.149 C 
BRANCH  25  26
HETATM   26  C   UNK N   1      34.329  18.769  -4.889  0.00  0.00    -0.018 C 
HETATM   27  C   UNK N   1      34.669  17.620  -4.312  0.00  0.00     0.008 C 
ENDBRANCH  25  26
ENDBRANCH  24  25
BRANCH  24  28
HETATM   28  C   UNK N   1      33.470  21.341  -6.067  0.00  0.00     0.149 C 
BRANCH  28  29
HETATM   29  C   UNK N   1      33.813  22.536  -5.224  0.00  0.00    -0.018 C 
HETATM   30  C   UNK N   1      33.239  23.717  -5.437  0.00  0.00     0.008 C 
ENDBRANCH  28  29
ENDBRANCH  24  28
ENDBRANCH  17  24
BRANCH  19  31
HETATM   31  O   UNK N   1      30.735  21.363  -3.892  0.00  0.00    -0.356 OA
HETATM   32  H   UNK N   1      30.328  20.839  -3.231  0.00  0.00     0.218 HD
ENDBRANCH  19  31
BRANCH  12  33
HETATM   33  C   UNK N   1      27.600  21.921  -9.155  0.00  0.00     0.201 C 
BRANCH  33  34
HETATM   34  O   UNK N   1      26.570  21.104  -9.624  0.00  0.00    -0.393 OA
HETATM   35  C   UNK N   1      26.338  21.525 -10.933  0.00  0.00     0.201 C 
ENDBRANCH  33  34
ENDBRANCH  12  33
BRANCH   1  36
HETATM   36  O   UNK N   1      26.755  24.144  -8.262  0.00  0.00    -0.312 OA
BRANCH  36  37
HETATM   37  C   UNK N   1      25.651  24.615  -8.903  0.00  0.00     0.255 C 
HETATM   38  C   UNK N   1      25.655  25.929  -9.618  0.00  0.00     0.126 C 
HETATM   39  O   UNK N   1      24.628  23.951  -8.894  0.00  0.00    -0.266 OA
ENDBRANCH  36  37
ENDBRANCH   1  36
TORSDOF 10
ENDMDL
MODEL 3
REMARK VINA RESULT:      -6.3      2.927      8.257
REMARK  10 active torsions:
REMARK  status: ('A' for Active; 'I' for Inactive)
REMARK    1  A    between atoms: C_2  and  O_4 
REMARK    2  A    between atoms: C_5  and  O_4 
REMARK    3  A    between atoms: C_16  and  C_34 
REMARK    4  A    between atoms: C_21  and  N_22 
REMARK    5  A    between atoms: N_22  and  C_23 
REMARK    6  A    between atoms: N_22  and  C_26 
REMARK    7  A    between atoms: C_23  and  C_24 
REMARK    8  A    between atoms: C_26  and  C_27 
REMARK    9  A    between atoms: C_30  and  O_33 
REMARK   10  A    between atoms: C_34  and  O_35 
ROOT
HETATM    1  C   UNK N   1      31.388  15.016   5.281  0.00  0.00     0.164 C 
HETATM    2  C   UNK N   1      32.501  16.046   5.459  0.00  0.00     0.055 C 
HETATM    3  C   UNK N   1      32.430  16.693   6.826  0.00  0.00     0.027 C 
HETATM    4  C   UNK N   1      31.032  17.231   7.113  0.00  0.00     0.039 C 
HETATM    5  C   UNK N   1      30.758  16.947   8.597  0.00  0.00     0.018 C 
HETATM    6  C   UNK N   1      31.617  15.751   8.989  0.00  0.00     0.080 C 
HETATM    7  C   UNK N   1      32.670  15.752   7.951  0.00  0.00     0.136 C 
HETATM    8  O   UNK N   1      33.686  15.082   8.053  0.00  0.00    -0.297 OA
HETATM    9  C   UNK N   1      29.879  16.734   6.237  0.00  0.00     0.006 A 
HETATM   10  C   UNK N   1      30.010  15.717   5.325  0.00  0.00    -0.024 A 
HETATM   11  C   UNK N   1      28.771  15.278   4.439  0.00  0.00     0.042 A 
HETATM   12  C   UNK N   1      29.116  15.205   2.890  0.00  0.00     0.173 C 
HETATM   13  O   UNK N   1      28.057  15.362   2.003  0.00  0.00    -0.308 OA
HETATM   14  C   UNK N   1      26.763  15.569   2.312  0.00  0.00     0.295 C 
HETATM   15  O   UNK N   1      25.919  15.483   1.429  0.00  0.00    -0.259 OA
HETATM   16  C   UNK N   1      26.378  15.959   3.670  0.00  0.00     0.065 C 
HETATM   17  C   UNK N   1      25.061  16.164   3.925  0.00  0.00     0.104 C 
HETATM   18  C   UNK N   1      27.526  16.182   4.611  0.00  0.00     0.012 A 
HETATM   19  C   UNK N   1      27.492  17.199   5.499  0.00  0.00     0.125 A 
HETATM   20  C   UNK N   1      28.614  17.465   6.379  0.00  0.00     0.212 A 
HETATM   21  O   UNK N   1      28.518  18.362   7.206  0.00  0.00    -0.285 OA
HETATM   22  C   UNK N   1      28.327  13.896   4.926  0.00  0.00     0.028 C 
HETATM   23  C   UNK N   1      33.443  17.822   6.892  0.00  0.00     0.024 C 
ENDROOT
BRANCH  17  24
HETATM   24  N   UNK N   1      24.471  16.408   5.197  0.00  0.00    -0.382 N 
BRANCH  24  25
HETATM   25  C   UNK N   1      23.600  17.557   5.287  0.00  0.00     0.149 C 
BRANCH  25  26
HETATM   26  C   UNK N   1      22.318  17.181   5.954  0.00  0.00    -0.018 C 
HETATM   27  C   UNK N   1      21.426  18.119   6.260  0.00  0.00     0.008 C 
ENDBRANCH  25  26
ENDBRANCH  24  25
BRANCH  24  28
HETATM   28  C   UNK N   1      24.180  15.260   6.038  0.00  0.00     0.149 C 
BRANCH  28  29
HETATM   29  C   UNK N   1      25.262  14.979   7.041  0.00  0.00    -0.018 C 
HETATM   30  C   UNK N   1      25.273  13.851   7.745  0.00  0.00     0.008 C 
ENDBRANCH  28  29
ENDBRANCH  24  28
ENDBRANCH  17  24
BRANCH  19  31
HETATM   31  O   UNK N   1      26.444  18.044   5.554  0.00  0.00    -0.356 OA
HETATM   32  H   UNK N   1      26.149  18.582   4.846  0.00  0.00     0.218 HD
ENDBRANCH  19  31
BRANCH  12  33
HETATM   33  C   UNK N   1      29.752  13.875   2.468  0.00  0.00     0.201 C 
BRANCH  33  34
HETATM   34  O   UNK N   1      29.152  13.396   1.302  0.00  0.00    -0.393 OA
HETATM   35  C   UNK N   1      29.902  12.277   0.941  0.00  0.00     0.201 C 
ENDBRANCH  33  34
ENDBRANCH  12  33
BRANCH   1  36
HETATM   36  O   UNK N   1      31.635  14.354   4.104  0.00  0.00    -0.312 OA
BRANCH  36  37
HETATM   37  C   UNK N   1      32.777  13.675   3.807  0.00  0.00     0.255 C 
HETATM   38  C   UNK N   1      33.591  13.995   2.593  0.00  0.00     0.126 C 
HETATM   39  O   UNK N   1      33.147  12.778   4.547  0.00  0.00    -0.266 OA
ENDBRANCH  36  37
ENDBRANCH   1  36
TORSDOF 10
ENDMDL
MODEL 4
REMARK VINA RESULT:      -6.2      2.180      5.215
REMARK  10 active torsions:
REMARK  status: ('A' for Active; 'I' for Inactive)
REMARK    1  A    between atoms: C_2  and  O_4 
REMARK    2  A    between atoms: C_5  and  O_4 
REMARK    3  A    between atoms: C_16  and  C_34 
REMARK    4  A    between atoms: C_21  and  N_22 
REMARK    5  A    between atoms: N_22  and  C_23 
REMARK    6  A    between atoms: N_22  and  C_26 
REMARK    7  A    between atoms: C_23  and  C_24 
REMARK    8  A    between atoms: C_26  and  C_27 
REMARK    9  A    between atoms: C_30  and  O_33 
REMARK   10  A    between atoms: C_34  and  O_35 
ROOT
HETATM    1  C   UNK N   1      22.970  14.241   1.834  0.00  0.00     0.164 C 
HETATM    2  C   UNK N   1      21.649  13.742   2.415  0.00  0.00     0.055 C 
HETATM    3  C   UNK N   1      20.679  14.887   2.622  0.00  0.00     0.027 C 
HETATM    4  C   UNK N   1      21.320  16.020   3.415  0.00  0.00     0.039 C 
HETATM    5  C   UNK N   1      20.806  17.326   2.792  0.00  0.00     0.018 C 
HETATM    6  C   UNK N   1      20.442  17.017   1.345  0.00  0.00     0.080 C 
HETATM    7  C   UNK N   1      20.255  15.551   1.362  0.00  0.00     0.136 C 
HETATM    8  O   UNK N   1      19.727  14.950   0.438  0.00  0.00    -0.297 OA
HETATM    9  C   UNK N   1      22.846  16.035   3.540  0.00  0.00     0.006 A 
HETATM   10  C   UNK N   1      23.667  15.184   2.844  0.00  0.00    -0.024 A 
HETATM   11  C   UNK N   1      25.238  15.249   3.047  0.00  0.00     0.042 A 
HETATM   12  C   UNK N   1      25.880  13.826   3.344  0.00  0.00     0.173 C 
HETATM   13  O   UNK N   1      27.081  13.814   4.043  0.00  0.00    -0.308 OA
HETATM   14  C   UNK N   1      27.767  14.879   4.499  0.00  0.00     0.295 C 
HETATM   15  O   UNK N   1      28.908  14.719   4.915  0.00  0.00    -0.259 OA
HETATM   16  C   UNK N   1      27.133  16.197   4.559  0.00  0.00     0.065 C 
HETATM   17  C   UNK N   1      27.867  17.235   5.036  0.00  0.00     0.104 C 
HETATM   18  C   UNK N   1      25.685  16.219   4.168  0.00  0.00     0.012 A 
HETATM   19  C   UNK N   1      24.806  16.992   4.844  0.00  0.00     0.125 A 
HETATM   20  C   UNK N   1      23.393  16.985   4.516  0.00  0.00     0.212 A 
HETATM   21  O   UNK N   1      22.643  17.741   5.118  0.00  0.00    -0.285 OA
HETATM   22  C   UNK N   1      25.842  15.822   1.762  0.00  0.00     0.028 C 
HETATM   23  C   UNK N   1      19.454  14.369   3.354  0.00  0.00     0.024 C 
ENDROOT
BRANCH  17  24
HETATM   24  N   UNK N   1      27.488  18.608   5.046  0.00  0.00    -0.382 N 
BRANCH  24  25
HETATM   25  C   UNK N   1      27.833  19.357   6.232  0.00  0.00     0.149 C 
BRANCH  25  26
HETATM   26  C   UNK N   1      28.512  18.469   7.222  0.00  0.00    -0.018 C 
HETATM   27  C   UNK N   1      28.213  18.561   8.514  0.00  0.00     0.008 C 
ENDBRANCH  25  26
ENDBRANCH  24  25
BRANCH  24  28
HETATM   28  C   UNK N   1      27.462  19.311   3.775  0.00  0.00     0.149 C 
BRANCH  28  29
HETATM   29  C   UNK N   1      26.329  20.291   3.670  0.00  0.00    -0.018 C 
HETATM   30  C   UNK N   1      25.278  20.050   2.893  0.00  0.00     0.008 C 
ENDBRANCH  28  29
ENDBRANCH  24  28
ENDBRANCH  17  24
BRANCH  19  31
HETATM   31  O   UNK N   1      25.200  17.744   5.890  0.00  0.00    -0.356 OA
HETATM   32  H   UNK N   1      26.079  18.022   6.052  0.00  0.00     0.218 HD
ENDBRANCH  19  31
BRANCH  12  33
HETATM   33  C   UNK N   1      26.186  13.018   2.077  0.00  0.00     0.201 C 
BRANCH  33  34
HETATM   34  O   UNK N   1      26.632  11.738   2.410  0.00  0.00    -0.393 OA
HETATM   35  C   UNK N   1      27.442  11.347   1.345  0.00  0.00     0.201 C 
ENDBRANCH  33  34
ENDBRANCH  12  33
BRANCH   1  36
HETATM   36  O   UNK N   1      23.712  13.133   1.508  0.00  0.00    -0.312 OA
BRANCH  36  37
HETATM   37  C   UNK N   1      23.495  12.328   0.433  0.00  0.00     0.255 C 
HETATM   38  C   UNK N   1      23.270  10.856   0.583  0.00  0.00     0.126 C 
HETATM   39  O   UNK N   1      23.486  12.815  -0.685  0.00  0.00    -0.266 OA
ENDBRANCH  36  37
ENDBRANCH   1  36
TORSDOF 10
ENDMDL
MODEL 5
REMARK VINA RESULT:      -6.2     11.949     14.045
REMARK  10 active torsions:
REMARK  status: ('A' for Active; 'I' for Inactive)
REMARK    1  A    between atoms: C_2  and  O_4 
REMARK    2  A    between atoms: C_5  and  O_4 
REMARK    3  A    between atoms: C_16  and  C_34 
REMARK    4  A    between atoms: C_21  and  N_22 
REMARK    5  A    between atoms: N_22  and  C_23 
REMARK    6  A    between atoms: N_22  and  C_26 
REMARK    7  A    between atoms: C_23  and  C_24 
REMARK    8  A    between atoms: C_26  and  C_27 
REMARK    9  A    between atoms: C_30  and  O_33 
REMARK   10  A    between atoms: C_34  and  O_35 
ROOT
HETATM    1  C   UNK N   1      28.142  27.093  -5.625  0.00  0.00     0.164 C 
HETATM    2  C   UNK N   1      27.269  27.237  -6.870  0.00  0.00     0.055 C 
HETATM    3  C   UNK N   1      26.287  26.090  -6.982  0.00  0.00     0.027 C 
HETATM    4  C   UNK N   1      26.994  24.743  -6.870  0.00  0.00     0.039 C 
HETATM    5  C   UNK N   1      26.063  23.835  -6.053  0.00  0.00     0.018 C 
HETATM    6  C   UNK N   1      25.206  24.744  -5.181  0.00  0.00     0.080 C 
HETATM    7  C   UNK N   1      25.289  26.042  -5.883  0.00  0.00     0.136 C 
HETATM    8  O   UNK N   1      24.543  26.974  -5.621  0.00  0.00    -0.297 OA
HETATM    9  C   UNK N   1      28.416  24.724  -6.302  0.00  0.00     0.006 A 
HETATM   10  C   UNK N   1      29.018  25.823  -5.741  0.00  0.00    -0.024 A 
HETATM   11  C   UNK N   1      30.503  25.726  -5.196  0.00  0.00     0.042 A 
HETATM   12  C   UNK N   1      31.438  26.888  -5.744  0.00  0.00     0.173 C 
HETATM   13  O   UNK N   1      32.802  26.627  -5.788  0.00  0.00    -0.308 OA
HETATM   14  C   UNK N   1      33.425  25.493  -5.415  0.00  0.00     0.295 C 
HETATM   15  O   UNK N   1      34.646  25.488  -5.319  0.00  0.00    -0.259 OA
HETATM   16  C   UNK N   1      32.659  24.266  -5.192  0.00  0.00     0.065 C 
HETATM   17  C   UNK N   1      33.338  23.148  -4.826  0.00  0.00     0.104 C 
HETATM   18  C   UNK N   1      31.194  24.373  -5.497  0.00  0.00     0.012 A 
HETATM   19  C   UNK N   1      30.545  23.352  -6.100  0.00  0.00     0.125 A 
HETATM   20  C   UNK N   1      29.142  23.458  -6.453  0.00  0.00     0.212 A 
HETATM   21  O   UNK N   1      28.582  22.489  -6.946  0.00  0.00    -0.285 OA
HETATM   22  C   UNK N   1      30.436  25.805  -3.668  0.00  0.00     0.028 C 
HETATM   23  C   UNK N   1      25.564  26.187  -8.313  0.00  0.00     0.024 C 
ENDROOT
BRANCH  17  24
HETATM   24  N   UNK N   1      32.772  21.904  -4.429  0.00  0.00    -0.382 N 
BRANCH  24  25
HETATM   25  C   UNK N   1      33.354  20.721  -5.019  0.00  0.00     0.149 C 
BRANCH  25  26
HETATM   26  C   UNK N   1      34.113  19.951  -3.989  0.00  0.00    -0.018 C 
HETATM   27  C   UNK N   1      34.184  18.626  -4.066  0.00  0.00     0.008 C 
ENDBRANCH  25  26
ENDBRANCH  24  25
BRANCH  24  28
HETATM   28  C   UNK N   1      32.233  21.804  -3.084  0.00  0.00     0.149 C 
BRANCH  28  29
HETATM   29  C   UNK N   1      30.751  21.562  -3.062  0.00  0.00    -0.018 C 
HETATM   30  C   UNK N   1      29.913  22.465  -2.563  0.00  0.00     0.008 C 
ENDBRANCH  28  29
ENDBRANCH  24  28
ENDBRANCH  17  24
BRANCH  19  31
HETATM   31  O   UNK N   1      31.194  22.226  -6.455  0.00  0.00    -0.356 OA
HETATM   32  H   UNK N   1      31.271  21.459  -5.923  0.00  0.00     0.218 HD
ENDBRANCH  19  31
BRANCH  12  33
HETATM   33  C   UNK N   1      31.339  28.185  -4.932  0.00  0.00     0.201 C 
BRANCH  33  34
HETATM   34  O   UNK N   1      32.003  29.223  -5.588  0.00  0.00    -0.393 OA
HETATM   35  C   UNK N   1      32.198  30.202  -4.615  0.00  0.00     0.201 C 
ENDBRANCH  33  34
ENDBRANCH  12  33
BRANCH   1  36
HETATM   36  O   UNK N   1      28.864  28.254  -5.502  0.00  0.00    -0.312 OA
BRANCH  36  37
HETATM   37  C   UNK N   1      28.336  29.506  -5.425  0.00  0.00     0.255 C 
HETATM   38  C   UNK N   1      27.289  29.858  -4.416  0.00  0.00     0.126 C 
HETATM   39  O   UNK N   1      28.722  30.365  -6.200  0.00  0.00    -0.266 OA
ENDBRANCH  36  37
ENDBRANCH   1  36
TORSDOF 10
ENDMDL
MODEL 6
REMARK VINA RESULT:      -6.1     12.021     14.198
REMARK  10 active torsions:
REMARK  status: ('A' for Active; 'I' for Inactive)
REMARK    1  A    between atoms: C_2  and  O_4 
REMARK    2  A    between atoms: C_5  and  O_4 
REMARK    3  A    between atoms: C_16  and  C_34 
REMARK    4  A    between atoms: C_21  and  N_22 
REMARK    5  A    between atoms: N_22  and  C_23 
REMARK    6  A    between atoms: N_22  and  C_26 
REMARK    7  A    between atoms: C_23  and  C_24 
REMARK    8  A    between atoms: C_26  and  C_27 
REMARK    9  A    between atoms: C_30  and  O_33 
REMARK   10  A    between atoms: C_34  and  O_35 
ROOT
HETATM    1  C   UNK N   1      29.569  21.477  -6.626  0.00  0.00     0.164 C 
HETATM    2  C   UNK N   1      31.055  21.230  -6.873  0.00  0.00     0.055 C 
HETATM    3  C   UNK N   1      31.875  21.577  -5.647  0.00  0.00     0.027 C 
HETATM    4  C   UNK N   1      31.551  22.980  -5.143  0.00  0.00     0.039 C 
HETATM    5  C   UNK N   1      31.568  22.900  -3.610  0.00  0.00     0.018 C 
HETATM    6  C   UNK N   1      31.253  21.458  -3.234  0.00  0.00     0.080 C 
HETATM    7  C   UNK N   1      31.590  20.718  -4.469  0.00  0.00     0.136 C 
HETATM    8  O   UNK N   1      31.694  19.501  -4.493  0.00  0.00    -0.297 OA
HETATM    9  C   UNK N   1      30.265  23.643  -5.645  0.00  0.00     0.006 A 
HETATM   10  C   UNK N   1      29.317  22.984  -6.386  0.00  0.00    -0.024 A 
HETATM   11  C   UNK N   1      28.023  23.750  -6.886  0.00  0.00     0.042 A 
HETATM   12  C   UNK N   1      27.756  23.559  -8.441  0.00  0.00     0.173 C 
HETATM   13  O   UNK N   1      27.025  24.554  -9.079  0.00  0.00    -0.308 OA
HETATM   14  C   UNK N   1      26.513  25.669  -8.523  0.00  0.00     0.295 C 
HETATM   15  O   UNK N   1      25.720  26.345  -9.167  0.00  0.00    -0.259 OA
HETATM   16  C   UNK N   1      26.949  26.102  -7.195  0.00  0.00     0.065 C 
HETATM   17  C   UNK N   1      26.408  27.239  -6.686  0.00  0.00     0.104 C 
HETATM   18  C   UNK N   1      28.039  25.269  -6.586  0.00  0.00     0.012 A 
HETATM   19  C   UNK N   1      29.037  25.855  -5.889  0.00  0.00     0.125 A 
HETATM   20  C   UNK N   1      30.129  25.073  -5.340  0.00  0.00     0.212 A 
HETATM   21  O   UNK N   1      30.982  25.637  -4.669  0.00  0.00    -0.285 OA
HETATM   22  C   UNK N   1      26.832  23.203  -6.094  0.00  0.00     0.028 C 
HETATM   23  C   UNK N   1      33.349  21.480  -5.996  0.00  0.00     0.024 C 
ENDROOT
BRANCH  17  24
HETATM   24  N   UNK N   1      26.591  27.749  -5.369  0.00  0.00    -0.382 N 
BRANCH  24  25
HETATM   25  C   UNK N   1      26.976  29.138  -5.271  0.00  0.00     0.149 C 
BRANCH  25  26
HETATM   26  C   UNK N   1      26.365  29.757  -4.057  0.00  0.00    -0.018 C 
HETATM   27  C   UNK N   1      26.499  31.061  -3.836  0.00  0.00     0.008 C 
ENDBRANCH  25  26
ENDBRANCH  24  25
BRANCH  24  28
HETATM   28  C   UNK N   1      25.774  27.188  -4.307  0.00  0.00     0.149 C 
BRANCH  28  29
HETATM   29  C   UNK N   1      26.580  26.453  -3.275  0.00  0.00    -0.018 C 
HETATM   30  C   UNK N   1      26.612  25.124  -3.243  0.00  0.00     0.008 C 
ENDBRANCH  28  29
ENDBRANCH  24  28
ENDBRANCH  17  24
BRANCH  19  31
HETATM   31  O   UNK N   1      29.091  27.192  -5.737  0.00  0.00    -0.356 OA
HETATM   32  H   UNK N   1      28.618  27.679  -5.092  0.00  0.00     0.218 HD
ENDBRANCH  19  31
BRANCH  12  33
HETATM   33  C   UNK N   1      26.992  22.273  -8.775  0.00  0.00     0.201 C 
BRANCH  33  34
HETATM   34  O   UNK N   1      26.181  22.464  -9.895  0.00  0.00    -0.393 OA
HETATM   35  C   UNK N   1      26.581  21.486 -10.806  0.00  0.00     0.201 C 
ENDBRANCH  33  34
ENDBRANCH  12  33
BRANCH   1  36
HETATM   36  O   UNK N   1      28.890  20.967  -7.705  0.00  0.00    -0.312 OA
BRANCH  36  37
HETATM   37  C   UNK N   1      29.222  19.833  -8.380  0.00  0.00     0.255 C 
HETATM   38  C   UNK N   1      29.169  18.486  -7.731  0.00  0.00     0.126 C 
HETATM   39  O   UNK N   1      29.577  19.913  -9.544  0.00  0.00    -0.266 OA
ENDBRANCH  36  37
ENDBRANCH   1  36
TORSDOF 10
ENDMDL
MODEL 7
REMARK VINA RESULT:      -6.1      3.979      7.749
REMARK  10 active torsions:
REMARK  status: ('A' for Active; 'I' for Inactive)
REMARK    1  A    between atoms: C_2  and  O_4 
REMARK    2  A    between atoms: C_5  and  O_4 
REMARK    3  A    between atoms: C_16  and  C_34 
REMARK    4  A    between atoms: C_21  and  N_22 
REMARK    5  A    between atoms: N_22  and  C_23 
REMARK    6  A    between atoms: N_22  and  C_26 
REMARK    7  A    between atoms: C_23  and  C_24 
REMARK    8  A    between atoms: C_26  and  C_27 
REMARK    9  A    between atoms: C_30  and  O_33 
REMARK   10  A    between atoms: C_34  and  O_35 
ROOT
HETATM    1  C   UNK N   1      29.460  16.804   6.637  0.00  0.00     0.164 C 
HETATM    2  C   UNK N   1      28.771  18.107   6.236  0.00  0.00     0.055 C 
HETATM    3  C   UNK N   1      27.997  17.938   4.946  0.00  0.00     0.027 C 
HETATM    4  C   UNK N   1      28.871  17.333   3.851  0.00  0.00     0.039 C 
HETATM    5  C   UNK N   1      27.973  16.362   3.072  0.00  0.00     0.018 C 
HETATM    6  C   UNK N   1      26.870  15.912   4.022  0.00  0.00     0.080 C 
HETATM    7  C   UNK N   1      26.864  16.982   5.043  0.00  0.00     0.136 C 
HETATM    8  O   UNK N   1      25.958  17.105   5.853  0.00  0.00    -0.297 OA
HETATM    9  C   UNK N   1      30.179  16.656   4.270  0.00  0.00     0.006 A 
HETATM   10  C   UNK N   1      30.521  16.423   5.578  0.00  0.00    -0.024 A 
HETATM   11  C   UNK N   1      31.906  15.736   5.928  0.00  0.00     0.042 A 
HETATM   12  C   UNK N   1      32.730  16.536   7.026  0.00  0.00     0.173 C 
HETATM   13  O   UNK N   1      34.109  16.364   7.025  0.00  0.00    -0.308 OA
HETATM   14  C   UNK N   1      34.830  15.589   6.192  0.00  0.00     0.295 C 
HETATM   15  O   UNK N   1      36.011  15.381   6.444  0.00  0.00    -0.259 OA
HETATM   16  C   UNK N   1      34.229  15.059   4.967  0.00  0.00     0.065 C 
HETATM   17  C   UNK N   1      35.004  14.291   4.158  0.00  0.00     0.104 C 
HETATM   18  C   UNK N   1      32.827  15.521   4.701  0.00  0.00     0.012 A 
HETATM   19  C   UNK N   1      32.434  15.823   3.445  0.00  0.00     0.125 A 
HETATM   20  C   UNK N   1      31.099  16.324   3.176  0.00  0.00     0.212 A 
HETATM   21  O   UNK N   1      30.768  16.532   2.016  0.00  0.00    -0.285 OA
HETATM   22  C   UNK N   1      31.601  14.328   6.447  0.00  0.00     0.028 C 
HETATM   23  C   UNK N   1      27.475  19.293   4.502  0.00  0.00     0.024 C 
ENDROOT
BRANCH  17  24
HETATM   24  N   UNK N   1      34.575  13.572   3.006  0.00  0.00    -0.382 N 
BRANCH  24  25
HETATM   25  C   UNK N   1      35.442  13.640   1.852  0.00  0.00     0.149 C 
BRANCH  25  26
HETATM   26  C   UNK N   1      36.788  13.088   2.187  0.00  0.00    -0.018 C 
HETATM   27  C   UNK N   1      37.858  13.479   1.500  0.00  0.00     0.008 C 
ENDBRANCH  25  26
ENDBRANCH  24  25
BRANCH  24  28
HETATM   28  C   UNK N   1      33.806  12.358   3.214  0.00  0.00     0.149 C 
BRANCH  28  29
HETATM   29  C   UNK N   1      32.474  12.383   2.522  0.00  0.00    -0.018 C 
HETATM   30  C   UNK N   1      31.337  12.365   3.212  0.00  0.00     0.008 C 
ENDBRANCH  28  29
ENDBRANCH  24  28
ENDBRANCH  17  24
BRANCH  19  31
HETATM   31  O   UNK N   1      33.287  15.735   2.407  0.00  0.00    -0.356 OA
HETATM   32  H   UNK N   1      34.096  15.264   2.414  0.00  0.00     0.218 HD
ENDBRANCH  19  31
BRANCH  12  33
HETATM   33  C   UNK N   1      32.321  16.196   8.464  0.00  0.00     0.201 C 
BRANCH  33  34
HETATM   34  O   UNK N   1      33.440  16.173   9.298  0.00  0.00    -0.393 OA
HETATM   35  C   UNK N   1      33.376  14.948   9.961  0.00  0.00     0.201 C 
ENDBRANCH  33  34
ENDBRANCH  12  33
BRANCH   1  36
HETATM   36  O   UNK N   1      29.976  16.991   7.895  0.00  0.00    -0.312 OA
BRANCH  36  37
HETATM   37  C   UNK N   1      29.310  17.542   8.946  0.00  0.00     0.255 C 
HETATM   38  C   UNK N   1      29.850  18.721   9.692  0.00  0.00     0.126 C 
HETATM   39  O   UNK N   1      28.244  17.061   9.295  0.00  0.00    -0.266 OA
ENDBRANCH  36  37
ENDBRANCH   1  36
TORSDOF 10
ENDMDL
MODEL 8
REMARK VINA RESULT:      -6.0     12.456     14.562
REMARK  10 active torsions:
REMARK  status: ('A' for Active; 'I' for Inactive)
REMARK    1  A    between atoms: C_2  and  O_4 
REMARK    2  A    between atoms: C_5  and  O_4 
REMARK    3  A    between atoms: C_16  and  C_34 
REMARK    4  A    between atoms: C_21  and  N_22 
REMARK    5  A    between atoms: N_22  and  C_23 
REMARK    6  A    between atoms: N_22  and  C_26 
REMARK    7  A    between atoms: C_23  and  C_24 
REMARK    8  A    between atoms: C_26  and  C_27 
REMARK    9  A    between atoms: C_30  and  O_33 
REMARK   10  A    between atoms: C_34  and  O_35 
ROOT
HETATM    1  C   UNK N   1      28.345  24.351  -5.526  0.00  0.00     0.164 C 
HETATM    2  C   UNK N   1      28.251  23.952  -4.055  0.00  0.00     0.055 C 
HETATM    3  C   UNK N   1      29.563  23.379  -3.562  0.00  0.00     0.027 C 
HETATM    4  C   UNK N   1      30.060  22.266  -4.479  0.00  0.00     0.039 C 
HETATM    5  C   UNK N   1      31.584  22.428  -4.565  0.00  0.00     0.018 C 
HETATM    6  C   UNK N   1      31.894  23.894  -4.287  0.00  0.00     0.080 C 
HETATM    7  C   UNK N   1      30.686  24.351  -3.568  0.00  0.00     0.136 C 
HETATM    8  O   UNK N   1      30.648  25.415  -2.969  0.00  0.00    -0.297 OA
HETATM    9  C   UNK N   1      29.440  22.156  -5.875  0.00  0.00     0.006 A 
HETATM   10  C   UNK N   1      28.590  23.097  -6.397  0.00  0.00    -0.024 A 
HETATM   11  C   UNK N   1      27.972  22.897  -7.843  0.00  0.00     0.042 A 
HETATM   12  C   UNK N   1      26.394  23.082  -7.871  0.00  0.00     0.173 C 
HETATM   13  O   UNK N   1      25.704  22.435  -8.889  0.00  0.00    -0.308 OA
HETATM   14  C   UNK N   1      26.226  21.664  -9.861  0.00  0.00     0.295 C 
HETATM   15  O   UNK N   1      25.516  21.331 -10.803  0.00  0.00    -0.259 OA
HETATM   16  C   UNK N   1      27.602  21.174  -9.761  0.00  0.00     0.065 C 
HETATM   17  C   UNK N   1      28.075  20.393 -10.765  0.00  0.00     0.104 C 
HETATM   18  C   UNK N   1      28.304  21.526  -8.482  0.00  0.00     0.012 A 
HETATM   19  C   UNK N   1      29.115  20.628  -7.880  0.00  0.00     0.125 A 
HETATM   20  C   UNK N   1      29.759  20.929  -6.615  0.00  0.00     0.212 A 
HETATM   21  O   UNK N   1      30.529  20.109  -6.133  0.00  0.00    -0.285 OA
HETATM   22  C   UNK N   1      28.622  23.931  -8.766  0.00  0.00     0.028 C 
HETATM   23  C   UNK N   1      29.370  22.843  -2.155  0.00  0.00     0.024 C 
ENDROOT
BRANCH  17  24
HETATM   24  N   UNK N   1      29.414  19.936 -10.925  0.00  0.00    -0.382 N 
BRANCH  24  25
HETATM   25  C   UNK N   1      29.575  18.614 -11.485  0.00  0.00     0.149 C 
BRANCH  25  26
HETATM   26  C   UNK N   1      30.959  18.113 -11.233  0.00  0.00    -0.018 C 
HETATM   27  C   UNK N   1      31.166  17.153 -10.336  0.00  0.00     0.008 C 
ENDBRANCH  25  26
ENDBRANCH  24  25
BRANCH  24  28
HETATM   28  C   UNK N   1      30.438  20.928 -11.204  0.00  0.00     0.149 C 
BRANCH  28  29
HETATM   29  C   UNK N   1      30.058  21.866 -12.314  0.00  0.00    -0.018 C 
HETATM   30  C   UNK N   1      30.122  23.184 -12.155  0.00  0.00     0.008 C 
ENDBRANCH  28  29
ENDBRANCH  24  28
ENDBRANCH  17  24
BRANCH  19  31
HETATM   31  O   UNK N   1      29.301  19.399  -8.396  0.00  0.00    -0.356 OA
HETATM   32  H   UNK N   1      29.611  18.655  -7.919  0.00  0.00     0.218 HD
ENDBRANCH  19  31
BRANCH  12  33
HETATM   33  C   UNK N   1      25.954  24.545  -8.003  0.00  0.00     0.201 C 
BRANCH  33  34
HETATM   34  O   UNK N   1      25.155  24.713  -9.135  0.00  0.00    -0.393 OA
HETATM   35  C   UNK N   1      25.559  25.929  -9.687  0.00  0.00     0.201 C 
ENDBRANCH  33  34
ENDBRANCH  12  33
BRANCH   1  36
HETATM   36  O   UNK N   1      27.190  25.025  -5.836  0.00  0.00    -0.312 OA
BRANCH  36  37
HETATM   37  C   UNK N   1      26.903  26.305  -5.475  0.00  0.00     0.255 C 
HETATM   38  C   UNK N   1      25.521  26.723  -5.085  0.00  0.00     0.126 C 
HETATM   39  O   UNK N   1      27.795  27.138  -5.473  0.00  0.00    -0.266 OA
ENDBRANCH  36  37
ENDBRANCH   1  36
TORSDOF 10
ENDMDL
MODEL 9
REMARK VINA RESULT:      -5.9      7.184     11.585
REMARK  10 active torsions:
REMARK  status: ('A' for Active; 'I' for Inactive)
REMARK    1  A    between atoms: C_2  and  O_4 
REMARK    2  A    between atoms: C_5  and  O_4 
REMARK    3  A    between atoms: C_16  and  C_34 
REMARK    4  A    between atoms: C_21  and  N_22 
REMARK    5  A    between atoms: N_22  and  C_23 
REMARK    6  A    between atoms: N_22  and  C_26 
REMARK    7  A    between atoms: C_23  and  C_24 
REMARK    8  A    between atoms: C_26  and  C_27 
REMARK    9  A    between atoms: C_30  and  O_33 
REMARK   10  A    between atoms: C_34  and  O_35 
ROOT
HETATM    1  C   UNK N   1      32.771  14.109   6.830  0.00  0.00     0.164 C 
HETATM    2  C   UNK N   1      31.577  15.016   7.120  0.00  0.00     0.055 C 
HETATM    3  C   UNK N   1      32.031  16.358   7.654  0.00  0.00     0.027 C 
HETATM    4  C   UNK N   1      32.987  16.192   8.830  0.00  0.00     0.039 C 
HETATM    5  C   UNK N   1      34.056  17.282   8.673  0.00  0.00     0.018 C 
HETATM    6  C   UNK N   1      34.129  17.626   7.190  0.00  0.00     0.080 C 
HETATM    7  C   UNK N   1      32.822  17.157   6.683  0.00  0.00     0.136 C 
HETATM    8  O   UNK N   1      32.403  17.466   5.578  0.00  0.00    -0.297 OA
HETATM    9  C   UNK N   1      33.630  14.819   9.044  0.00  0.00     0.006 A 
HETATM   10  C   UNK N   1      33.521  13.788   8.145  0.00  0.00    -0.024 A 
HETATM   11  C   UNK N   1      34.199  12.388   8.451  0.00  0.00     0.042 A 
HETATM   12  C   UNK N   1      33.199  11.167   8.271  0.00  0.00     0.173 C 
HETATM   13  O   UNK N   1      33.481  10.013   8.992  0.00  0.00    -0.308 OA
HETATM   14  C   UNK N   1      34.515   9.812   9.831  0.00  0.00     0.295 C 
HETATM   15  O   UNK N   1      34.745   8.678  10.233  0.00  0.00    -0.259 OA
HETATM   16  C   UNK N   1      35.311  10.944  10.310  0.00  0.00     0.065 C 
HETATM   17  C   UNK N   1      36.336  10.687  11.163  0.00  0.00     0.104 C 
HETATM   18  C   UNK N   1      34.823  12.291   9.865  0.00  0.00     0.012 A 
HETATM   19  C   UNK N   1      34.848  13.342  10.714  0.00  0.00     0.125 A 
HETATM   20  C   UNK N   1      34.330  14.638  10.321  0.00  0.00     0.212 A 
HETATM   21  O   UNK N   1      34.424  15.575  11.102  0.00  0.00    -0.285 OA
HETATM   22  C   UNK N   1      35.376  12.229   7.486  0.00  0.00     0.028 C 
HETATM   23  C   UNK N   1      30.812  17.155   8.085  0.00  0.00     0.024 C 
ENDROOT
BRANCH  17  24
HETATM   24  N   UNK N   1      37.307  11.619  11.628  0.00  0.00    -0.382 N 
BRANCH  24  25
HETATM   25  C   UNK N   1      37.606  11.576  13.040  0.00  0.00     0.149 C 
BRANCH  25  26
HETATM   26  C   UNK N   1      37.613  10.163  13.523  0.00  0.00    -0.018 C 
HETATM   27  C   UNK N   1      38.498   9.775  14.436  0.00  0.00     0.008 C 
ENDBRANCH  25  26
ENDBRANCH  24  25
BRANCH  24  28
HETATM   28  C   UNK N   1      38.368  12.003  10.713  0.00  0.00     0.149 C 
BRANCH  28  29
HETATM   29  C   UNK N   1      38.393  13.477  10.431  0.00  0.00    -0.018 C 
HETATM   30  C   UNK N   1      38.262  13.944   9.193  0.00  0.00     0.008 C 
ENDBRANCH  28  29
ENDBRANCH  24  28
ENDBRANCH  17  24
BRANCH  19  31
HETATM   31  O   UNK N   1      35.293  13.206  11.979  0.00  0.00    -0.356 OA
HETATM   32  H   UNK N   1      34.800  12.841  12.686  0.00  0.00     0.218 HD
ENDBRANCH  19  31
BRANCH  12  33
HETATM   33  C   UNK N   1      33.091  10.675   6.822  0.00  0.00     0.201 C 
BRANCH  33  34
HETATM   34  O   UNK N   1      32.722   9.330   6.790  0.00  0.00    -0.393 OA
HETATM   35  C   UNK N   1      31.553   9.291   6.030  0.00  0.00     0.201 C 
ENDBRANCH  33  34
ENDBRANCH  12  33
BRANCH   1  36
HETATM   36  O   UNK N   1      32.288  12.999   6.183  0.00  0.00    -0.312 OA
BRANCH  36  37
HETATM   37  C   UNK N   1      31.587  13.010   5.016  0.00  0.00     0.255 C 
HETATM   38  C   UNK N   1      32.148  13.612   3.766  0.00  0.00     0.126 C 
HETATM   39  O   UNK N   1      30.470  12.521   4.986  0.00  0.00    -0.266 OA
ENDBRANCH  36  37
ENDBRANCH   1  36
TORSDOF 10
ENDMDL
