MODEL 1
REMARK VINA RESULT:      -7.9      0.000      0.000
REMARK  4 active torsions:
REMARK  status: ('A' for Active; 'I' for Inactive)
REMARK    1  A    between atoms: C_6  and  C_7 
REMARK    2  A    between atoms: C_14  and  C_17 
REMARK       I    between atoms: C_17  and  N_19 
REMARK    3  A    between atoms: N_19  and  C_20 
REMARK    4  A    between atoms: C_20  and  C_21 
ROOT
HETATM    1  C   UNK N   1      26.248  26.379  -6.553  0.00  0.00    -0.011 C 
HETATM    2  C   UNK N   1      25.025  27.103  -5.947  0.00  0.00     0.019 C 
HETATM    3  C   UNK N   1      25.414  27.758  -4.602  0.00  0.00    -0.012 C 
HETATM    4  C   UNK N   1      26.547  28.769  -4.838  0.00  0.00     0.009 C 
HETATM    5  C   UNK N   1      27.771  28.056  -5.439  0.00  0.00    -0.012 C 
HETATM    6  C   UNK N   1      27.371  27.411  -6.781  0.00  0.00     0.019 C 
HETATM    7  C   UNK N   1      28.261  26.957  -4.470  0.00  0.00     0.024 C 
HETATM    8  C   UNK N   1      27.130  25.942  -4.217  0.00  0.00     0.043 C 
HETATM    9  C   UNK N   1      25.912  26.679  -3.619  0.00  0.00     0.024 C 
HETATM   10  C   UNK N   1      26.708  25.338  -5.544  0.00  0.00     0.033 C 
ENDROOT
BRANCH   8  11
HETATM   11  C   UNK N   1      27.577  24.763  -3.391  0.00  0.00     0.226 C 
HETATM   12  O   UNK N   1      26.756  24.087  -2.781  0.00  0.00    -0.273 OA
HETATM   13  N   UNK N   1      28.876  24.369  -3.453  0.00  0.00    -0.356 N 
HETATM   14  H   UNK N   1      29.535  24.965  -3.875  0.00  0.00     0.162 HD
BRANCH  13  15
HETATM   15  C   UNK N   1      29.317  23.102  -2.919  0.00  0.00     0.161 C 
BRANCH  15  16
HETATM   16  C   UNK N   1      29.906  22.232  -4.003  0.00  0.00    -0.038 A 
HETATM   17  C   UNK N   1      30.795  21.215  -3.651  0.00  0.00     0.025 A 
HETATM   18  C   UNK N   1      31.321  20.380  -4.641  0.00  0.00     0.088 A 
HETATM   19  N   UNK N   1      30.971  20.558  -5.944  0.00  0.00    -0.375 N 
HETATM   20  C   UNK N   1      30.112  21.545  -6.318  0.00  0.00     0.088 A 
ATOM     21  HN  UNK N   1      31.363  19.940  -6.655  1.00  0.00     0.164 HD
HETATM   22  C   UNK N   1      29.561  22.396  -5.356  0.00  0.00     0.025 A 
ENDBRANCH  15  16
ENDBRANCH  13  15
ENDBRANCH   8  11
BRANCH   1  23
HETATM   23  C   UNK N   1      25.959  25.563  -7.791  0.00  0.00    -0.049 A 
HETATM   24  C   UNK N   1      25.883  24.162  -7.746  0.00  0.00     0.009 A 
HETATM   25  C   UNK N   1      25.826  23.425  -8.935  0.00  0.00     0.024 A 
HETATM   26  C   UNK N   1      25.848  24.081 -10.171  0.00  0.00     0.034 A 
HETATM   27  C   UNK N   1      25.889  25.474 -10.223  0.00  0.00     0.024 A 
HETATM   28 Cl   UNK N   1      25.868  23.159 -11.657  0.00  0.00    -0.084 Cl
HETATM   29  C   UNK N   1      25.947  26.210  -9.042  0.00  0.00     0.009 A 
ENDBRANCH   1  23
TORSDOF 4
ENDMDL
MODEL 2
REMARK VINA RESULT:      -7.8     17.673     22.183
REMARK  4 active torsions:
REMARK  status: ('A' for Active; 'I' for Inactive)
REMARK    1  A    between atoms: C_6  and  C_7 
REMARK    2  A    between atoms: C_14  and  C_17 
REMARK       I    between atoms: C_17  and  N_19 
REMARK    3  A    between atoms: N_19  and  C_20 
REMARK    4  A    between atoms: C_20  and  C_21 
ROOT
HETATM    1  C   UNK N   1      35.801  13.234  12.300  0.00  0.00    -0.011 C 
HETATM    2  C   UNK N   1      35.002  12.145  11.549  0.00  0.00     0.019 C 
HETATM    3  C   UNK N   1      35.196  12.306  10.024  0.00  0.00    -0.012 C 
HETATM    4  C   UNK N   1      36.689  12.177   9.685  0.00  0.00     0.009 C 
HETATM    5  C   UNK N   1      37.492  13.260  10.426  0.00  0.00    -0.012 C 
HETATM    6  C   UNK N   1      37.294  13.086  11.945  0.00  0.00     0.019 C 
HETATM    7  C   UNK N   1      36.992  14.660  10.003  0.00  0.00     0.024 C 
HETATM    8  C   UNK N   1      35.493  14.798  10.329  0.00  0.00     0.043 C 
HETATM    9  C   UNK N   1      34.708  13.700   9.580  0.00  0.00     0.024 C 
HETATM   10  C   UNK N   1      35.293  14.585  11.819  0.00  0.00     0.033 C 
ENDROOT
BRANCH   8  11
HETATM   11  C   UNK N   1      34.965  16.187  10.073  0.00  0.00     0.226 C 
HETATM   12  O   UNK N   1      35.613  17.169  10.419  0.00  0.00    -0.273 OA
HETATM   13  N   UNK N   1      33.844  16.339   9.321  0.00  0.00    -0.356 N 
HETATM   14  H   UNK N   1      33.292  15.548   9.122  0.00  0.00     0.162 HD
BRANCH  13  15
HETATM   15  C   UNK N   1      33.437  17.625   8.805  0.00  0.00     0.161 C 
BRANCH  15  16
HETATM   16  C   UNK N   1      32.830  17.488   7.429  0.00  0.00    -0.038 A 
HETATM   17  C   UNK N   1      33.660  17.573   6.309  0.00  0.00     0.025 A 
HETATM   18  C   UNK N   1      33.118  17.414   5.031  0.00  0.00     0.088 A 
HETATM   19  N   UNK N   1      31.786  17.180   4.876  0.00  0.00    -0.375 N 
HETATM   20  C   UNK N   1      30.952  17.098   5.948  0.00  0.00     0.088 A 
ATOM     21  HN  UNK N   1      31.405  17.066   3.936  1.00  0.00     0.164 HD
HETATM   22  C   UNK N   1      31.458  17.247   7.242  0.00  0.00     0.025 A 
ENDBRANCH  15  16
ENDBRANCH  13  15
ENDBRANCH   8  11
BRANCH   1  23
HETATM   23  C   UNK N   1      35.568  13.284  13.791  0.00  0.00    -0.049 A 
HETATM   24  C   UNK N   1      36.421  14.001  14.645  0.00  0.00     0.009 A 
HETATM   25  C   UNK N   1      36.307  13.857  16.033  0.00  0.00     0.024 A 
HETATM   26  C   UNK N   1      35.345  12.998  16.573  0.00  0.00     0.034 A 
HETATM   27  C   UNK N   1      34.470  12.309  15.733  0.00  0.00     0.024 A 
HETATM   28 Cl   UNK N   1      35.259  12.748  18.302  0.00  0.00    -0.084 Cl
HETATM   29  C   UNK N   1      34.582  12.449  14.352  0.00  0.00     0.009 A 
ENDBRANCH   1  23
TORSDOF 4
ENDMDL
MODEL 3
REMARK VINA RESULT:      -7.7     13.172     16.553
REMARK  4 active torsions:
REMARK  status: ('A' for Active; 'I' for Inactive)
REMARK    1  A    between atoms: C_6  and  C_7 
REMARK    2  A    between atoms: C_14  and  C_17 
REMARK       I    between atoms: C_17  and  N_19 
REMARK    3  A    between atoms: N_19  and  C_20 
REMARK    4  A    between atoms: C_20  and  C_21 
ROOT
HETATM    1  C   UNK N   1      30.312  16.775   5.277  0.00  0.00    -0.011 C 
HETATM    2  C   UNK N   1      30.749  16.814   3.796  0.00  0.00     0.019 C 
HETATM    3  C   UNK N   1      31.961  15.879   3.580  0.00  0.00    -0.012 C 
HETATM    4  C   UNK N   1      31.571  14.444   3.965  0.00  0.00     0.009 C 
HETATM    5  C   UNK N   1      31.137  14.394   5.441  0.00  0.00    -0.012 C 
HETATM    6  C   UNK N   1      29.926  15.328   5.642  0.00  0.00     0.019 C 
HETATM    7  C   UNK N   1      32.300  14.867   6.341  0.00  0.00     0.024 C 
HETATM    8  C   UNK N   1      32.708  16.302   5.958  0.00  0.00     0.043 C 
HETATM    9  C   UNK N   1      33.134  16.328   4.474  0.00  0.00     0.024 C 
HETATM   10  C   UNK N   1      31.503  17.212   6.117  0.00  0.00     0.033 C 
ENDROOT
BRANCH   8  11
HETATM   11  C   UNK N   1      33.744  16.883   6.886  0.00  0.00     0.226 C 
HETATM   12  O   UNK N   1      34.351  17.902   6.576  0.00  0.00    -0.273 OA
HETATM   13  N   UNK N   1      33.886  16.354   8.129  0.00  0.00    -0.356 N 
HETATM   14  H   UNK N   1      33.457  15.492   8.333  0.00  0.00     0.162 HD
BRANCH  13  15
HETATM   15  C   UNK N   1      34.648  17.018   9.161  0.00  0.00     0.161 C 
BRANCH  15  16
HETATM   16  C   UNK N   1      35.358  16.017  10.040  0.00  0.00    -0.038 A 
HETATM   17  C   UNK N   1      36.050  14.960   9.444  0.00  0.00     0.025 A 
HETATM   18  C   UNK N   1      36.741  14.045  10.244  0.00  0.00     0.088 A 
HETATM   19  N   UNK N   1      36.738  14.181  11.598  0.00  0.00    -0.375 N 
HETATM   20  C   UNK N   1      36.068  15.196  12.207  0.00  0.00     0.088 A 
ATOM     21  HN  UNK N   1      37.248  13.505  12.168  1.00  0.00     0.164 HD
HETATM   22  C   UNK N   1      35.370  16.134  11.440  0.00  0.00     0.025 A 
ENDBRANCH  15  16
ENDBRANCH  13  15
ENDBRANCH   8  11
BRANCH   1  23
HETATM   23  C   UNK N   1      29.237  17.767   5.653  0.00  0.00    -0.049 A 
HETATM   24  C   UNK N   1      28.640  18.603   4.696  0.00  0.00     0.009 A 
HETATM   25  C   UNK N   1      27.806  19.651   5.102  0.00  0.00     0.024 A 
HETATM   26  C   UNK N   1      27.567  19.872   6.463  0.00  0.00     0.034 A 
HETATM   27  C   UNK N   1      28.128  19.025   7.419  0.00  0.00     0.024 A 
HETATM   28 Cl   UNK N   1      26.599  21.234   6.978  0.00  0.00    -0.084 Cl
HETATM   29  C   UNK N   1      28.959  17.981   7.018  0.00  0.00     0.009 A 
ENDBRANCH   1  23
TORSDOF 4
ENDMDL
MODEL 4
REMARK VINA RESULT:      -7.7     17.717     22.230
REMARK  4 active torsions:
REMARK  status: ('A' for Active; 'I' for Inactive)
REMARK    1  A    between atoms: C_6  and  C_7 
REMARK    2  A    between atoms: C_14  and  C_17 
REMARK       I    between atoms: C_17  and  N_19 
REMARK    3  A    between atoms: N_19  and  C_20 
REMARK    4  A    between atoms: C_20  and  C_21 
ROOT
HETATM    1  C   UNK N   1      35.750  13.240  12.131  0.00  0.00    -0.011 C 
HETATM    2  C   UNK N   1      34.968  12.155  11.358  0.00  0.00     0.019 C 
HETATM    3  C   UNK N   1      35.149  12.358   9.836  0.00  0.00    -0.012 C 
HETATM    4  C   UNK N   1      36.643  12.266   9.486  0.00  0.00     0.009 C 
HETATM    5  C   UNK N   1      37.430  13.346  10.249  0.00  0.00    -0.012 C 
HETATM    6  C   UNK N   1      37.244  13.130  11.764  0.00  0.00     0.019 C 
HETATM    7  C   UNK N   1      36.900  14.745   9.864  0.00  0.00     0.024 C 
HETATM    8  C   UNK N   1      35.400  14.847  10.201  0.00  0.00     0.043 C 
HETATM    9  C   UNK N   1      34.632  13.752   9.430  0.00  0.00     0.024 C 
HETATM   10  C   UNK N   1      35.214  14.593  11.687  0.00  0.00     0.033 C 
ENDROOT
BRANCH   8  11
HETATM   11  C   UNK N   1      34.845  16.231   9.983  0.00  0.00     0.226 C 
HETATM   12  O   UNK N   1      35.485  17.217  10.330  0.00  0.00    -0.273 OA
HETATM   13  N   UNK N   1      33.702  16.377   9.263  0.00  0.00    -0.356 N 
HETATM   14  H   UNK N   1      33.158  15.581   9.064  0.00  0.00     0.162 HD
BRANCH  13  15
HETATM   15  C   UNK N   1      33.262  17.665   8.779  0.00  0.00     0.161 C 
BRANCH  15  16
HETATM   16  C   UNK N   1      31.863  17.584   8.218  0.00  0.00    -0.038 A 
HETATM   17  C   UNK N   1      30.829  18.260   8.869  0.00  0.00     0.025 A 
HETATM   18  C   UNK N   1      29.535  18.222   8.341  0.00  0.00     0.088 A 
HETATM   19  N   UNK N   1      29.282  17.527   7.198  0.00  0.00    -0.375 N 
HETATM   20  C   UNK N   1      30.268  16.854   6.545  0.00  0.00     0.088 A 
ATOM     21  HN  UNK N   1      28.333  17.509   6.825  1.00  0.00     0.164 HD
HETATM   22  C   UNK N   1      31.575  16.873   7.039  0.00  0.00     0.025 A 
ENDBRANCH  15  16
ENDBRANCH  13  15
ENDBRANCH   8  11
BRANCH   1  23
HETATM   23  C   UNK N   1      35.526  13.249  13.625  0.00  0.00    -0.049 A 
HETATM   24  C   UNK N   1      36.363  13.971  14.490  0.00  0.00     0.009 A 
HETATM   25  C   UNK N   1      36.262  13.792  15.875  0.00  0.00     0.024 A 
HETATM   26  C   UNK N   1      35.329  12.892  16.401  0.00  0.00     0.034 A 
HETATM   27  C   UNK N   1      34.470  12.197  15.550  0.00  0.00     0.024 A 
HETATM   28 Cl   UNK N   1      35.262  12.599  18.124  0.00  0.00    -0.084 Cl
HETATM   29  C   UNK N   1      34.569  12.372  14.171  0.00  0.00     0.009 A 
ENDBRANCH   1  23
TORSDOF 4
ENDMDL
MODEL 5
REMARK VINA RESULT:      -7.7     16.300     18.404
REMARK  4 active torsions:
REMARK  status: ('A' for Active; 'I' for Inactive)
REMARK    1  A    between atoms: C_6  and  C_7 
REMARK    2  A    between atoms: C_14  and  C_17 
REMARK       I    between atoms: C_17  and  N_19 
REMARK    3  A    between atoms: N_19  and  C_20 
REMARK    4  A    between atoms: C_20  and  C_21 
ROOT
HETATM    1  C   UNK N   1      20.654  16.997   6.776  0.00  0.00    -0.011 C 
HETATM    2  C   UNK N   1      21.318  18.220   6.104  0.00  0.00     0.019 C 
HETATM    3  C   UNK N   1      22.235  17.754   4.950  0.00  0.00    -0.012 C 
HETATM    4  C   UNK N   1      21.398  16.988   3.914  0.00  0.00     0.009 C 
HETATM    5  C   UNK N   1      20.734  15.766   4.573  0.00  0.00    -0.012 C 
HETATM    6  C   UNK N   1      19.820  16.245   5.719  0.00  0.00     0.019 C 
HETATM    7  C   UNK N   1      21.821  14.829   5.145  0.00  0.00     0.024 C 
HETATM    8  C   UNK N   1      22.675  15.589   6.179  0.00  0.00     0.043 C 
HETATM    9  C   UNK N   1      23.326  16.811   5.497  0.00  0.00     0.024 C 
HETATM   10  C   UNK N   1      21.767  16.095   7.286  0.00  0.00     0.033 C 
ENDROOT
BRANCH   8  11
HETATM   11  C   UNK N   1      23.668  14.700   6.883  0.00  0.00     0.226 C 
HETATM   12  O   UNK N   1      24.843  15.036   6.976  0.00  0.00    -0.273 OA
HETATM   13  N   UNK N   1      23.218  13.600   7.542  0.00  0.00    -0.356 N 
HETATM   14  H   UNK N   1      22.293  13.298   7.390  0.00  0.00     0.162 HD
BRANCH  13  15
HETATM   15  C   UNK N   1      24.054  12.862   8.460  0.00  0.00     0.161 C 
BRANCH  15  16
HETATM   16  C   UNK N   1      23.310  12.544   9.734  0.00  0.00    -0.038 A 
HETATM   17  C   UNK N   1      21.915  12.614   9.742  0.00  0.00     0.025 A 
HETATM   18  C   UNK N   1      21.212  12.288  10.905  0.00  0.00     0.088 A 
HETATM   19  N   UNK N   1      21.882  11.908  12.027  0.00  0.00    -0.375 N 
HETATM   20  C   UNK N   1      23.240  11.836  12.051  0.00  0.00     0.088 A 
ATOM     21  HN  UNK N   1      21.354  11.672  12.868  1.00  0.00     0.164 HD
HETATM   22  C   UNK N   1      23.978  12.149  10.906  0.00  0.00     0.025 A 
ENDBRANCH  15  16
ENDBRANCH  13  15
ENDBRANCH   8  11
BRANCH   1  23
HETATM   23  C   UNK N   1      19.856  17.306   8.021  0.00  0.00    -0.049 A 
HETATM   24  C   UNK N   1      18.706  16.576   8.358  0.00  0.00     0.009 A 
HETATM   25  C   UNK N   1      17.874  17.016   9.394  0.00  0.00     0.024 A 
HETATM   26  C   UNK N   1      18.184  18.186  10.096  0.00  0.00     0.034 A 
HETATM   27  C   UNK N   1      19.344  18.898   9.790  0.00  0.00     0.024 A 
HETATM   28 Cl   UNK N   1      17.101  18.787  11.329  0.00  0.00    -0.084 Cl
HETATM   29  C   UNK N   1      20.174  18.464   8.759  0.00  0.00     0.009 A 
ENDBRANCH   1  23
TORSDOF 4
ENDMDL
MODEL 6
REMARK VINA RESULT:      -7.7      2.971      5.269
REMARK  4 active torsions:
REMARK  status: ('A' for Active; 'I' for Inactive)
REMARK    1  A    between atoms: C_6  and  C_7 
REMARK    2  A    between atoms: C_14  and  C_17 
REMARK       I    between atoms: C_17  and  N_19 
REMARK    3  A    between atoms: N_19  and  C_20 
REMARK    4  A    between atoms: C_20  and  C_21 
ROOT
HETATM    1  C   UNK N   1      27.803  26.359  -4.372  0.00  0.00    -0.011 C 
HETATM    2  C   UNK N   1      28.477  27.687  -4.782  0.00  0.00     0.019 C 
HETATM    3  C   UNK N   1      27.458  28.591  -5.513  0.00  0.00    -0.012 C 
HETATM    4  C   UNK N   1      26.274  28.881  -4.578  0.00  0.00     0.009 C 
HETATM    5  C   UNK N   1      25.594  27.563  -4.166  0.00  0.00    -0.012 C 
HETATM    6  C   UNK N   1      26.619  26.673  -3.436  0.00  0.00     0.019 C 
HETATM    7  C   UNK N   1      25.083  26.826  -5.424  0.00  0.00     0.024 C 
HETATM    8  C   UNK N   1      26.260  26.539  -6.375  0.00  0.00     0.043 C 
HETATM    9  C   UNK N   1      26.930  27.872  -6.771  0.00  0.00     0.024 C 
HETATM   10  C   UNK N   1      27.289  25.697  -5.641  0.00  0.00     0.033 C 
ENDROOT
BRANCH   8  11
HETATM   11  C   UNK N   1      25.862  25.698  -7.561  0.00  0.00     0.226 C 
HETATM   12  O   UNK N   1      25.993  26.131  -8.700  0.00  0.00    -0.273 OA
HETATM   13  N   UNK N   1      25.500  24.403  -7.360  0.00  0.00    -0.356 N 
HETATM   14  H   UNK N   1      25.319  24.096  -6.442  0.00  0.00     0.162 HD
BRANCH  13  15
HETATM   15  C   UNK N   1      25.375  23.465  -8.451  0.00  0.00     0.161 C 
BRANCH  15  16
HETATM   16  C   UNK N   1      26.578  22.557  -8.525  0.00  0.00    -0.038 A 
HETATM   17  C   UNK N   1      27.377  22.393  -7.391  0.00  0.00     0.025 A 
HETATM   18  C   UNK N   1      28.474  21.528  -7.435  0.00  0.00     0.088 A 
HETATM   19  N   UNK N   1      28.766  20.850  -8.579  0.00  0.00    -0.375 N 
HETATM   20  C   UNK N   1      28.009  20.993  -9.700  0.00  0.00     0.088 A 
ATOM     21  HN  UNK N   1      29.569  20.221  -8.595  1.00  0.00     0.164 HD
HETATM   22  C   UNK N   1      26.901  21.845  -9.693  0.00  0.00     0.025 A 
ENDBRANCH  15  16
ENDBRANCH  13  15
ENDBRANCH   8  11
BRANCH   1  23
HETATM   23  C   UNK N   1      28.735  25.322  -3.790  0.00  0.00    -0.049 A 
HETATM   24  C   UNK N   1      30.128  25.483  -3.826  0.00  0.00     0.009 A 
HETATM   25  C   UNK N   1      30.967  24.419  -3.474  0.00  0.00     0.024 A 
HETATM   26  C   UNK N   1      30.419  23.190  -3.089  0.00  0.00     0.034 A 
HETATM   27  C   UNK N   1      29.035  23.033  -3.018  0.00  0.00     0.024 A 
HETATM   28 Cl   UNK N   1      31.463  21.832  -2.736  0.00  0.00    -0.084 Cl
HETATM   29  C   UNK N   1      28.198  24.089  -3.368  0.00  0.00     0.009 A 
ENDBRANCH   1  23
TORSDOF 4
ENDMDL
MODEL 7
REMARK VINA RESULT:      -7.6      2.317      3.657
REMARK  4 active torsions:
REMARK  status: ('A' for Active; 'I' for Inactive)
REMARK    1  A    between atoms: C_6  and  C_7 
REMARK    2  A    between atoms: C_14  and  C_17 
REMARK       I    between atoms: C_17  and  N_19 
REMARK    3  A    between atoms: N_19  and  C_20 
REMARK    4  A    between atoms: C_20  and  C_21 
ROOT
HETATM    1  C   UNK N   1      27.446  27.407  -6.120  0.00  0.00    -0.011 C 
HETATM    2  C   UNK N   1      26.482  26.715  -7.110  0.00  0.00     0.019 C 
HETATM    3  C   UNK N   1      25.303  26.079  -6.339  0.00  0.00    -0.012 C 
HETATM    4  C   UNK N   1      24.550  27.174  -5.567  0.00  0.00     0.009 C 
HETATM    5  C   UNK N   1      25.502  27.867  -4.576  0.00  0.00    -0.012 C 
HETATM    6  C   UNK N   1      26.671  28.500  -5.357  0.00  0.00     0.019 C 
HETATM    7  C   UNK N   1      26.059  26.828  -3.577  0.00  0.00     0.024 C 
HETATM    8  C   UNK N   1      26.807  25.718  -4.340  0.00  0.00     0.043 C 
HETATM    9  C   UNK N   1      25.836  25.041  -5.331  0.00  0.00     0.024 C 
HETATM   10  C   UNK N   1      27.932  26.349  -5.141  0.00  0.00     0.033 C 
ENDROOT
BRANCH   8  11
HETATM   11  C   UNK N   1      27.499  24.743  -3.423  0.00  0.00     0.226 C 
HETATM   12  O   UNK N   1      26.859  24.126  -2.579  0.00  0.00    -0.273 OA
HETATM   13  N   UNK N   1      28.806  24.443  -3.643  0.00  0.00    -0.356 N 
HETATM   14  H   UNK N   1      29.325  25.001  -4.265  0.00  0.00     0.162 HD
BRANCH  13  15
HETATM   15  C   UNK N   1      29.455  23.328  -2.994  0.00  0.00     0.161 C 
BRANCH  15  16
HETATM   16  C   UNK N   1      29.948  22.323  -4.007  0.00  0.00    -0.038 A 
HETATM   17  C   UNK N   1      29.560  22.458  -5.342  0.00  0.00     0.025 A 
HETATM   18  C   UNK N   1      30.036  21.555  -6.297  0.00  0.00     0.088 A 
HETATM   19  N   UNK N   1      30.873  20.546  -5.929  0.00  0.00    -0.375 N 
HETATM   20  C   UNK N   1      31.263  20.387  -4.635  0.00  0.00     0.088 A 
ATOM     21  HN  UNK N   1      31.213  19.896  -6.638  1.00  0.00     0.164 HD
HETATM   22  C   UNK N   1      30.812  21.272  -3.652  0.00  0.00     0.025 A 
ENDBRANCH  15  16
ENDBRANCH  13  15
ENDBRANCH   8  11
BRANCH   1  23
HETATM   23  C   UNK N   1      28.723  27.931  -6.732  0.00  0.00    -0.049 A 
HETATM   24  C   UNK N   1      28.789  29.204  -7.320  0.00  0.00     0.009 A 
HETATM   25  C   UNK N   1      29.916  29.577  -8.061  0.00  0.00     0.024 A 
HETATM   26  C   UNK N   1      30.980  28.682  -8.221  0.00  0.00     0.034 A 
HETATM   27  C   UNK N   1      30.937  27.429  -7.611  0.00  0.00     0.024 A 
HETATM   28 Cl   UNK N   1      32.349  29.110  -9.220  0.00  0.00    -0.084 Cl
HETATM   29  C   UNK N   1      29.817  27.054  -6.873  0.00  0.00     0.009 A 
ENDBRANCH   1  23
TORSDOF 4
ENDMDL
MODEL 8
REMARK VINA RESULT:      -7.5     20.674     25.109
REMARK  4 active torsions:
REMARK  status: ('A' for Active; 'I' for Inactive)
REMARK    1  A    between atoms: C_6  and  C_7 
REMARK    2  A    between atoms: C_14  and  C_17 
REMARK       I    between atoms: C_17  and  N_19 
REMARK    3  A    between atoms: N_19  and  C_20 
REMARK    4  A    between atoms: C_20  and  C_21 
ROOT
HETATM    1  C   UNK N   1      35.562  11.209  14.925  0.00  0.00    -0.011 C 
HETATM    2  C   UNK N   1      34.198  10.719  14.390  0.00  0.00     0.019 C 
HETATM    3  C   UNK N   1      34.326  10.332  12.898  0.00  0.00    -0.012 C 
HETATM    4  C   UNK N   1      35.370   9.215  12.751  0.00  0.00     0.009 C 
HETATM    5  C   UNK N   1      36.733   9.695  13.279  0.00  0.00    -0.012 C 
HETATM    6  C   UNK N   1      36.592  10.074  14.767  0.00  0.00     0.019 C 
HETATM    7  C   UNK N   1      37.194  10.933  12.479  0.00  0.00     0.024 C 
HETATM    8  C   UNK N   1      36.150  12.059  12.610  0.00  0.00     0.043 C 
HETATM    9  C   UNK N   1      34.791  11.554  12.080  0.00  0.00     0.024 C 
HETATM   10  C   UNK N   1      35.982  12.402  14.080  0.00  0.00     0.033 C 
ENDROOT
BRANCH   8  11
HETATM   11  C   UNK N   1      36.597  13.348  11.971  0.00  0.00     0.226 C 
HETATM   12  O   UNK N   1      37.570  13.365  11.225  0.00  0.00    -0.273 OA
HETATM   13  N   UNK N   1      35.823  14.456  12.108  0.00  0.00    -0.356 N 
HETATM   14  H   UNK N   1      35.096  14.451  12.772  0.00  0.00     0.162 HD
BRANCH  13  15
HETATM   15  C   UNK N   1      36.032  15.641  11.308  0.00  0.00     0.161 C 
BRANCH  15  16
HETATM   16  C   UNK N   1      34.880  15.865  10.359  0.00  0.00    -0.038 A 
HETATM   17  C   UNK N   1      33.850  14.923  10.306  0.00  0.00     0.025 A 
HETATM   18  C   UNK N   1      32.760  15.134   9.458  0.00  0.00     0.088 A 
HETATM   19  N   UNK N   1      32.702  16.252   8.683  0.00  0.00    -0.375 N 
HETATM   20  C   UNK N   1      33.693  17.184   8.709  0.00  0.00     0.088 A 
ATOM     21  HN  UNK N   1      31.899  16.393   8.069  1.00  0.00     0.164 HD
HETATM   22  C   UNK N   1      34.796  17.010   9.549  0.00  0.00     0.025 A 
ENDBRANCH  15  16
ENDBRANCH  13  15
ENDBRANCH   8  11
BRANCH   1  23
HETATM   23  C   UNK N   1      35.535  11.768  16.328  0.00  0.00    -0.049 A 
HETATM   24  C   UNK N   1      35.590  10.931  17.454  0.00  0.00     0.009 A 
HETATM   25  C   UNK N   1      35.350  11.456  18.730  0.00  0.00     0.024 A 
HETATM   26  C   UNK N   1      35.053  12.814  18.887  0.00  0.00     0.034 A 
HETATM   27  C   UNK N   1      35.031  13.658  17.778  0.00  0.00     0.024 A 
HETATM   28 Cl   UNK N   1      34.666  13.454  20.468  0.00  0.00    -0.084 Cl
HETATM   29  C   UNK N   1      35.267  13.140  16.506  0.00  0.00     0.009 A 
ENDBRANCH   1  23
TORSDOF 4
ENDMDL
MODEL 9
REMARK VINA RESULT:      -7.4     15.326     18.106
REMARK  4 active torsions:
REMARK  status: ('A' for Active; 'I' for Inactive)
REMARK    1  A    between atoms: C_6  and  C_7 
REMARK    2  A    between atoms: C_14  and  C_17 
REMARK       I    between atoms: C_17  and  N_19 
REMARK    3  A    between atoms: N_19  and  C_20 
REMARK    4  A    between atoms: C_20  and  C_21 
ROOT
HETATM    1  C   UNK N   1      23.135  13.691   7.491  0.00  0.00    -0.011 C 
HETATM    2  C   UNK N   1      22.181  14.899   7.359  0.00  0.00     0.019 C 
HETATM    3  C   UNK N   1      22.395  15.592   5.994  0.00  0.00    -0.012 C 
HETATM    4  C   UNK N   1      22.116  14.589   4.865  0.00  0.00     0.009 C 
HETATM    5  C   UNK N   1      23.064  13.383   4.986  0.00  0.00    -0.012 C 
HETATM    6  C   UNK N   1      22.838  12.698   6.349  0.00  0.00     0.019 C 
HETATM    7  C   UNK N   1      24.530  13.862   4.893  0.00  0.00     0.024 C 
HETATM    8  C   UNK N   1      24.820  14.878   6.015  0.00  0.00     0.043 C 
HETATM    9  C   UNK N   1      23.855  16.075   5.876  0.00  0.00     0.024 C 
HETATM   10  C   UNK N   1      24.557  14.215   7.355  0.00  0.00     0.033 C 
ENDROOT
BRANCH   8  11
HETATM   11  C   UNK N   1      26.270  15.284   6.074  0.00  0.00     0.226 C 
HETATM   12  O   UNK N   1      27.150  14.486   5.774  0.00  0.00    -0.273 OA
HETATM   13  N   UNK N   1      26.581  16.585   6.314  0.00  0.00    -0.356 N 
HETATM   14  H   UNK N   1      25.876  17.193   6.633  0.00  0.00     0.162 HD
BRANCH  13  15
HETATM   15  C   UNK N   1      27.914  17.103   6.113  0.00  0.00     0.161 C 
BRANCH  15  16
HETATM   16  C   UNK N   1      28.649  17.231   7.426  0.00  0.00    -0.038 A 
HETATM   17  C   UNK N   1      30.044  17.301   7.420  0.00  0.00     0.025 A 
HETATM   18  C   UNK N   1      30.735  17.454   8.625  0.00  0.00     0.088 A 
HETATM   19  N   UNK N   1      30.054  17.533   9.801  0.00  0.00    -0.375 N 
HETATM   20  C   UNK N   1      28.695  17.463   9.838  0.00  0.00     0.088 A 
ATOM     21  HN  UNK N   1      30.573  17.646  10.672  1.00  0.00     0.164 HD
HETATM   22  C   UNK N   1      27.969  17.315   8.653  0.00  0.00     0.025 A 
ENDBRANCH  15  16
ENDBRANCH  13  15
ENDBRANCH   8  11
BRANCH   1  23
HETATM   23  C   UNK N   1      23.137  13.023   8.846  0.00  0.00    -0.049 A 
HETATM   24  C   UNK N   1      21.954  12.839   9.577  0.00  0.00     0.009 A 
HETATM   25  C   UNK N   1      22.011  12.413  10.909  0.00  0.00     0.024 A 
HETATM   26  C   UNK N   1      23.247  12.172  11.517  0.00  0.00     0.034 A 
HETATM   27  C   UNK N   1      24.427  12.319  10.788  0.00  0.00     0.024 A 
HETATM   28 Cl   UNK N   1      23.326  11.727  13.207  0.00  0.00    -0.084 Cl
HETATM   29  C   UNK N   1      24.373  12.744   9.462  0.00  0.00     0.009 A 
ENDBRANCH   1  23
TORSDOF 4
ENDMDL
