MODEL 1
REMARK VINA RESULT:      -6.8      0.000      0.000
REMARK  6 active torsions:
REMARK  status: ('A' for Active; 'I' for Inactive)
REMARK    1  A    between atoms: C_2  and  O_3 
REMARK    2  A    between atoms: O_3  and  C_4 
REMARK    3  A    between atoms: C_7  and  C_10 
REMARK    4  A    between atoms: N_14  and  C_15 
REMARK    5  A    between atoms: C_18  and  S_21 
REMARK    6  A    between atoms: S_21  and  N_24 
ROOT
HETATM    1  C   UNK N   1      26.439  26.215  -7.081  0.00  0.00     0.050 A 
HETATM    2  C   UNK N   1      25.670  26.209  -8.232  0.00  0.00     0.039 A 
HETATM    3  C   UNK N   1      26.078  25.093  -8.937  0.00  0.00    -0.044 A 
HETATM    4  C   UNK N   1      27.062  24.448  -8.213  0.00  0.00     0.104 A 
HETATM    5  N   UNK N   1      27.255  25.121  -7.065  0.00  0.00    -0.321 N 
HETATM    6  C   UNK N   1      25.577  24.682 -10.275  0.00  0.00     0.049 C 
ENDROOT
BRANCH   5   7
HETATM    7  C   UNK N   1      28.200  24.747  -6.039  0.00  0.00     0.039 A 
HETATM    8  C   UNK N   1      27.746  24.335  -4.779  0.00  0.00     0.031 A 
HETATM    9  C   UNK N   1      28.631  23.705  -3.895  0.00  0.00     0.027 A 
HETATM   10  C   UNK N   1      29.972  23.522  -4.258  0.00  0.00     0.079 A 
HETATM   11  C   UNK N   1      30.447  24.037  -5.460  0.00  0.00     0.027 A 
HETATM   12  C   UNK N   1      29.567  24.656  -6.339  0.00  0.00     0.031 A 
BRANCH  10  13
HETATM   13  S   UNK N   1      31.018  22.430  -3.311  0.00  0.00     0.256 S 
HETATM   14  O   UNK N   1      31.065  22.680  -1.799  0.00  0.00    -0.201 OA
HETATM   15  O   UNK N   1      32.491  22.581  -3.726  0.00  0.00    -0.201 OA
BRANCH  13  16
HETATM   16  N   UNK N   1      30.714  20.705  -3.518  0.00  0.00    -0.324 N 
HETATM   17  H   UNK N   1      30.649  19.799  -3.983  0.00  0.00     0.169 HD
HETATM   18  H   UNK N   1      30.409  20.455  -2.577  0.00  0.00     0.169 HD
ENDBRANCH  13  16
ENDBRANCH  10  13
ENDBRANCH   5   7
BRANCH   1  19
HETATM   19  C   UNK N   1      26.456  27.349  -6.106  0.00  0.00    -0.009 A 
HETATM   20  C   UNK N   1      27.369  28.407  -6.229  0.00  0.00     0.016 A 
HETATM   21  C   UNK N   1      27.364  29.459  -5.296  0.00  0.00     0.037 A 
HETATM   22  C   UNK N   1      26.467  29.446  -4.217  0.00  0.00     0.068 A 
HETATM   23  C   UNK N   1      25.600  28.362  -4.064  0.00  0.00     0.037 A 
HETATM   24  C   UNK N   1      25.610  27.329  -4.990  0.00  0.00     0.016 A 
BRANCH  22  25
HETATM   25  O   UNK N   1      26.443  30.484  -3.345  0.00  0.00    -0.352 OA
BRANCH  25  26
HETATM   26  C   UNK N   1      27.585  30.986  -2.753  0.00  0.00     0.171 C 
HETATM   27  C   UNK N   1      28.056  30.045  -1.662  0.00  0.00     0.034 C 
ENDBRANCH  25  26
ENDBRANCH  22  25
ENDBRANCH   1  19
TORSDOF 6
ENDMDL
MODEL 2
REMARK VINA RESULT:      -6.6     17.041     19.749
REMARK  6 active torsions:
REMARK  status: ('A' for Active; 'I' for Inactive)
REMARK    1  A    between atoms: C_2  and  O_3 
REMARK    2  A    between atoms: O_3  and  C_4 
REMARK    3  A    between atoms: C_7  and  C_10 
REMARK    4  A    between atoms: N_14  and  C_15 
REMARK    5  A    between atoms: C_18  and  S_21 
REMARK    6  A    between atoms: S_21  and  N_24 
ROOT
HETATM    1  C   UNK N   1      34.916  15.208   7.424  0.00  0.00     0.050 A 
HETATM    2  C   UNK N   1      35.436  15.105   6.145  0.00  0.00     0.039 A 
HETATM    3  C   UNK N   1      36.559  14.311   6.272  0.00  0.00    -0.044 A 
HETATM    4  C   UNK N   1      36.695  13.946   7.598  0.00  0.00     0.104 A 
HETATM    5  N   UNK N   1      35.670  14.472   8.291  0.00  0.00    -0.321 N 
HETATM    6  C   UNK N   1      37.494  13.949   5.174  0.00  0.00     0.049 C 
ENDROOT
BRANCH   5   7
HETATM    7  C   UNK N   1      35.460  14.301   9.709  0.00  0.00     0.039 A 
HETATM    8  C   UNK N   1      34.959  13.091  10.207  0.00  0.00     0.031 A 
HETATM    9  C   UNK N   1      35.029  12.825  11.581  0.00  0.00     0.027 A 
HETATM   10  C   UNK N   1      35.563  13.782  12.454  0.00  0.00     0.079 A 
HETATM   11  C   UNK N   1      35.950  15.029  11.971  0.00  0.00     0.027 A 
HETATM   12  C   UNK N   1      35.887  15.289  10.608  0.00  0.00     0.031 A 
BRANCH  10  13
HETATM   13  S   UNK N   1      35.977  13.337  14.131  0.00  0.00     0.256 S 
HETATM   14  O   UNK N   1      36.585  11.943  14.332  0.00  0.00    -0.201 OA
HETATM   15  O   UNK N   1      34.720  13.289  15.015  0.00  0.00    -0.201 OA
BRANCH  13  16
HETATM   16  N   UNK N   1      37.030  14.464  14.987  0.00  0.00    -0.324 N 
HETATM   17  H   UNK N   1      37.422  14.999  15.762  0.00  0.00     0.169 HD
HETATM   18  H   UNK N   1      37.622  14.786  14.220  0.00  0.00     0.169 HD
ENDBRANCH  13  16
ENDBRANCH  10  13
ENDBRANCH   5   7
BRANCH   1  19
HETATM   19  C   UNK N   1      33.792  16.127   7.785  0.00  0.00    -0.009 A 
HETATM   20  C   UNK N   1      33.987  17.511   7.905  0.00  0.00     0.016 A 
HETATM   21  C   UNK N   1      32.912  18.350   8.250  0.00  0.00     0.037 A 
HETATM   22  C   UNK N   1      31.643  17.810   8.505  0.00  0.00     0.068 A 
HETATM   23  C   UNK N   1      31.466  16.425   8.443  0.00  0.00     0.037 A 
HETATM   24  C   UNK N   1      32.531  15.605   8.101  0.00  0.00     0.016 A 
BRANCH  22  25
HETATM   25  O   UNK N   1      30.604  18.631   8.798  0.00  0.00    -0.352 OA
BRANCH  25  26
HETATM   26  C   UNK N   1      29.632  18.302   9.721  0.00  0.00     0.171 C 
HETATM   27  C   UNK N   1      28.276  18.251   9.046  0.00  0.00     0.034 C 
ENDBRANCH  25  26
ENDBRANCH  22  25
ENDBRANCH   1  19
TORSDOF 6
ENDMDL
MODEL 3
REMARK VINA RESULT:      -6.4     19.947     23.499
REMARK  6 active torsions:
REMARK  status: ('A' for Active; 'I' for Inactive)
REMARK    1  A    between atoms: C_2  and  O_3 
REMARK    2  A    between atoms: O_3  and  C_4 
REMARK    3  A    between atoms: C_7  and  C_10 
REMARK    4  A    between atoms: N_14  and  C_15 
REMARK    5  A    between atoms: C_18  and  S_21 
REMARK    6  A    between atoms: S_21  and  N_24 
ROOT
HETATM    1  C   UNK N   1      36.817  11.651  12.129  0.00  0.00     0.050 A 
HETATM    2  C   UNK N   1      37.578  10.501  12.004  0.00  0.00     0.039 A 
HETATM    3  C   UNK N   1      37.816  10.367  10.650  0.00  0.00    -0.044 A 
HETATM    4  C   UNK N   1      37.214  11.420   9.989  0.00  0.00     0.104 A 
HETATM    5  N   UNK N   1      36.633  12.219  10.902  0.00  0.00    -0.321 N 
HETATM    6  C   UNK N   1      38.554   9.248  10.006  0.00  0.00     0.049 C 
ENDROOT
BRANCH   5   7
HETATM    7  C   UNK N   1      35.912  13.431  10.596  0.00  0.00     0.039 A 
HETATM    8  C   UNK N   1      36.419  14.673  11.000  0.00  0.00     0.031 A 
HETATM    9  C   UNK N   1      35.881  15.850  10.462  0.00  0.00     0.027 A 
HETATM   10  C   UNK N   1      34.818  15.783   9.552  0.00  0.00     0.079 A 
HETATM   11  C   UNK N   1      34.239  14.555   9.244  0.00  0.00     0.027 A 
HETATM   12  C   UNK N   1      34.777  13.388   9.773  0.00  0.00     0.031 A 
BRANCH  10  13
HETATM   13  S   UNK N   1      34.355  17.220   8.603  0.00  0.00     0.256 S 
HETATM   14  O   UNK N   1      34.636  17.156   7.096  0.00  0.00    -0.201 OA
HETATM   15  O   UNK N   1      35.157  18.455   9.045  0.00  0.00    -0.201 OA
BRANCH  13  16
HETATM   16  N   UNK N   1      32.679  17.744   8.772  0.00  0.00    -0.324 N 
HETATM   17  H   UNK N   1      31.774  17.910   9.211  0.00  0.00     0.169 HD
HETATM   18  H   UNK N   1      32.505  18.118   7.838  0.00  0.00     0.169 HD
ENDBRANCH  13  16
ENDBRANCH  10  13
ENDBRANCH   5   7
BRANCH   1  19
HETATM   19  C   UNK N   1      36.179  12.082  13.411  0.00  0.00    -0.009 A 
HETATM   20  C   UNK N   1      34.878  11.682  13.753  0.00  0.00     0.016 A 
HETATM   21  C   UNK N   1      34.302  12.107  14.964  0.00  0.00     0.037 A 
HETATM   22  C   UNK N   1      35.010  12.956  15.828  0.00  0.00     0.068 A 
HETATM   23  C   UNK N   1      36.282  13.399  15.457  0.00  0.00     0.037 A 
HETATM   24  C   UNK N   1      36.843  12.975  14.262  0.00  0.00     0.016 A 
BRANCH  22  25
HETATM   25  O   UNK N   1      34.462  13.327  17.011  0.00  0.00    -0.352 OA
BRANCH  25  26
HETATM   26  C   UNK N   1      35.217  13.799  18.066  0.00  0.00     0.171 C 
HETATM   27  C   UNK N   1      35.244  12.772  19.181  0.00  0.00     0.034 C 
ENDBRANCH  25  26
ENDBRANCH  22  25
ENDBRANCH   1  19
TORSDOF 6
ENDMDL
MODEL 4
REMARK VINA RESULT:      -6.4      3.569      6.598
REMARK  6 active torsions:
REMARK  status: ('A' for Active; 'I' for Inactive)
REMARK    1  A    between atoms: C_2  and  O_3 
REMARK    2  A    between atoms: O_3  and  C_4 
REMARK    3  A    between atoms: C_7  and  C_10 
REMARK    4  A    between atoms: N_14  and  C_15 
REMARK    5  A    between atoms: C_18  and  S_21 
REMARK    6  A    between atoms: S_21  and  N_24 
ROOT
HETATM    1  C   UNK N   1      28.705  22.352  -6.343  0.00  0.00     0.050 A 
HETATM    2  C   UNK N   1      29.421  21.209  -6.655  0.00  0.00     0.039 A 
HETATM    3  C   UNK N   1      30.406  21.122  -5.691  0.00  0.00    -0.044 A 
HETATM    4  C   UNK N   1      30.271  22.189  -4.823  0.00  0.00     0.104 A 
HETATM    5  N   UNK N   1      29.210  22.919  -5.209  0.00  0.00    -0.321 N 
HETATM    6  C   UNK N   1      31.467  20.082  -5.626  0.00  0.00     0.049 C 
ENDROOT
BRANCH   5   7
HETATM    7  C   UNK N   1      28.743  24.111  -4.542  0.00  0.00     0.039 A 
HETATM    8  C   UNK N   1      29.503  25.288  -4.588  0.00  0.00     0.031 A 
HETATM    9  C   UNK N   1      28.924  26.502  -4.197  0.00  0.00     0.027 A 
HETATM   10  C   UNK N   1      27.604  26.531  -3.728  0.00  0.00     0.079 A 
HETATM   11  C   UNK N   1      26.892  25.345  -3.572  0.00  0.00     0.027 A 
HETATM   12  C   UNK N   1      27.465  24.142  -3.967  0.00  0.00     0.031 A 
BRANCH  10  13
HETATM   13  S   UNK N   1      26.744  28.084  -3.558  0.00  0.00     0.256 S 
HETATM   14  O   UNK N   1      27.205  28.992  -2.411  0.00  0.00    -0.201 OA
HETATM   15  O   UNK N   1      25.257  27.858  -3.235  0.00  0.00    -0.201 OA
BRANCH  13  16
HETATM   16  N   UNK N   1      26.695  29.097  -5.001  0.00  0.00    -0.324 N 
HETATM   17  H   UNK N   1      26.528  29.364  -5.972  0.00  0.00     0.169 HD
HETATM   18  H   UNK N   1      27.077  29.968  -4.631  0.00  0.00     0.169 HD
ENDBRANCH  13  16
ENDBRANCH  10  13
ENDBRANCH   5   7
BRANCH   1  19
HETATM   19  C   UNK N   1      27.650  22.932  -7.230  0.00  0.00    -0.009 A 
HETATM   20  C   UNK N   1      26.376  22.353  -7.331  0.00  0.00     0.016 A 
HETATM   21  C   UNK N   1      25.406  22.918  -8.176  0.00  0.00     0.037 A 
HETATM   22  C   UNK N   1      25.709  24.050  -8.949  0.00  0.00     0.068 A 
HETATM   23  C   UNK N   1      26.997  24.589  -8.892  0.00  0.00     0.037 A 
HETATM   24  C   UNK N   1      27.948  24.026  -8.054  0.00  0.00     0.016 A 
BRANCH  22  25
HETATM   25  O   UNK N   1      24.754  24.611  -9.731  0.00  0.00    -0.352 OA
BRANCH  25  26
HETATM   26  C   UNK N   1      25.039  25.200 -10.947  0.00  0.00     0.171 C 
HETATM   27  C   UNK N   1      24.370  26.558 -11.030  0.00  0.00     0.034 C 
ENDBRANCH  25  26
ENDBRANCH  22  25
ENDBRANCH   1  19
TORSDOF 6
ENDMDL
MODEL 5
REMARK VINA RESULT:      -6.4     14.821     17.724
REMARK  6 active torsions:
REMARK  status: ('A' for Active; 'I' for Inactive)
REMARK    1  A    between atoms: C_2  and  O_3 
REMARK    2  A    between atoms: O_3  and  C_4 
REMARK    3  A    between atoms: C_7  and  C_10 
REMARK    4  A    between atoms: N_14  and  C_15 
REMARK    5  A    between atoms: C_18  and  S_21 
REMARK    6  A    between atoms: S_21  and  N_24 
ROOT
HETATM    1  C   UNK N   1      31.032  16.942   6.939  0.00  0.00     0.050 A 
HETATM    2  C   UNK N   1      29.788  17.550   6.948  0.00  0.00     0.039 A 
HETATM    3  C   UNK N   1      29.427  17.619   8.280  0.00  0.00    -0.044 A 
HETATM    4  C   UNK N   1      30.439  17.069   9.042  0.00  0.00     0.104 A 
HETATM    5  N   UNK N   1      31.431  16.686   8.219  0.00  0.00    -0.321 N 
HETATM    6  C   UNK N   1      28.141  18.151   8.802  0.00  0.00     0.049 C 
ENDROOT
BRANCH   5   7
HETATM    7  C   UNK N   1      32.667  16.075   8.646  0.00  0.00     0.039 A 
HETATM    8  C   UNK N   1      33.768  16.874   8.983  0.00  0.00     0.031 A 
HETATM    9  C   UNK N   1      34.853  16.307   9.664  0.00  0.00     0.027 A 
HETATM   10  C   UNK N   1      34.851  14.940   9.972  0.00  0.00     0.079 A 
HETATM   11  C   UNK N   1      33.811  14.127   9.531  0.00  0.00     0.027 A 
HETATM   12  C   UNK N   1      32.732  14.691   8.862  0.00  0.00     0.031 A 
BRANCH  10  13
HETATM   13  S   UNK N   1      36.039  14.276  11.125  0.00  0.00     0.256 S 
HETATM   14  O   UNK N   1      37.422  13.940  10.553  0.00  0.00    -0.201 OA
HETATM   15  O   UNK N   1      35.566  12.925  11.686  0.00  0.00    -0.201 OA
BRANCH  13  16
HETATM   16  N   UNK N   1      36.323  15.239  12.575  0.00  0.00    -0.324 N 
HETATM   17  H   UNK N   1      36.552  16.051  13.148  0.00  0.00     0.169 HD
HETATM   18  H   UNK N   1      36.148  14.542  13.299  0.00  0.00     0.169 HD
ENDBRANCH  13  16
ENDBRANCH  10  13
ENDBRANCH   5   7
BRANCH   1  19
HETATM   19  C   UNK N   1      31.725  16.503   5.689  0.00  0.00    -0.009 A 
HETATM   20  C   UNK N   1      32.388  17.418   4.858  0.00  0.00     0.016 A 
HETATM   21  C   UNK N   1      33.029  16.977   3.686  0.00  0.00     0.037 A 
HETATM   22  C   UNK N   1      32.988  15.622   3.322  0.00  0.00     0.068 A 
HETATM   23  C   UNK N   1      32.277  14.722   4.121  0.00  0.00     0.037 A 
HETATM   24  C   UNK N   1      31.649  15.166   5.275  0.00  0.00     0.016 A 
BRANCH  22  25
HETATM   25  O   UNK N   1      33.642  15.200   2.213  0.00  0.00    -0.352 OA
BRANCH  25  26
HETATM   26  C   UNK N   1      34.321  13.998   2.160  0.00  0.00     0.171 C 
HETATM   27  C   UNK N   1      35.423  14.074   1.121  0.00  0.00     0.034 C 
ENDBRANCH  25  26
ENDBRANCH  22  25
ENDBRANCH   1  19
TORSDOF 6
ENDMDL
MODEL 6
REMARK VINA RESULT:      -6.3      2.916      5.643
REMARK  6 active torsions:
REMARK  status: ('A' for Active; 'I' for Inactive)
REMARK    1  A    between atoms: C_2  and  O_3 
REMARK    2  A    between atoms: O_3  and  C_4 
REMARK    3  A    between atoms: C_7  and  C_10 
REMARK    4  A    between atoms: N_14  and  C_15 
REMARK    5  A    between atoms: C_18  and  S_21 
REMARK    6  A    between atoms: S_21  and  N_24 
ROOT
HETATM    1  C   UNK N   1      27.207  25.721  -5.248  0.00  0.00     0.050 A 
HETATM    2  C   UNK N   1      26.374  26.817  -5.389  0.00  0.00     0.039 A 
HETATM    3  C   UNK N   1      26.689  27.651  -4.333  0.00  0.00    -0.044 A 
HETATM    4  C   UNK N   1      27.692  27.062  -3.588  0.00  0.00     0.104 A 
HETATM    5  N   UNK N   1      28.027  25.897  -4.171  0.00  0.00    -0.321 N 
HETATM    6  C   UNK N   1      26.024  28.944  -4.022  0.00  0.00     0.049 C 
ENDROOT
BRANCH   5   7
HETATM    7  C   UNK N   1      29.047  24.997  -3.690  0.00  0.00     0.039 A 
HETATM    8  C   UNK N   1      28.690  23.814  -3.029  0.00  0.00     0.031 A 
HETATM    9  C   UNK N   1      29.652  22.817  -2.824  0.00  0.00     0.027 A 
HETATM   10  C   UNK N   1      30.973  23.020  -3.245  0.00  0.00     0.079 A 
HETATM   11  C   UNK N   1      31.351  24.242  -3.793  0.00  0.00     0.027 A 
HETATM   12  C   UNK N   1      30.395  25.228  -4.003  0.00  0.00     0.031 A 
BRANCH  10  13
HETATM   13  S   UNK N   1      32.116  21.652  -3.309  0.00  0.00     0.256 S 
HETATM   14  O   UNK N   1      32.826  21.300  -1.996  0.00  0.00    -0.201 OA
HETATM   15  O   UNK N   1      33.288  21.958  -4.256  0.00  0.00    -0.201 OA
BRANCH  13  16
HETATM   16  N   UNK N   1      31.468  20.139  -3.942  0.00  0.00    -0.324 N 
HETATM   17  H   UNK N   1      31.297  19.136  -4.022  0.00  0.00     0.169 HD
HETATM   18  H   UNK N   1      30.913  20.486  -4.725  0.00  0.00     0.169 HD
ENDBRANCH  13  16
ENDBRANCH  10  13
ENDBRANCH   5   7
BRANCH   1  19
HETATM   19  C   UNK N   1      27.085  24.481  -6.076  0.00  0.00    -0.009 A 
HETATM   20  C   UNK N   1      28.090  24.098  -6.977  0.00  0.00     0.016 A 
HETATM   21  C   UNK N   1      27.945  22.929  -7.744  0.00  0.00     0.037 A 
HETATM   22  C   UNK N   1      26.783  22.148  -7.638  0.00  0.00     0.068 A 
HETATM   23  C   UNK N   1      25.759  22.564  -6.783  0.00  0.00     0.037 A 
HETATM   24  C   UNK N   1      25.910  23.718  -6.029  0.00  0.00     0.016 A 
BRANCH  22  25
HETATM   25  O   UNK N   1      26.671  21.002  -8.352  0.00  0.00    -0.352 OA
BRANCH  25  26
HETATM   26  C   UNK N   1      25.685  20.807  -9.298  0.00  0.00     0.171 C 
HETATM   27  C   UNK N   1      26.173  21.274 -10.656  0.00  0.00     0.034 C 
ENDBRANCH  25  26
ENDBRANCH  22  25
ENDBRANCH   1  19
TORSDOF 6
ENDMDL
MODEL 7
REMARK VINA RESULT:      -6.3     14.047     16.554
REMARK  6 active torsions:
REMARK  status: ('A' for Active; 'I' for Inactive)
REMARK    1  A    between atoms: C_2  and  O_3 
REMARK    2  A    between atoms: O_3  and  C_4 
REMARK    3  A    between atoms: C_7  and  C_10 
REMARK    4  A    between atoms: N_14  and  C_15 
REMARK    5  A    between atoms: C_18  and  S_21 
REMARK    6  A    between atoms: S_21  and  N_24 
ROOT
HETATM    1  C   UNK N   1      30.439  17.503   7.405  0.00  0.00     0.050 A 
HETATM    2  C   UNK N   1      29.490  18.236   8.098  0.00  0.00     0.039 A 
HETATM    3  C   UNK N   1      28.563  18.620   7.149  0.00  0.00    -0.044 A 
HETATM    4  C   UNK N   1      28.952  18.118   5.922  0.00  0.00     0.104 A 
HETATM    5  N   UNK N   1      30.082  17.410   6.091  0.00  0.00    -0.321 N 
HETATM    6  C   UNK N   1      27.371  19.473   7.398  0.00  0.00     0.049 C 
ENDROOT
BRANCH   5   7
HETATM    7  C   UNK N   1      30.790  16.722   5.038  0.00  0.00     0.039 A 
HETATM    8  C   UNK N   1      31.722  17.408   4.249  0.00  0.00     0.031 A 
HETATM    9  C   UNK N   1      32.605  16.688   3.435  0.00  0.00     0.027 A 
HETATM   10  C   UNK N   1      32.530  15.290   3.383  0.00  0.00     0.079 A 
HETATM   11  C   UNK N   1      31.526  14.619   4.076  0.00  0.00     0.027 A 
HETATM   12  C   UNK N   1      30.655  15.333   4.889  0.00  0.00     0.031 A 
BRANCH  10  13
HETATM   13  S   UNK N   1      33.847  14.346   2.638  0.00  0.00     0.256 S 
HETATM   14  O   UNK N   1      34.586  15.016   1.473  0.00  0.00    -0.201 OA
HETATM   15  O   UNK N   1      33.306  13.056   1.998  0.00  0.00    -0.201 OA
BRANCH  13  16
HETATM   16  N   UNK N   1      35.091  13.759   3.741  0.00  0.00    -0.324 N 
HETATM   17  H   UNK N   1      35.970  13.735   4.258  0.00  0.00     0.169 HD
HETATM   18  H   UNK N   1      34.656  12.897   4.072  0.00  0.00     0.169 HD
ENDBRANCH  13  16
ENDBRANCH  10  13
ENDBRANCH   5   7
BRANCH   1  19
HETATM   19  C   UNK N   1      31.726  17.040   8.010  0.00  0.00    -0.009 A 
HETATM   20  C   UNK N   1      31.855  15.760   8.570  0.00  0.00     0.016 A 
HETATM   21  C   UNK N   1      33.076  15.353   9.134  0.00  0.00     0.037 A 
HETATM   22  C   UNK N   1      34.170  16.232   9.170  0.00  0.00     0.068 A 
HETATM   23  C   UNK N   1      34.021  17.526   8.665  0.00  0.00     0.037 A 
HETATM   24  C   UNK N   1      32.813  17.919   8.108  0.00  0.00     0.016 A 
BRANCH  22  25
HETATM   25  O   UNK N   1      35.355  15.816   9.680  0.00  0.00    -0.352 OA
BRANCH  25  26
HETATM   26  C   UNK N   1      35.832  16.247  10.902  0.00  0.00     0.171 C 
HETATM   27  C   UNK N   1      35.775  15.113  11.907  0.00  0.00     0.034 C 
ENDBRANCH  25  26
ENDBRANCH  22  25
ENDBRANCH   1  19
TORSDOF 6
ENDMDL
MODEL 8
REMARK VINA RESULT:      -6.2     18.364     21.978
REMARK  6 active torsions:
REMARK  status: ('A' for Active; 'I' for Inactive)
REMARK    1  A    between atoms: C_2  and  O_3 
REMARK    2  A    between atoms: O_3  and  C_4 
REMARK    3  A    between atoms: C_7  and  C_10 
REMARK    4  A    between atoms: N_14  and  C_15 
REMARK    5  A    between atoms: C_18  and  S_21 
REMARK    6  A    between atoms: S_21  and  N_24 
ROOT
HETATM    1  C   UNK N   1      36.969  12.753  11.582  0.00  0.00     0.050 A 
HETATM    2  C   UNK N   1      37.364  11.893  12.593  0.00  0.00     0.039 A 
HETATM    3  C   UNK N   1      36.713  12.341  13.726  0.00  0.00    -0.044 A 
HETATM    4  C   UNK N   1      35.945  13.438  13.390  0.00  0.00     0.104 A 
HETATM    5  N   UNK N   1      36.081  13.665  12.072  0.00  0.00    -0.321 N 
HETATM    6  C   UNK N   1      36.855  11.767  15.091  0.00  0.00     0.049 C 
ENDROOT
BRANCH   5   7
HETATM    7  C   UNK N   1      35.422  14.724  11.346  0.00  0.00     0.039 A 
HETATM    8  C   UNK N   1      35.839  16.053  11.503  0.00  0.00     0.031 A 
HETATM    9  C   UNK N   1      35.403  17.028  10.596  0.00  0.00     0.027 A 
HETATM   10  C   UNK N   1      34.525  16.681   9.561  0.00  0.00     0.079 A 
HETATM   11  C   UNK N   1      34.020  15.386   9.479  0.00  0.00     0.027 A 
HETATM   12  C   UNK N   1      34.458  14.418  10.374  0.00  0.00     0.031 A 
BRANCH  10  13
HETATM   13  S   UNK N   1      34.236  17.810   8.211  0.00  0.00     0.256 S 
HETATM   14  O   UNK N   1      34.705  17.344   6.827  0.00  0.00    -0.201 OA
HETATM   15  O   UNK N   1      35.017  19.119   8.411  0.00  0.00    -0.201 OA
BRANCH  13  16
HETATM   16  N   UNK N   1      32.571  18.358   8.011  0.00  0.00    -0.324 N 
HETATM   17  H   UNK N   1      31.553  18.345   8.063  0.00  0.00     0.169 HD
HETATM   18  H   UNK N   1      32.724  19.256   7.551  0.00  0.00     0.169 HD
ENDBRANCH  13  16
ENDBRANCH  10  13
ENDBRANCH   5   7
BRANCH   1  19
HETATM   19  C   UNK N   1      37.572  12.748  10.214  0.00  0.00    -0.009 A 
HETATM   20  C   UNK N   1      38.543  13.689   9.837  0.00  0.00     0.016 A 
HETATM   21  C   UNK N   1      39.090  13.663   8.541  0.00  0.00     0.037 A 
HETATM   22  C   UNK N   1      38.651  12.714   7.605  0.00  0.00     0.068 A 
HETATM   23  C   UNK N   1      37.642  11.817   7.964  0.00  0.00     0.037 A 
HETATM   24  C   UNK N   1      37.109  11.849   9.244  0.00  0.00     0.016 A 
BRANCH  22  25
HETATM   25  O   UNK N   1      39.212  12.672   6.371  0.00  0.00    -0.352 OA
BRANCH  25  26
HETATM   26  C   UNK N   1      38.468  12.741   5.211  0.00  0.00     0.171 C 
HETATM   27  C   UNK N   1      37.897  14.136   5.048  0.00  0.00     0.034 C 
ENDBRANCH  25  26
ENDBRANCH  22  25
ENDBRANCH   1  19
TORSDOF 6
ENDMDL
MODEL 9
REMARK VINA RESULT:      -6.1     22.528     26.434
REMARK  6 active torsions:
REMARK  status: ('A' for Active; 'I' for Inactive)
REMARK    1  A    between atoms: C_2  and  O_3 
REMARK    2  A    between atoms: O_3  and  C_4 
REMARK    3  A    between atoms: C_7  and  C_10 
REMARK    4  A    between atoms: N_14  and  C_15 
REMARK    5  A    between atoms: C_18  and  S_21 
REMARK    6  A    between atoms: S_21  and  N_24 
ROOT
HETATM    1  C   UNK N   1      35.904  11.194  16.348  0.00  0.00     0.050 A 
HETATM    2  C   UNK N   1      35.711  11.079  17.714  0.00  0.00     0.039 A 
HETATM    3  C   UNK N   1      35.351  12.344  18.139  0.00  0.00    -0.044 A 
HETATM    4  C   UNK N   1      35.326  13.187  17.044  0.00  0.00     0.104 A 
HETATM    5  N   UNK N   1      35.634  12.470  15.949  0.00  0.00    -0.321 N 
HETATM    6  C   UNK N   1      35.084  12.743  19.546  0.00  0.00     0.049 C 
ENDROOT
BRANCH   5   7
HETATM    7  C   UNK N   1      35.700  13.002  14.608  0.00  0.00     0.039 A 
HETATM    8  C   UNK N   1      34.988  12.386  13.570  0.00  0.00     0.031 A 
HETATM    9  C   UNK N   1      34.820  13.057  12.352  0.00  0.00     0.027 A 
HETATM   10  C   UNK N   1      35.392  14.321  12.163  0.00  0.00     0.079 A 
HETATM   11  C   UNK N   1      36.197  14.879  13.152  0.00  0.00     0.027 A 
HETATM   12  C   UNK N   1      36.358  14.216  14.363  0.00  0.00     0.031 A 
BRANCH  10  13
HETATM   13  S   UNK N   1      34.907  15.329  10.773  0.00  0.00     0.256 S 
HETATM   14  O   UNK N   1      35.655  15.074   9.458  0.00  0.00    -0.201 OA
HETATM   15  O   UNK N   1      35.194  16.815  11.043  0.00  0.00    -0.201 OA
BRANCH  13  16
HETATM   16  N   UNK N   1      33.189  15.313  10.375  0.00  0.00    -0.324 N 
HETATM   17  H   UNK N   1      32.234  15.654  10.269  0.00  0.00     0.169 HD
HETATM   18  H   UNK N   1      33.084  14.356  10.038  0.00  0.00     0.169 HD
ENDBRANCH  13  16
ENDBRANCH  10  13
ENDBRANCH   5   7
BRANCH   1  19
HETATM   19  C   UNK N   1      36.479  10.103  15.503  0.00  0.00    -0.009 A 
HETATM   20  C   UNK N   1      37.800  10.156  15.034  0.00  0.00     0.016 A 
HETATM   21  C   UNK N   1      38.312   9.117  14.237  0.00  0.00     0.037 A 
HETATM   22  C   UNK N   1      37.499   8.030  13.879  0.00  0.00     0.068 A 
HETATM   23  C   UNK N   1      36.167   8.008  14.299  0.00  0.00     0.037 A 
HETATM   24  C   UNK N   1      35.670   9.037  15.085  0.00  0.00     0.016 A 
BRANCH  22  25
HETATM   25  O   UNK N   1      38.014   7.014  13.144  0.00  0.00    -0.352 OA
BRANCH  25  26
HETATM   26  C   UNK N   1      39.130   7.163  12.346  0.00  0.00     0.171 C 
HETATM   27  C   UNK N   1      38.709   7.492  10.927  0.00  0.00     0.034 C 
ENDBRANCH  25  26
ENDBRANCH  22  25
ENDBRANCH   1  19
TORSDOF 6
ENDMDL
