REMARK  4 active torsions:
REMARK  status: ('A' for Active; 'I' for Inactive)
REMARK    1  A    between atoms: C_4  and  C_7 
REMARK    2  A    between atoms: C_10  and  N_18 
REMARK    3  A    between atoms: C_19  and  N_18 
REMARK    4  A    between atoms: C_22  and  O_25 
ROOT
HETATM    1  C   UNK N   1       3.925   2.562   0.195  0.00  0.00     0.118 A 
HETATM    2  N   UNK N   1       3.824   1.193   0.136  0.00  0.00    -0.327 N 
ATOM      3  HN  UNK N   1       4.676   0.632   0.151  1.00  0.00     0.169 HD
HETATM    4  C   UNK N   1       2.616   0.563   0.057  0.00  0.00     0.117 A 
HETATM    5  C   UNK N   1       1.466   1.367   0.046  0.00  0.00     0.053 A 
HETATM    6  C   UNK N   1       1.593   2.716   0.110  0.00  0.00     0.120 A 
HETATM    7  N   UNK N   1       2.793   3.331   0.181  0.00  0.00    -0.327 N 
ATOM      8  HN  UNK N   1       2.854   4.348   0.224  1.00  0.00     0.169 HD
HETATM    9  N   UNK N   1       0.399   3.326   0.101  0.00  0.00    -0.351 N 
HETATM   10  C   UNK N   1      -0.518   2.332   0.027  0.00  0.00     0.091 A 
HETATM   11  C   UNK N   1       0.118   1.090  -0.013  0.00  0.00     0.036 A 
HETATM   12  H   UNK N   1       0.226   4.295   0.139  0.00  0.00     0.166 HD
ENDROOT
BRANCH   4  13
HETATM   13  N   UNK N   1       2.581  -0.858  -0.022  0.00  0.00    -0.371 N 
HETATM   14  H   UNK N   1       3.418  -1.352   0.133  0.00  0.00     0.161 HD
BRANCH  13  15
HETATM   15  C   UNK N   1       1.391  -1.617  -0.317  0.00  0.00     0.083 C 
HETATM   16  C   UNK N   1       1.747  -3.019  -0.813  0.00  0.00     0.028 C 
HETATM   17  C   UNK N   1       0.492  -3.875  -1.070  0.00  0.00     0.034 C 
HETATM   18  C   UNK N   1      -0.799  -3.066  -0.913  0.00  0.00     0.118 C 
HETATM   19  C   UNK N   1      -0.865  -2.429   0.483  0.00  0.00     0.034 C 
HETATM   20  C   UNK N   1       0.448  -1.729   0.882  0.00  0.00     0.028 C 
BRANCH  18  21
HETATM   21  O   UNK N   1      -1.912  -3.874  -1.132  0.00  0.00    -0.396 OA
HETATM   22  H   UNK N   1      -2.787  -3.484  -1.285  0.00  0.00     0.210 HD
ENDBRANCH  18  21
ENDBRANCH  13  15
ENDBRANCH   4  13
BRANCH   1  23
HETATM   23  C   UNK N   1       5.247   3.201   0.311  0.00  0.00     0.008 A 
HETATM   24  C   UNK N   1       6.410   2.419   0.362  0.00  0.00     0.015 A 
HETATM   25  C   UNK N   1       7.661   3.024   0.513  0.00  0.00     0.001 A 
HETATM   26  C   UNK N   1       7.757   4.414   0.615  0.00  0.00     0.000 A 
HETATM   27  C   UNK N   1       6.604   5.201   0.560  0.00  0.00     0.001 A 
HETATM   28  C   UNK N   1       5.352   4.597   0.409  0.00  0.00     0.015 A 
ENDBRANCH   1  23
TORSDOF 4
