MODEL 1
REMARK VINA RESULT:      -5.6      0.000      0.000
REMARK  8 active torsions:
REMARK  status: ('A' for Active; 'I' for Inactive)
REMARK    1  A    between atoms: C_3  and  C_2 
REMARK    2  A    between atoms: C_4  and  C_2 
REMARK    3  A    between atoms: C_5  and  C_3 
REMARK    4  A    between atoms: N_11  and  C_4 
REMARK    5  A    between atoms: C_6  and  C_5 
REMARK    6  A    between atoms: C_5  and  N_8 
REMARK    7  A    between atoms: O_17  and  C_6 
REMARK       I    between atoms: N_11  and  C_7 
REMARK       I    between atoms: N_12  and  C_7 
REMARK    8  A    between atoms: N_13  and  N_12 
ROOT
HETATM    1  C   UNK N   1      34.729  14.082  11.035  0.00  0.00     0.138 C 
ENDROOT
BRANCH   1   2
HETATM    2  C   UNK N   1      34.953  13.872  12.527  0.00  0.00     0.023 C 
BRANCH   2   3
HETATM    3  C   UNK N   1      36.426  13.729  12.901  0.00  0.00     0.036 C 
BRANCH   3   4
HETATM    4  C   UNK N   1      36.685  12.857  14.131  0.00  0.00     0.175 C 
BRANCH   4   5
HETATM    5  C   UNK N   1      36.675  13.744  15.370  0.00  0.00     0.280 C 
HETATM    6  O   UNK N   1      35.750  13.601  16.154  0.00  0.00    -0.263 OA
BRANCH   5   7
HETATM    7  O   UNK N   1      37.628  14.669  15.675  0.00  0.00    -0.325 OA
HETATM    8  C   UNK N   1      37.406  15.956  16.097  0.00  0.00     0.213 C 
ENDBRANCH   5   7
ENDBRANCH   4   5
BRANCH   4   9
HETATM    9  N   UNK N   1      37.929  12.133  13.927  0.00  0.00    -0.418 N 
HETATM   10  H   UNK N   1      38.822  12.621  14.005  0.00  0.00     0.150 HD
HETATM   11  H   UNK N   1      37.910  11.138  13.704  0.00  0.00     0.150 HD
ENDBRANCH   4   9
ENDBRANCH   3   4
ENDBRANCH   2   3
ENDBRANCH   1   2
BRANCH   1  12
HETATM   12  N   UNK N   1      34.340  15.445  10.748  0.00  0.00    -0.225 N 
HETATM   13  C   UNK N   1      34.724  16.144   9.570  0.00  0.00     0.691 C 
HETATM   14  N   UNK N   1      35.335  15.530   8.621  0.00  0.00    -0.233 N 
HETATM   15  N   UNK N   1      34.466  17.544   9.489  0.00  0.00    -0.072 N 
HETATM   16  H   UNK N   1      35.570  14.579   8.703  0.00  0.00     0.174 HD
ATOM     17  HN  UNK N   1      35.579  16.038   7.771  1.00  0.00     0.174 HD
HETATM   18  H   UNK N   1      34.018  17.974  10.251  0.00  0.00     0.212 HD
HETATM   19  H   UNK N   1      33.776  15.914  11.404  0.00  0.00     0.177 HD
BRANCH  15  20
HETATM   20  N   UNK N   1      34.803  18.334   8.409  0.00  0.00    -0.024 N 
HETATM   21  O   UNK N   1      34.518  17.976   7.309  0.00  0.00    -0.516 OA
HETATM   22  O   UNK N   1      35.382  19.369   8.560  0.00  0.00    -0.516 OA
ENDBRANCH  15  20
ENDBRANCH   1  12
TORSDOF 8
ENDMDL
MODEL 2
REMARK VINA RESULT:      -5.4      1.588      2.080
REMARK  8 active torsions:
REMARK  status: ('A' for Active; 'I' for Inactive)
REMARK    1  A    between atoms: C_3  and  C_2 
REMARK    2  A    between atoms: C_4  and  C_2 
REMARK    3  A    between atoms: C_5  and  C_3 
REMARK    4  A    between atoms: N_11  and  C_4 
REMARK    5  A    between atoms: C_6  and  C_5 
REMARK    6  A    between atoms: C_5  and  N_8 
REMARK    7  A    between atoms: O_17  and  C_6 
REMARK       I    between atoms: N_11  and  C_7 
REMARK       I    between atoms: N_12  and  C_7 
REMARK    8  A    between atoms: N_13  and  N_12 
ROOT
HETATM    1  C   UNK N   1      34.586  14.231  11.160  0.00  0.00     0.138 C 
ENDROOT
BRANCH   1   2
HETATM    2  C   UNK N   1      35.400  14.230  12.447  0.00  0.00     0.023 C 
BRANCH   2   3
HETATM    3  C   UNK N   1      35.495  12.853  13.100  0.00  0.00     0.036 C 
BRANCH   3   4
HETATM    4  C   UNK N   1      36.203  12.844  14.456  0.00  0.00     0.175 C 
BRANCH   4   5
HETATM    5  C   UNK N   1      35.188  12.485  15.534  0.00  0.00     0.280 C 
HETATM    6  O   UNK N   1      34.208  13.205  15.645  0.00  0.00    -0.263 OA
BRANCH   5   7
HETATM    7  O   UNK N   1      35.285  11.414  16.371  0.00  0.00    -0.325 OA
HETATM    8  C   UNK N   1      36.407  10.653  16.592  0.00  0.00     0.213 C 
ENDBRANCH   5   7
ENDBRANCH   4   5
BRANCH   4   9
HETATM    9  N   UNK N   1      36.845  14.134  14.648  0.00  0.00    -0.418 N 
HETATM   10  H   UNK N   1      37.197  14.653  13.843  0.00  0.00     0.150 HD
HETATM   11  H   UNK N   1      36.945  14.519  15.586  0.00  0.00     0.150 HD
ENDBRANCH   4   9
ENDBRANCH   3   4
ENDBRANCH   2   3
ENDBRANCH   1   2
BRANCH   1  12
HETATM   12  N   UNK N   1      34.192  15.570  10.786  0.00  0.00    -0.225 N 
HETATM   13  C   UNK N   1      34.650  16.229   9.612  0.00  0.00     0.691 C 
HETATM   14  N   UNK N   1      35.343  15.592   8.738  0.00  0.00    -0.233 N 
HETATM   15  N   UNK N   1      34.370  17.618   9.451  0.00  0.00    -0.072 N 
HETATM   16  H   UNK N   1      35.590  14.650   8.878  0.00  0.00     0.174 HD
ATOM     17  HN  UNK N   1      35.640  16.069   7.887  1.00  0.00     0.174 HD
HETATM   18  H   UNK N   1      33.857  18.069  10.159  0.00  0.00     0.212 HD
HETATM   19  H   UNK N   1      33.571  16.054  11.378  0.00  0.00     0.177 HD
BRANCH  15  20
HETATM   20  N   UNK N   1      34.772  18.371   8.366  0.00  0.00    -0.024 N 
HETATM   21  O   UNK N   1      35.403  19.365   8.544  0.00  0.00    -0.516 OA
HETATM   22  O   UNK N   1      34.491  18.043   7.251  0.00  0.00    -0.516 OA
ENDBRANCH  15  20
ENDBRANCH   1  12
TORSDOF 8
ENDMDL
MODEL 3
REMARK VINA RESULT:      -5.0      6.008      8.868
REMARK  8 active torsions:
REMARK  status: ('A' for Active; 'I' for Inactive)
REMARK    1  A    between atoms: C_3  and  C_2 
REMARK    2  A    between atoms: C_4  and  C_2 
REMARK    3  A    between atoms: C_5  and  C_3 
REMARK    4  A    between atoms: N_11  and  C_4 
REMARK    5  A    between atoms: C_6  and  C_5 
REMARK    6  A    between atoms: C_5  and  N_8 
REMARK    7  A    between atoms: O_17  and  C_6 
REMARK       I    between atoms: N_11  and  C_7 
REMARK       I    between atoms: N_12  and  C_7 
REMARK    8  A    between atoms: N_13  and  N_12 
ROOT
HETATM    1  C   UNK N   1      30.594  16.534   6.709  0.00  0.00     0.138 C 
ENDROOT
BRANCH   1   2
HETATM    2  C   UNK N   1      30.170  16.756   5.264  0.00  0.00     0.023 C 
BRANCH   2   3
HETATM    3  C   UNK N   1      30.887  15.839   4.276  0.00  0.00     0.036 C 
BRANCH   3   4
HETATM    4  C   UNK N   1      31.797  16.564   3.284  0.00  0.00     0.175 C 
BRANCH   4   5
HETATM    5  C   UNK N   1      33.202  15.986   3.396  0.00  0.00     0.280 C 
HETATM    6  O   UNK N   1      33.748  15.634   2.362  0.00  0.00    -0.263 OA
BRANCH   5   7
HETATM    7  O   UNK N   1      33.899  15.850   4.559  0.00  0.00    -0.325 OA
HETATM    8  C   UNK N   1      34.648  14.763   4.936  0.00  0.00     0.213 C 
ENDBRANCH   5   7
ENDBRANCH   4   5
BRANCH   4   9
HETATM    9  N   UNK N   1      31.717  17.992   3.547  0.00  0.00    -0.418 N 
HETATM   10  H   UNK N   1      32.154  18.654   2.906  0.00  0.00     0.150 HD
HETATM   11  H   UNK N   1      31.224  18.332   4.372  0.00  0.00     0.150 HD
ENDBRANCH   4   9
ENDBRANCH   3   4
ENDBRANCH   2   3
ENDBRANCH   1   2
BRANCH   1  12
HETATM   12  N   UNK N   1      32.033  16.559   6.846  0.00  0.00    -0.225 N 
HETATM   13  C   UNK N   1      32.717  17.294   7.854  0.00  0.00     0.691 C 
HETATM   14  N   UNK N   1      32.061  17.870   8.797  0.00  0.00    -0.233 N 
HETATM   15  N   UNK N   1      34.134  17.420   7.767  0.00  0.00    -0.072 N 
HETATM   16  H   UNK N   1      31.078  17.836   8.822  0.00  0.00     0.174 HD
ATOM     17  HN  UNK N   1      32.566  18.369   9.528  1.00  0.00     0.174 HD
HETATM   18  H   UNK N   1      34.591  16.982   7.014  0.00  0.00     0.212 HD
HETATM   19  H   UNK N   1      32.569  16.038   6.206  0.00  0.00     0.177 HD
BRANCH  15  20
HETATM   20  N   UNK N   1      34.908  18.118   8.672  0.00  0.00    -0.024 N 
HETATM   21  O   UNK N   1      35.256  17.586   9.680  0.00  0.00    -0.516 OA
HETATM   22  O   UNK N   1      35.230  19.250   8.463  0.00  0.00    -0.516 OA
ENDBRANCH  15  20
ENDBRANCH   1  12
TORSDOF 8
ENDMDL
MODEL 4
REMARK VINA RESULT:      -4.9      6.000      8.574
REMARK  8 active torsions:
REMARK  status: ('A' for Active; 'I' for Inactive)
REMARK    1  A    between atoms: C_3  and  C_2 
REMARK    2  A    between atoms: C_4  and  C_2 
REMARK    3  A    between atoms: C_5  and  C_3 
REMARK    4  A    between atoms: N_11  and  C_4 
REMARK    5  A    between atoms: C_6  and  C_5 
REMARK    6  A    between atoms: C_5  and  N_8 
REMARK    7  A    between atoms: O_17  and  C_6 
REMARK       I    between atoms: N_11  and  C_7 
REMARK       I    between atoms: N_12  and  C_7 
REMARK    8  A    between atoms: N_13  and  N_12 
ROOT
HETATM    1  C   UNK N   1      29.519  16.884   7.343  0.00  0.00     0.138 C 
ENDROOT
BRANCH   1   2
HETATM    2  C   UNK N   1      31.032  16.778   7.478  0.00  0.00     0.023 C 
BRANCH   2   3
HETATM    3  C   UNK N   1      31.667  18.005   8.128  0.00  0.00     0.036 C 
BRANCH   3   4
HETATM    4  C   UNK N   1      33.020  17.742   8.790  0.00  0.00     0.175 C 
BRANCH   4   5
HETATM    5  C   UNK N   1      34.124  18.210   7.849  0.00  0.00     0.280 C 
HETATM    6  O   UNK N   1      34.981  18.947   8.312  0.00  0.00    -0.263 OA
BRANCH   5   7
HETATM    7  O   UNK N   1      34.234  17.853   6.539  0.00  0.00    -0.325 OA
HETATM    8  C   UNK N   1      34.405  16.580   6.054  0.00  0.00     0.213 C 
ENDBRANCH   5   7
ENDBRANCH   4   5
BRANCH   4   9
HETATM    9  N   UNK N   1      33.093  16.333   9.140  0.00  0.00    -0.418 N 
HETATM   10  H   UNK N   1      32.325  15.707   8.899  0.00  0.00     0.150 HD
HETATM   11  H   UNK N   1      33.912  15.971   9.628  0.00  0.00     0.150 HD
ENDBRANCH   4   9
ENDBRANCH   3   4
ENDBRANCH   2   3
ENDBRANCH   1   2
BRANCH   1  12
HETATM   12  N   UNK N   1      29.145  17.874   6.359  0.00  0.00    -0.225 N 
HETATM   13  C   UNK N   1      28.186  18.898   6.593  0.00  0.00     0.691 C 
HETATM   14  N   UNK N   1      27.701  19.076   7.769  0.00  0.00    -0.233 N 
HETATM   15  N   UNK N   1      27.739  19.684   5.490  0.00  0.00    -0.072 N 
HETATM   16  H   UNK N   1      27.962  18.493   8.517  0.00  0.00     0.174 HD
ATOM     17  HN  UNK N   1      27.036  19.832   7.928  1.00  0.00     0.174 HD
HETATM   18  H   UNK N   1      28.122  19.494   4.604  0.00  0.00     0.212 HD
HETATM   19  H   UNK N   1      29.579  17.837   5.476  0.00  0.00     0.177 HD
BRANCH  15  20
HETATM   20  N   UNK N   1      26.804  20.694   5.586  0.00  0.00    -0.024 N 
HETATM   21  O   UNK N   1      25.768  20.591   5.007  0.00  0.00    -0.516 OA
HETATM   22  O   UNK N   1      27.020  21.674   6.237  0.00  0.00    -0.516 OA
ENDBRANCH  15  20
ENDBRANCH   1  12
TORSDOF 8
ENDMDL
MODEL 5
REMARK VINA RESULT:      -4.9      4.016      5.332
REMARK  8 active torsions:
REMARK  status: ('A' for Active; 'I' for Inactive)
REMARK    1  A    between atoms: C_3  and  C_2 
REMARK    2  A    between atoms: C_4  and  C_2 
REMARK    3  A    between atoms: C_5  and  C_3 
REMARK    4  A    between atoms: N_11  and  C_4 
REMARK    5  A    between atoms: C_6  and  C_5 
REMARK    6  A    between atoms: C_5  and  N_8 
REMARK    7  A    between atoms: O_17  and  C_6 
REMARK       I    between atoms: N_11  and  C_7 
REMARK       I    between atoms: N_12  and  C_7 
REMARK    8  A    between atoms: N_13  and  N_12 
ROOT
HETATM    1  C   UNK N   1      33.291  17.709   7.854  0.00  0.00     0.138 C 
ENDROOT
BRANCH   1   2
HETATM    2  C   UNK N   1      34.349  16.635   8.068  0.00  0.00     0.023 C 
BRANCH   2   3
HETATM    3  C   UNK N   1      34.019  15.682   9.214  0.00  0.00     0.036 C 
BRANCH   3   4
HETATM    4  C   UNK N   1      35.093  15.603  10.300  0.00  0.00     0.175 C 
BRANCH   4   5
HETATM    5  C   UNK N   1      34.837  14.366  11.152  0.00  0.00     0.280 C 
HETATM    6  O   UNK N   1      34.590  13.323  10.567  0.00  0.00    -0.263 OA
BRANCH   5   7
HETATM    7  O   UNK N   1      34.879  14.335  12.514  0.00  0.00    -0.325 OA
HETATM    8  C   UNK N   1      35.991  14.111  13.288  0.00  0.00     0.213 C 
ENDBRANCH   5   7
ENDBRANCH   4   5
BRANCH   4   9
HETATM    9  N   UNK N   1      35.086  16.851  11.045  0.00  0.00    -0.418 N 
HETATM   10  H   UNK N   1      35.128  16.838  12.064  0.00  0.00     0.150 HD
HETATM   11  H   UNK N   1      35.040  17.741  10.549  0.00  0.00     0.150 HD
ENDBRANCH   4   9
ENDBRANCH   3   4
ENDBRANCH   2   3
ENDBRANCH   1   2
BRANCH   1  12
HETATM   12  N   UNK N   1      32.259  17.641   8.865  0.00  0.00    -0.225 N 
HETATM   13  C   UNK N   1      30.868  17.593   8.572  0.00  0.00     0.691 C 
HETATM   14  N   UNK N   1      30.464  17.463   7.359  0.00  0.00    -0.233 N 
HETATM   15  N   UNK N   1      29.937  17.743   9.641  0.00  0.00    -0.072 N 
HETATM   16  H   UNK N   1      31.106  17.424   6.614  0.00  0.00     0.174 HD
ATOM     17  HN  UNK N   1      29.465  17.402   7.166  1.00  0.00     0.174 HD
HETATM   18  H   UNK N   1      30.294  17.864  10.549  0.00  0.00     0.212 HD
HETATM   19  H   UNK N   1      32.536  17.626   9.809  0.00  0.00     0.177 HD
BRANCH  15  20
HETATM   20  N   UNK N   1      28.566  17.729   9.483  0.00  0.00    -0.024 N 
HETATM   21  O   UNK N   1      28.035  18.615   8.890  0.00  0.00    -0.516 OA
HETATM   22  O   UNK N   1      27.903  16.845   9.938  0.00  0.00    -0.516 OA
ENDBRANCH  15  20
ENDBRANCH   1  12
TORSDOF 8
ENDMDL
MODEL 6
REMARK VINA RESULT:      -4.9      5.706      8.006
REMARK  8 active torsions:
REMARK  status: ('A' for Active; 'I' for Inactive)
REMARK    1  A    between atoms: C_3  and  C_2 
REMARK    2  A    between atoms: C_4  and  C_2 
REMARK    3  A    between atoms: C_5  and  C_3 
REMARK    4  A    between atoms: N_11  and  C_4 
REMARK    5  A    between atoms: C_6  and  C_5 
REMARK    6  A    between atoms: C_5  and  N_8 
REMARK    7  A    between atoms: O_17  and  C_6 
REMARK       I    between atoms: N_11  and  C_7 
REMARK       I    between atoms: N_12  and  C_7 
REMARK    8  A    between atoms: N_13  and  N_12 
ROOT
HETATM    1  C   UNK N   1      29.534  17.653   9.001  0.00  0.00     0.138 C 
ENDROOT
BRANCH   1   2
HETATM    2  C   UNK N   1      30.896  18.326   8.896  0.00  0.00     0.023 C 
BRANCH   2   3
HETATM    3  C   UNK N   1      31.835  17.637   7.909  0.00  0.00     0.036 C 
BRANCH   3   4
HETATM    4  C   UNK N   1      32.934  16.797   8.561  0.00  0.00     0.175 C 
BRANCH   4   5
HETATM    5  C   UNK N   1      34.231  17.597   8.552  0.00  0.00     0.280 C 
HETATM    6  O   UNK N   1      34.514  18.196   7.527  0.00  0.00    -0.263 OA
BRANCH   5   7
HETATM    7  O   UNK N   1      35.087  17.706   9.607  0.00  0.00    -0.325 OA
HETATM    8  C   UNK N   1      35.416  16.711  10.494  0.00  0.00     0.213 C 
ENDBRANCH   5   7
ENDBRANCH   4   5
BRANCH   4   9
HETATM    9  N   UNK N   1      33.015  15.524   7.863  0.00  0.00    -0.418 N 
HETATM   10  H   UNK N   1      33.192  15.504   6.858  0.00  0.00     0.150 HD
HETATM   11  H   UNK N   1      32.894  14.652   8.376  0.00  0.00     0.150 HD
ENDBRANCH   4   9
ENDBRANCH   3   4
ENDBRANCH   2   3
ENDBRANCH   1   2
BRANCH   1  12
HETATM   12  N   UNK N   1      28.462  18.605   8.817  0.00  0.00    -0.225 N 
HETATM   13  C   UNK N   1      27.990  19.027   7.543  0.00  0.00     0.691 C 
HETATM   14  N   UNK N   1      28.416  18.460   6.472  0.00  0.00    -0.233 N 
HETATM   15  N   UNK N   1      27.080  20.122   7.478  0.00  0.00    -0.072 N 
HETATM   16  H   UNK N   1      29.093  17.746   6.513  0.00  0.00     0.174 HD
ATOM     17  HN  UNK N   1      28.049  18.753   5.568  1.00  0.00     0.174 HD
HETATM   18  H   UNK N   1      26.801  20.541   8.323  0.00  0.00     0.212 HD
HETATM   19  H   UNK N   1      28.033  18.981   9.619  0.00  0.00     0.177 HD
BRANCH  15  20
HETATM   20  N   UNK N   1      26.564  20.634   6.304  0.00  0.00    -0.024 N 
HETATM   21  O   UNK N   1      26.737  21.782   6.038  0.00  0.00    -0.516 OA
HETATM   22  O   UNK N   1      25.941  19.943   5.553  0.00  0.00    -0.516 OA
ENDBRANCH  15  20
ENDBRANCH   1  12
TORSDOF 8
ENDMDL
MODEL 7
REMARK VINA RESULT:      -4.9      2.280      7.697
REMARK  8 active torsions:
REMARK  status: ('A' for Active; 'I' for Inactive)
REMARK    1  A    between atoms: C_3  and  C_2 
REMARK    2  A    between atoms: C_4  and  C_2 
REMARK    3  A    between atoms: C_5  and  C_3 
REMARK    4  A    between atoms: N_11  and  C_4 
REMARK    5  A    between atoms: C_6  and  C_5 
REMARK    6  A    between atoms: C_5  and  N_8 
REMARK    7  A    between atoms: O_17  and  C_6 
REMARK       I    between atoms: N_11  and  C_7 
REMARK       I    between atoms: N_12  and  C_7 
REMARK    8  A    between atoms: N_13  and  N_12 
ROOT
HETATM    1  C   UNK N   1      36.054  15.468  10.349  0.00  0.00     0.138 C 
ENDROOT
BRANCH   1   2
HETATM    2  C   UNK N   1      35.222  16.740  10.264  0.00  0.00     0.023 C 
BRANCH   2   3
HETATM    3  C   UNK N   1      34.023  16.615   9.328  0.00  0.00     0.036 C 
BRANCH   3   4
HETATM    4  C   UNK N   1      33.904  17.739   8.298  0.00  0.00     0.175 C 
BRANCH   4   5
HETATM    5  C   UNK N   1      33.971  17.133   6.902  0.00  0.00     0.280 C 
HETATM    6  O   UNK N   1      34.153  17.896   5.966  0.00  0.00    -0.263 OA
BRANCH   5   7
HETATM    7  O   UNK N   1      33.861  15.804   6.623  0.00  0.00    -0.325 OA
HETATM    8  C   UNK N   1      33.097  15.242   5.630  0.00  0.00     0.213 C 
ENDBRANCH   5   7
ENDBRANCH   4   5
BRANCH   4   9
HETATM    9  N   UNK N   1      34.940  18.723   8.571  0.00  0.00    -0.418 N 
HETATM   10  H   UNK N   1      35.611  18.972   7.844  0.00  0.00     0.150 HD
HETATM   11  H   UNK N   1      34.996  19.163   9.488  0.00  0.00     0.150 HD
ENDBRANCH   4   9
ENDBRANCH   3   4
ENDBRANCH   2   3
ENDBRANCH   1   2
BRANCH   1  12
HETATM   12  N   UNK N   1      36.463  15.195  11.709  0.00  0.00    -0.225 N 
HETATM   13  C   UNK N   1      35.829  14.237  12.547  0.00  0.00     0.691 C 
HETATM   14  N   UNK N   1      34.929  13.452  12.072  0.00  0.00    -0.233 N 
HETATM   15  N   UNK N   1      36.173  14.201  13.931  0.00  0.00    -0.072 N 
HETATM   16  H   UNK N   1      34.646  13.519  11.132  0.00  0.00     0.174 HD
ATOM     17  HN  UNK N   1      34.503  12.751  12.678  1.00  0.00     0.174 HD
HETATM   18  H   UNK N   1      36.849  14.839  14.253  0.00  0.00     0.212 HD
HETATM   19  H   UNK N   1      37.224  15.701  12.075  0.00  0.00     0.177 HD
BRANCH  15  20
HETATM   20  N   UNK N   1      35.618  13.331  14.846  0.00  0.00    -0.024 N 
HETATM   21  O   UNK N   1      36.329  12.727  15.587  0.00  0.00    -0.516 OA
HETATM   22  O   UNK N   1      34.435  13.170  14.904  0.00  0.00    -0.516 OA
ENDBRANCH  15  20
ENDBRANCH   1  12
TORSDOF 8
ENDMDL
MODEL 8
REMARK VINA RESULT:      -4.7      2.874      4.198
REMARK  8 active torsions:
REMARK  status: ('A' for Active; 'I' for Inactive)
REMARK    1  A    between atoms: C_3  and  C_2 
REMARK    2  A    between atoms: C_4  and  C_2 
REMARK    3  A    between atoms: C_5  and  C_3 
REMARK    4  A    between atoms: N_11  and  C_4 
REMARK    5  A    between atoms: C_6  and  C_5 
REMARK    6  A    between atoms: C_5  and  N_8 
REMARK    7  A    between atoms: O_17  and  C_6 
REMARK       I    between atoms: N_11  and  C_7 
REMARK       I    between atoms: N_12  and  C_7 
REMARK    8  A    between atoms: N_13  and  N_12 
ROOT
HETATM    1  C   UNK N   1      37.392  11.265  13.014  0.00  0.00     0.138 C 
ENDROOT
BRANCH   1   2
HETATM    2  C   UNK N   1      37.883  11.336  14.454  0.00  0.00     0.023 C 
BRANCH   2   3
HETATM    3  C   UNK N   1      36.990  12.185  15.356  0.00  0.00     0.036 C 
BRANCH   3   4
HETATM    4  C   UNK N   1      35.728  11.476  15.847  0.00  0.00     0.175 C 
BRANCH   4   5
HETATM    5  C   UNK N   1      34.513  12.156  15.229  0.00  0.00     0.280 C 
HETATM    6  O   UNK N   1      34.051  13.122  15.818  0.00  0.00    -0.263 OA
BRANCH   5   7
HETATM    7  O   UNK N   1      33.916  11.779  14.064  0.00  0.00    -0.325 OA
HETATM    8  C   UNK N   1      33.836  10.502  13.567  0.00  0.00     0.213 C 
ENDBRANCH   5   7
ENDBRANCH   4   5
BRANCH   4   9
HETATM    9  N   UNK N   1      35.737  11.477  17.301  0.00  0.00    -0.418 N 
HETATM   10  H   UNK N   1      35.080  12.065  17.814  0.00  0.00     0.150 HD
HETATM   11  H   UNK N   1      36.399  10.890  17.807  0.00  0.00     0.150 HD
ENDBRANCH   4   9
ENDBRANCH   3   4
ENDBRANCH   2   3
ENDBRANCH   1   2
BRANCH   1  12
HETATM   12  N   UNK N   1      37.780  12.440  12.267  0.00  0.00    -0.225 N 
HETATM   13  C   UNK N   1      36.855  13.387  11.747  0.00  0.00     0.691 C 
HETATM   14  N   UNK N   1      35.608  13.310  12.048  0.00  0.00    -0.233 N 
HETATM   15  N   UNK N   1      37.330  14.387  10.848  0.00  0.00    -0.072 N 
HETATM   16  H   UNK N   1      35.270  12.582  12.617  0.00  0.00     0.174 HD
ATOM     17  HN  UNK N   1      34.961  14.012  11.691  1.00  0.00     0.174 HD
HETATM   18  H   UNK N   1      38.288  14.391  10.628  0.00  0.00     0.212 HD
HETATM   19  H   UNK N   1      38.740  12.593  12.110  0.00  0.00     0.177 HD
BRANCH  15  20
HETATM   20  N   UNK N   1      36.530  15.350  10.266  0.00  0.00    -0.024 N 
HETATM   21  O   UNK N   1      36.442  16.424  10.774  0.00  0.00    -0.516 OA
HETATM   22  O   UNK N   1      35.921  15.121   9.263  0.00  0.00    -0.516 OA
ENDBRANCH  15  20
ENDBRANCH   1  12
TORSDOF 8
ENDMDL
MODEL 9
REMARK VINA RESULT:      -4.7      2.219      7.409
REMARK  8 active torsions:
REMARK  status: ('A' for Active; 'I' for Inactive)
REMARK    1  A    between atoms: C_3  and  C_2 
REMARK    2  A    between atoms: C_4  and  C_2 
REMARK    3  A    between atoms: C_5  and  C_3 
REMARK    4  A    between atoms: N_11  and  C_4 
REMARK    5  A    between atoms: C_6  and  C_5 
REMARK    6  A    between atoms: C_5  and  N_8 
REMARK    7  A    between atoms: O_17  and  C_6 
REMARK       I    between atoms: N_11  and  C_7 
REMARK       I    between atoms: N_12  and  C_7 
REMARK    8  A    between atoms: N_13  and  N_12 
ROOT
HETATM    1  C   UNK N   1      36.493  13.947  12.311  0.00  0.00     0.138 C 
ENDROOT
BRANCH   1   2
HETATM    2  C   UNK N   1      35.821  15.216  11.803  0.00  0.00     0.023 C 
BRANCH   2   3
HETATM    3  C   UNK N   1      35.809  15.324  10.280  0.00  0.00     0.036 C 
BRANCH   3   4
HETATM    4  C   UNK N   1      34.428  15.578   9.674  0.00  0.00     0.175 C 
BRANCH   4   5
HETATM    5  C   UNK N   1      34.364  17.021   9.191  0.00  0.00     0.280 C 
HETATM    6  O   UNK N   1      35.169  17.808   9.665  0.00  0.00    -0.263 OA
BRANCH   5   7
HETATM    7  O   UNK N   1      33.488  17.494   8.260  0.00  0.00    -0.325 OA
HETATM    8  C   UNK N   1      32.147  17.723   8.447  0.00  0.00     0.213 C 
ENDBRANCH   5   7
ENDBRANCH   4   5
BRANCH   4   9
HETATM    9  N   UNK N   1      33.422  15.235  10.666  0.00  0.00    -0.418 N 
HETATM   10  H   UNK N   1      32.972  15.971  11.211  0.00  0.00     0.150 HD
HETATM   11  H   UNK N   1      33.166  14.260  10.817  0.00  0.00     0.150 HD
ENDBRANCH   4   9
ENDBRANCH   3   4
ENDBRANCH   2   3
ENDBRANCH   1   2
BRANCH   1  12
HETATM   12  N   UNK N   1      36.769  14.029  13.728  0.00  0.00    -0.225 N 
HETATM   13  C   UNK N   1      35.916  13.490  14.731  0.00  0.00     0.691 C 
HETATM   14  N   UNK N   1      34.906  12.766  14.404  0.00  0.00    -0.233 N 
HETATM   15  N   UNK N   1      36.174  13.812  16.095  0.00  0.00    -0.072 N 
HETATM   16  H   UNK N   1      34.691  12.595  13.459  0.00  0.00     0.174 HD
ATOM     17  HN  UNK N   1      34.320  12.362  15.135  1.00  0.00     0.174 HD
HETATM   18  H   UNK N   1      36.945  14.390  16.295  0.00  0.00     0.212 HD
HETATM   19  H   UNK N   1      37.594  14.482  14.014  0.00  0.00     0.177 HD
BRANCH  15  20
HETATM   20  N   UNK N   1      35.412  13.364  17.156  0.00  0.00    -0.024 N 
HETATM   21  O   UNK N   1      35.065  12.225  17.189  0.00  0.00    -0.516 OA
HETATM   22  O   UNK N   1      35.091  14.104  18.039  0.00  0.00    -0.516 OA
ENDBRANCH  15  20
ENDBRANCH   1  12
TORSDOF 8
ENDMDL
