MODEL 1
REMARK VINA RESULT:      -8.6      0.000      0.000
REMARK  7 active torsions:
REMARK  status: ('A' for Active; 'I' for Inactive)
REMARK    1  A    between atoms: N_24  and  C_15 
REMARK    2  A    between atoms: S_35  and  C_16 
REMARK    3  A    between atoms: C_21  and  C_17 
REMARK    4  A    between atoms: N_25  and  C_18 
REMARK    5  A    between atoms: S_34  and  C_20 
REMARK       I    between atoms: N_24  and  C_21 
REMARK    6  A    between atoms: S_34  and  N_25 
REMARK    7  A    between atoms: S_35  and  N_26 
ROOT
HETATM    1  C   UNK N   1      33.884  18.070   8.081  0.00  0.00     0.258 C 
HETATM    2  N   UNK N   1      32.919  18.050   9.023  0.00  0.00    -0.323 N 
HETATM    3  O   UNK N   1      34.766  18.918   8.176  0.00  0.00    -0.267 OA
HETATM    4  H   UNK N   1      33.188  18.317   9.932  0.00  0.00     0.169 HD
ENDROOT
BRANCH   1   5
HETATM    5  C   UNK N   1      33.980  17.073   6.984  0.00  0.00     0.061 A 
HETATM    6  C   UNK N   1      33.450  17.411   5.736  0.00  0.00     0.043 A 
HETATM    7  C   UNK N   1      33.570  16.547   4.654  0.00  0.00     0.035 A 
HETATM    8  C   UNK N   1      34.234  15.326   4.805  0.00  0.00     0.026 A 
HETATM    9 Cl   UNK N   1      32.904  17.009   3.104  0.00  0.00    -0.084 Cl
HETATM   10  C   UNK N   1      34.798  14.981   6.038  0.00  0.00     0.033 A 
HETATM   11  C   UNK N   1      34.688  15.849   7.132  0.00  0.00     0.058 A 
BRANCH  11  12
HETATM   12  N   UNK N   1      35.372  15.574   8.342  0.00  0.00    -0.279 N 
HETATM   13  H   UNK N   1      36.183  16.102   8.519  0.00  0.00     0.179 HD
BRANCH  12  14
HETATM   14  S   UNK N   1      34.924  14.390   9.558  0.00  0.00     0.269 S 
HETATM   15  O   UNK N   1      33.415  14.211   9.346  0.00  0.00    -0.200 OA
HETATM   16  O   UNK N   1      34.587  15.698  10.295  0.00  0.00    -0.200 OA
BRANCH  14  17
HETATM   17  C   UNK N   1      35.291  14.017  11.277  0.00  0.00     0.121 A 
HETATM   18  C   UNK N   1      35.098  12.766  11.882  0.00  0.00     0.035 A 
HETATM   19  C   UNK N   1      35.559  12.718  13.226  0.00  0.00     0.033 A 
HETATM   20  C   UNK N   1      36.122  13.923  13.647  0.00  0.00     0.075 A 
HETATM   21 Cl   UNK N   1      36.815  14.231  15.224  0.00  0.00    -0.076 Cl
HETATM   22  S   UNK N   1      36.039  14.994  12.383  0.00  0.00    -0.064 SA
ENDBRANCH  14  17
ENDBRANCH  12  14
ENDBRANCH  11  12
ENDBRANCH   1   5
BRANCH   2  23
HETATM   23  C   UNK N   1      31.555  17.686   8.847  0.00  0.00     0.034 C 
HETATM   24  C   UNK N   1      30.601  18.691   8.953  0.00  0.00     0.027 C 
HETATM   25  C   UNK N   1      29.386  18.574   8.298  0.00  0.00     0.001 C 
HETATM   26  C   UNK N   1      29.149  17.494   7.450  0.00  0.00     0.170 C 
HETATM   27  C   UNK N   1      30.028  16.400   7.480  0.00  0.00     0.001 C 
HETATM   28  C   UNK N   1      31.235  16.493   8.182  0.00  0.00     0.027 C 
BRANCH  26  29
HETATM   29  S   UNK N   1      28.725  18.052   5.805  0.00  0.00     0.222 S 
HETATM   30  O   UNK N   1      29.826  17.593   4.830  0.00  0.00    -0.210 OA
HETATM   31  O   UNK N   1      27.673  17.010   5.378  0.00  0.00    -0.210 OA
BRANCH  29  32
HETATM   32  N   UNK N   1      28.104  19.565   5.106  0.00  0.00    -0.206 NA
HETATM   33  C   UNK N   1      27.382  19.173   3.885  0.00  0.00     0.133 C 
HETATM   34  C   UNK N   1      26.341  20.217   3.478  0.00  0.00     0.183 C 
HETATM   35  O   UNK N   1      25.439  20.402   4.536  0.00  0.00    -0.389 OA
HETATM   36  C   UNK N   1      26.167  21.085   5.515  0.00  0.00     0.183 C 
HETATM   37  C   UNK N   1      27.186  20.128   6.118  0.00  0.00     0.133 C 
ENDBRANCH  29  32
ENDBRANCH  26  29
ENDBRANCH   2  23
TORSDOF 7
ENDMDL
MODEL 2
REMARK VINA RESULT:      -8.6      2.999      8.503
REMARK  7 active torsions:
REMARK  status: ('A' for Active; 'I' for Inactive)
REMARK    1  A    between atoms: N_24  and  C_15 
REMARK    2  A    between atoms: S_35  and  C_16 
REMARK    3  A    between atoms: C_21  and  C_17 
REMARK    4  A    between atoms: N_25  and  C_18 
REMARK    5  A    between atoms: S_34  and  C_20 
REMARK       I    between atoms: N_24  and  C_21 
REMARK    6  A    between atoms: S_34  and  N_25 
REMARK    7  A    between atoms: S_35  and  N_26 
ROOT
HETATM    1  C   UNK N   1      27.874  16.991   7.000  0.00  0.00     0.258 C 
HETATM    2  N   UNK N   1      28.930  16.981   7.840  0.00  0.00    -0.323 N 
HETATM    3  O   UNK N   1      27.073  16.065   7.070  0.00  0.00    -0.267 OA
HETATM    4  H   UNK N   1      28.779  16.585   8.729  0.00  0.00     0.169 HD
ENDROOT
BRANCH   1   5
HETATM    5  C   UNK N   1      27.590  18.099   6.053  0.00  0.00     0.061 A 
HETATM    6  C   UNK N   1      27.489  19.395   6.565  0.00  0.00     0.043 A 
HETATM    7  C   UNK N   1      27.292  20.481   5.719  0.00  0.00     0.035 A 
HETATM    8  C   UNK N   1      27.201  20.284   4.339  0.00  0.00     0.026 A 
HETATM    9 Cl   UNK N   1      27.181  22.091   6.395  0.00  0.00    -0.084 Cl
HETATM   10  C   UNK N   1      27.330  18.998   3.803  0.00  0.00     0.033 A 
HETATM   11  C   UNK N   1      27.535  17.899   4.646  0.00  0.00     0.058 A 
BRANCH  11  12
HETATM   12  N   UNK N   1      27.804  16.617   4.107  0.00  0.00    -0.279 N 
HETATM   13  H   UNK N   1      27.198  15.890   4.377  0.00  0.00     0.179 HD
BRANCH  12  14
HETATM   14  S   UNK N   1      29.105  16.189   3.009  0.00  0.00     0.269 S 
HETATM   15  O   UNK N   1      28.485  15.101   2.124  0.00  0.00    -0.200 OA
HETATM   16  O   UNK N   1      29.275  15.106   4.089  0.00  0.00    -0.200 OA
BRANCH  14  17
HETATM   17  C   UNK N   1      30.880  15.916   3.062  0.00  0.00     0.121 A 
HETATM   18  C   UNK N   1      31.848  16.922   2.920  0.00  0.00     0.035 A 
HETATM   19  C   UNK N   1      33.177  16.448   3.097  0.00  0.00     0.033 A 
HETATM   20  C   UNK N   1      33.229  15.085   3.392  0.00  0.00     0.075 A 
HETATM   21 Cl   UNK N   1      34.684  14.162   3.697  0.00  0.00    -0.076 Cl
HETATM   22  S   UNK N   1      31.673  14.511   3.427  0.00  0.00    -0.064 SA
ENDBRANCH  14  17
ENDBRANCH  12  14
ENDBRANCH  11  12
ENDBRANCH   1   5
BRANCH   2  23
HETATM   23  C   UNK N   1      30.237  17.479   7.580  0.00  0.00     0.034 C 
HETATM   24  C   UNK N   1      30.845  18.241   8.571  0.00  0.00     0.027 C 
HETATM   25  C   UNK N   1      32.226  18.304   8.655  0.00  0.00     0.001 C 
HETATM   26  C   UNK N   1      33.016  17.529   7.808  0.00  0.00     0.170 C 
HETATM   27  C   UNK N   1      32.417  16.905   6.703  0.00  0.00     0.001 C 
HETATM   28  C   UNK N   1      31.024  16.881   6.585  0.00  0.00     0.027 C 
BRANCH  26  29
HETATM   29  S   UNK N   1      34.113  16.474   8.745  0.00  0.00     0.222 S 
HETATM   30  O   UNK N   1      35.161  15.876   7.786  0.00  0.00    -0.210 OA
HETATM   31  O   UNK N   1      35.054  17.501   9.406  0.00  0.00    -0.210 OA
BRANCH  29  32
HETATM   32  N   UNK N   1      33.905  15.242  10.011  0.00  0.00    -0.206 NA
HETATM   33  C   UNK N   1      34.247  13.957   9.378  0.00  0.00     0.133 C 
HETATM   34  C   UNK N   1      34.666  12.908  10.409  0.00  0.00     0.183 C 
HETATM   35  O   UNK N   1      35.759  13.393  11.140  0.00  0.00    -0.389 OA
HETATM   36  C   UNK N   1      35.230  14.402  11.953  0.00  0.00     0.183 C 
HETATM   37  C   UNK N   1      34.869  15.592  11.075  0.00  0.00     0.133 C 
ENDBRANCH  29  32
ENDBRANCH  26  29
ENDBRANCH   2  23
TORSDOF 7
ENDMDL
MODEL 3
REMARK VINA RESULT:      -8.3      6.728     10.779
REMARK  7 active torsions:
REMARK  status: ('A' for Active; 'I' for Inactive)
REMARK    1  A    between atoms: N_24  and  C_15 
REMARK    2  A    between atoms: S_35  and  C_16 
REMARK    3  A    between atoms: C_21  and  C_17 
REMARK    4  A    between atoms: N_25  and  C_18 
REMARK    5  A    between atoms: S_34  and  C_20 
REMARK       I    between atoms: N_24  and  C_21 
REMARK    6  A    between atoms: S_34  and  N_25 
REMARK    7  A    between atoms: S_35  and  N_26 
ROOT
HETATM    1  C   UNK N   1      21.684  17.661   5.993  0.00  0.00     0.258 C 
HETATM    2  N   UNK N   1      22.942  18.096   5.772  0.00  0.00    -0.323 N 
HETATM    3  O   UNK N   1      21.093  18.083   6.981  0.00  0.00    -0.267 OA
HETATM    4  H   UNK N   1      23.144  19.017   6.055  0.00  0.00     0.169 HD
ENDROOT
BRANCH   1   5
HETATM    5  C   UNK N   1      20.952  16.765   5.064  0.00  0.00     0.061 A 
HETATM    6  C   UNK N   1      20.907  17.109   3.710  0.00  0.00     0.043 A 
HETATM    7  C   UNK N   1      20.294  16.275   2.782  0.00  0.00     0.035 A 
HETATM    8  C   UNK N   1      19.721  15.070   3.198  0.00  0.00     0.026 A 
HETATM    9 Cl   UNK N   1      20.268  16.735   1.095  0.00  0.00    -0.084 Cl
HETATM   10  C   UNK N   1      19.781  14.691   4.543  0.00  0.00     0.033 A 
HETATM   11  C   UNK N   1      20.401  15.522   5.484  0.00  0.00     0.058 A 
BRANCH  11  12
HETATM   12  N   UNK N   1      20.590  15.086   6.818  0.00  0.00    -0.279 N 
HETATM   13  H   UNK N   1      20.221  15.662   7.526  0.00  0.00     0.179 HD
BRANCH  12  14
HETATM   14  S   UNK N   1      21.411  13.626   7.342  0.00  0.00     0.269 S 
HETATM   15  O   UNK N   1      20.573  12.500   6.723  0.00  0.00    -0.200 OA
HETATM   16  O   UNK N   1      20.320  13.741   8.420  0.00  0.00    -0.200 OA
BRANCH  14  17
HETATM   17  C   UNK N   1      22.203  12.980   8.820  0.00  0.00     0.121 A 
HETATM   18  C   UNK N   1      23.571  12.686   8.931  0.00  0.00     0.035 A 
HETATM   19  C   UNK N   1      23.950  12.278  10.239  0.00  0.00     0.033 A 
HETATM   20  C   UNK N   1      22.881  12.275  11.135  0.00  0.00     0.075 A 
HETATM   21 Cl   UNK N   1      22.972  11.855  12.831  0.00  0.00    -0.076 Cl
HETATM   22  S   UNK N   1      21.526  12.765  10.314  0.00  0.00    -0.064 SA
ENDBRANCH  14  17
ENDBRANCH  12  14
ENDBRANCH  11  12
ENDBRANCH   1   5
BRANCH   2  23
HETATM   23  C   UNK N   1      24.009  17.367   5.176  0.00  0.00     0.034 C 
HETATM   24  C   UNK N   1      24.828  18.042   4.278  0.00  0.00     0.027 C 
HETATM   25  C   UNK N   1      26.134  17.628   4.077  0.00  0.00     0.001 C 
HETATM   26  C   UNK N   1      26.667  16.592   4.843  0.00  0.00     0.170 C 
HETATM   27  C   UNK N   1      25.800  15.801   5.612  0.00  0.00     0.001 C 
HETATM   28  C   UNK N   1      24.465  16.186   5.779  0.00  0.00     0.027 C 
BRANCH  26  29
HETATM   29  S   UNK N   1      28.138  17.126   5.706  0.00  0.00     0.222 S 
HETATM   30  O   UNK N   1      29.360  16.866   4.805  0.00  0.00    -0.210 OA
HETATM   31  O   UNK N   1      28.093  18.653   5.495  0.00  0.00    -0.210 OA
BRANCH  29  32
HETATM   32  N   UNK N   1      28.757  16.965   7.366  0.00  0.00    -0.206 NA
HETATM   33  C   UNK N   1      30.220  17.096   7.260  0.00  0.00     0.133 C 
HETATM   34  C   UNK N   1      30.849  17.540   8.582  0.00  0.00     0.183 C 
HETATM   35  O   UNK N   1      30.281  18.761   8.973  0.00  0.00    -0.389 OA
HETATM   36  C   UNK N   1      28.977  18.443   9.366  0.00  0.00     0.183 C 
HETATM   37  C   UNK N   1      28.169  18.088   8.125  0.00  0.00     0.133 C 
ENDBRANCH  29  32
ENDBRANCH  26  29
ENDBRANCH   2  23
TORSDOF 7
ENDMDL
MODEL 4
REMARK VINA RESULT:      -8.0      8.944     10.903
REMARK  7 active torsions:
REMARK  status: ('A' for Active; 'I' for Inactive)
REMARK    1  A    between atoms: N_24  and  C_15 
REMARK    2  A    between atoms: S_35  and  C_16 
REMARK    3  A    between atoms: C_21  and  C_17 
REMARK    4  A    between atoms: N_25  and  C_18 
REMARK    5  A    between atoms: S_34  and  C_20 
REMARK       I    between atoms: N_24  and  C_21 
REMARK    6  A    between atoms: S_34  and  N_25 
REMARK    7  A    between atoms: S_35  and  N_26 
ROOT
HETATM    1  C   UNK N   1      21.495  13.153   3.507  0.00  0.00     0.258 C 
HETATM    2  N   UNK N   1      20.458  13.656   2.808  0.00  0.00    -0.323 N 
HETATM    3  O   UNK N   1      21.425  11.989   3.886  0.00  0.00    -0.267 OA
HETATM    4  H   UNK N   1      19.972  13.026   2.228  0.00  0.00     0.169 HD
ENDROOT
BRANCH   1   5
HETATM    5  C   UNK N   1      22.747  13.907   3.774  0.00  0.00     0.061 A 
HETATM    6  C   UNK N   1      23.567  14.230   2.690  0.00  0.00     0.043 A 
HETATM    7  C   UNK N   1      24.716  14.992   2.868  0.00  0.00     0.035 A 
HETATM    8  C   UNK N   1      25.058  15.452   4.143  0.00  0.00     0.026 A 
HETATM    9 Cl   UNK N   1      25.712  15.386   1.485  0.00  0.00    -0.084 Cl
HETATM   10  C   UNK N   1      24.235  15.165   5.237  0.00  0.00     0.033 A 
HETATM   11  C   UNK N   1      23.072  14.404   5.066  0.00  0.00     0.058 A 
BRANCH  11  12
HETATM   12  N   UNK N   1      22.163  14.226   6.137  0.00  0.00    -0.279 N 
HETATM   13  H   UNK N   1      21.464  14.911   6.240  0.00  0.00     0.179 HD
BRANCH  12  14
HETATM   14  S   UNK N   1      22.150  12.911   7.300  0.00  0.00     0.269 S 
HETATM   15  O   UNK N   1      20.697  12.419   7.270  0.00  0.00    -0.200 OA
HETATM   16  O   UNK N   1      21.658  14.073   8.179  0.00  0.00    -0.200 OA
BRANCH  14  17
HETATM   17  C   UNK N   1      22.830  12.536   8.920  0.00  0.00     0.121 A 
HETATM   18  C   UNK N   1      24.200  12.499   9.223  0.00  0.00     0.035 A 
HETATM   19  C   UNK N   1      24.461  12.271  10.602  0.00  0.00     0.033 A 
HETATM   20  C   UNK N   1      23.296  12.151  11.360  0.00  0.00     0.075 A 
HETATM   21 Cl   UNK N   1      23.224  11.892  13.089  0.00  0.00    -0.076 Cl
HETATM   22  S   UNK N   1      22.002  12.325  10.336  0.00  0.00    -0.064 SA
ENDBRANCH  14  17
ENDBRANCH  12  14
ENDBRANCH  11  12
ENDBRANCH   1   5
BRANCH   2  23
HETATM   23  C   UNK N   1      19.988  14.999   2.817  0.00  0.00     0.034 C 
HETATM   24  C   UNK N   1      19.621  15.546   4.042  0.00  0.00     0.027 C 
HETATM   25  C   UNK N   1      19.677  16.915   4.240  0.00  0.00     0.001 C 
HETATM   26  C   UNK N   1      20.190  17.747   3.247  0.00  0.00     0.170 C 
HETATM   27  C   UNK N   1      20.390  17.226   1.960  0.00  0.00     0.001 C 
HETATM   28  C   UNK N   1      20.286  15.848   1.741  0.00  0.00     0.027 C 
BRANCH  26  29
HETATM   29  S   UNK N   1      21.557  18.717   3.868  0.00  0.00     0.222 S 
HETATM   30  O   UNK N   1      21.137  20.199   3.897  0.00  0.00    -0.210 OA
HETATM   31  O   UNK N   1      21.449  18.480   5.388  0.00  0.00    -0.210 OA
BRANCH  29  32
HETATM   32  N   UNK N   1      23.313  18.750   3.587  0.00  0.00    -0.206 NA
HETATM   33  C   UNK N   1      23.594  20.060   2.977  0.00  0.00     0.133 C 
HETATM   34  C   UNK N   1      25.050  20.484   3.184  0.00  0.00     0.183 C 
HETATM   35  O   UNK N   1      25.326  20.521   4.558  0.00  0.00    -0.389 OA
HETATM   36  C   UNK N   1      25.356  19.180   4.955  0.00  0.00     0.183 C 
HETATM   37  C   UNK N   1      23.937  18.632   4.922  0.00  0.00     0.133 C 
ENDBRANCH  29  32
ENDBRANCH  26  29
ENDBRANCH   2  23
TORSDOF 7
ENDMDL
MODEL 5
REMARK VINA RESULT:      -8.0      8.096     11.155
REMARK  7 active torsions:
REMARK  status: ('A' for Active; 'I' for Inactive)
REMARK    1  A    between atoms: N_24  and  C_15 
REMARK    2  A    between atoms: S_35  and  C_16 
REMARK    3  A    between atoms: C_21  and  C_17 
REMARK    4  A    between atoms: N_25  and  C_18 
REMARK    5  A    between atoms: S_34  and  C_20 
REMARK       I    between atoms: N_24  and  C_21 
REMARK    6  A    between atoms: S_34  and  N_25 
REMARK    7  A    between atoms: S_35  and  N_26 
ROOT
HETATM    1  C   UNK N   1      20.064  14.630   4.252  0.00  0.00     0.258 C 
HETATM    2  N   UNK N   1      20.854  13.570   3.985  0.00  0.00    -0.323 N 
HETATM    3  O   UNK N   1      18.870  14.542   3.985  0.00  0.00    -0.267 OA
HETATM    4  H   UNK N   1      20.439  12.681   4.074  0.00  0.00     0.169 HD
ENDROOT
BRANCH   1   5
HETATM    5  C   UNK N   1      20.547  15.864   4.922  0.00  0.00     0.061 A 
HETATM    6  C   UNK N   1      20.740  17.008   4.142  0.00  0.00     0.043 A 
HETATM    7  C   UNK N   1      21.126  18.210   4.724  0.00  0.00     0.035 A 
HETATM    8  C   UNK N   1      21.317  18.286   6.107  0.00  0.00     0.026 A 
HETATM    9 Cl   UNK N   1      21.347  19.623   3.717  0.00  0.00    -0.084 Cl
HETATM   10  C   UNK N   1      21.100  17.162   6.910  0.00  0.00     0.033 A 
HETATM   11  C   UNK N   1      20.705  15.948   6.333  0.00  0.00     0.058 A 
BRANCH  11  12
HETATM   12  N   UNK N   1      20.349  14.845   7.147  0.00  0.00    -0.279 N 
HETATM   13  H   UNK N   1      19.426  14.828   7.487  0.00  0.00     0.179 HD
BRANCH  12  14
HETATM   14  S   UNK N   1      21.382  13.505   7.613  0.00  0.00     0.269 S 
HETATM   15  O   UNK N   1      20.732  12.295   6.928  0.00  0.00    -0.200 OA
HETATM   16  O   UNK N   1      20.278  13.398   8.679  0.00  0.00    -0.200 OA
BRANCH  14  17
HETATM   17  C   UNK N   1      22.253  12.915   9.070  0.00  0.00     0.121 A 
HETATM   18  C   UNK N   1      23.644  12.752   9.158  0.00  0.00     0.035 A 
HETATM   19  C   UNK N   1      24.080  12.362  10.454  0.00  0.00     0.033 A 
HETATM   20  C   UNK N   1      23.029  12.245  11.364  0.00  0.00     0.075 A 
HETATM   21 Cl   UNK N   1      23.184  11.810  13.052  0.00  0.00    -0.076 Cl
HETATM   22  S   UNK N   1      21.622  12.615  10.568  0.00  0.00    -0.064 SA
ENDBRANCH  14  17
ENDBRANCH  12  14
ENDBRANCH  11  12
ENDBRANCH   1   5
BRANCH   2  23
HETATM   23  C   UNK N   1      22.220  13.596   3.588  0.00  0.00     0.034 C 
HETATM   24  C   UNK N   1      22.565  14.414   2.519  0.00  0.00     0.027 C 
HETATM   25  C   UNK N   1      23.853  14.913   2.409  0.00  0.00     0.001 C 
HETATM   26  C   UNK N   1      24.784  14.679   3.418  0.00  0.00     0.170 C 
HETATM   27  C   UNK N   1      24.497  13.716   4.398  0.00  0.00     0.001 C 
HETATM   28  C   UNK N   1      23.212  13.169   4.484  0.00  0.00     0.027 C 
BRANCH  26  29
HETATM   29  S   UNK N   1      25.430  16.216   4.064  0.00  0.00     0.222 S 
HETATM   30  O   UNK N   1      24.700  16.542   5.381  0.00  0.00    -0.210 OA
HETATM   31  O   UNK N   1      26.752  15.757   4.710  0.00  0.00    -0.210 OA
BRANCH  29  32
HETATM   32  N   UNK N   1      25.845  17.801   3.372  0.00  0.00    -0.206 NA
HETATM   33  C   UNK N   1      24.748  18.704   3.759  0.00  0.00     0.133 C 
HETATM   34  C   UNK N   1      25.187  20.169   3.750  0.00  0.00     0.183 C 
HETATM   35  O   UNK N   1      26.275  20.328   4.620  0.00  0.00    -0.389 OA
HETATM   36  C   UNK N   1      27.346  19.701   3.976  0.00  0.00     0.183 C 
HETATM   37  C   UNK N   1      27.119  18.196   4.008  0.00  0.00     0.133 C 
ENDBRANCH  29  32
ENDBRANCH  26  29
ENDBRANCH   2  23
TORSDOF 7
ENDMDL
MODEL 6
REMARK VINA RESULT:      -8.0      3.498      4.506
REMARK  7 active torsions:
REMARK  status: ('A' for Active; 'I' for Inactive)
REMARK    1  A    between atoms: N_24  and  C_15 
REMARK    2  A    between atoms: S_35  and  C_16 
REMARK    3  A    between atoms: C_21  and  C_17 
REMARK    4  A    between atoms: N_25  and  C_18 
REMARK    5  A    between atoms: S_34  and  C_20 
REMARK       I    between atoms: N_24  and  C_21 
REMARK    6  A    between atoms: S_34  and  N_25 
REMARK    7  A    between atoms: S_35  and  N_26 
ROOT
HETATM    1  C   UNK N   1      35.312  16.206   9.897  0.00  0.00     0.258 C 
HETATM    2  N   UNK N   1      34.364  17.163   9.827  0.00  0.00    -0.323 N 
HETATM    3  O   UNK N   1      36.303  16.424  10.586  0.00  0.00    -0.267 OA
HETATM    4  H   UNK N   1      34.237  17.713  10.634  0.00  0.00     0.169 HD
ENDROOT
BRANCH   1   5
HETATM    5  C   UNK N   1      35.182  14.876   9.249  0.00  0.00     0.061 A 
HETATM    6  C   UNK N   1      35.686  14.718   7.955  0.00  0.00     0.043 A 
HETATM    7  C   UNK N   1      35.653  13.480   7.324  0.00  0.00     0.035 A 
HETATM    8  C   UNK N   1      35.121  12.372   7.988  0.00  0.00     0.026 A 
HETATM    9 Cl   UNK N   1      36.303  13.319   5.708  0.00  0.00    -0.084 Cl
HETATM   10  C   UNK N   1      34.640  12.500   9.295  0.00  0.00     0.033 A 
HETATM   11  C   UNK N   1      34.674  13.742   9.942  0.00  0.00     0.058 A 
BRANCH  11  12
HETATM   12  N   UNK N   1      34.319  13.854  11.308  0.00  0.00    -0.279 N 
HETATM   13  H   UNK N   1      33.385  14.099  11.502  0.00  0.00     0.179 HD
BRANCH  12  14
HETATM   14  S   UNK N   1      35.368  13.601  12.692  0.00  0.00     0.269 S 
HETATM   15  O   UNK N   1      36.749  13.381  12.060  0.00  0.00    -0.200 OA
HETATM   16  O   UNK N   1      35.046  12.146  12.309  0.00  0.00    -0.200 OA
BRANCH  14  17
HETATM   17  C   UNK N   1      35.337  12.742  14.270  0.00  0.00     0.121 A 
HETATM   18  C   UNK N   1      35.634  13.333  15.507  0.00  0.00     0.035 A 
HETATM   19  C   UNK N   1      35.441  12.453  16.607  0.00  0.00     0.033 A 
HETATM   20  C   UNK N   1      34.979  11.196  16.218  0.00  0.00     0.075 A 
HETATM   21 Cl   UNK N   1      34.606   9.867  17.294  0.00  0.00    -0.076 Cl
HETATM   22  S   UNK N   1      34.824  11.198  14.567  0.00  0.00    -0.064 SA
ENDBRANCH  14  17
ENDBRANCH  12  14
ENDBRANCH  11  12
ENDBRANCH   1   5
BRANCH   2  23
HETATM   23  C   UNK N   1      33.530  17.465   8.715  0.00  0.00     0.034 C 
HETATM   24  C   UNK N   1      34.146  17.885   7.542  0.00  0.00     0.027 C 
HETATM   25  C   UNK N   1      33.529  17.684   6.318  0.00  0.00     0.001 C 
HETATM   26  C   UNK N   1      32.332  16.975   6.245  0.00  0.00     0.170 C 
HETATM   27  C   UNK N   1      31.625  16.710   7.428  0.00  0.00     0.001 C 
HETATM   28  C   UNK N   1      32.223  16.957   8.669  0.00  0.00     0.027 C 
BRANCH  26  29
HETATM   29  S   UNK N   1      32.486  15.571   5.150  0.00  0.00     0.222 S 
HETATM   30  O   UNK N   1      33.948  15.476   4.673  0.00  0.00    -0.210 OA
HETATM   31  O   UNK N   1      32.555  14.398   6.147  0.00  0.00    -0.210 OA
BRANCH  29  32
HETATM   32  N   UNK N   1      31.528  14.906   3.806  0.00  0.00    -0.206 NA
HETATM   33  C   UNK N   1      30.771  13.779   4.377  0.00  0.00     0.133 C 
HETATM   34  C   UNK N   1      29.519  13.462   3.557  0.00  0.00     0.183 C 
HETATM   35  O   UNK N   1      28.710  14.605   3.493  0.00  0.00    -0.389 OA
HETATM   36  C   UNK N   1      29.395  15.484   2.647  0.00  0.00     0.183 C 
HETATM   37  C   UNK N   1      30.629  15.996   3.375  0.00  0.00     0.133 C 
ENDBRANCH  29  32
ENDBRANCH  26  29
ENDBRANCH   2  23
TORSDOF 7
ENDMDL
MODEL 7
REMARK VINA RESULT:      -7.9     13.282     17.285
REMARK  7 active torsions:
REMARK  status: ('A' for Active; 'I' for Inactive)
REMARK    1  A    between atoms: N_24  and  C_15 
REMARK    2  A    between atoms: S_35  and  C_16 
REMARK    3  A    between atoms: C_21  and  C_17 
REMARK    4  A    between atoms: N_25  and  C_18 
REMARK    5  A    between atoms: S_34  and  C_20 
REMARK       I    between atoms: N_24  and  C_21 
REMARK    6  A    between atoms: S_34  and  N_25 
REMARK    7  A    between atoms: S_35  and  N_26 
ROOT
HETATM    1  C   UNK N   1      26.895  24.489  -3.786  0.00  0.00     0.258 C 
HETATM    2  N   UNK N   1      28.033  23.889  -3.379  0.00  0.00    -0.323 N 
HETATM    3  O   UNK N   1      25.828  24.018  -3.407  0.00  0.00    -0.267 OA
HETATM    4  H   UNK N   1      28.018  23.480  -2.484  0.00  0.00     0.169 HD
ENDROOT
BRANCH   1   5
HETATM    5  C   UNK N   1      26.869  25.730  -4.600  0.00  0.00     0.061 A 
HETATM    6  C   UNK N   1      27.648  26.812  -4.182  0.00  0.00     0.043 A 
HETATM    7  C   UNK N   1      27.715  27.976  -4.939  0.00  0.00     0.035 A 
HETATM    8  C   UNK N   1      27.006  28.070  -6.139  0.00  0.00     0.026 A 
HETATM    9 Cl   UNK N   1      28.711  29.305  -4.389  0.00  0.00    -0.084 Cl
HETATM   10  C   UNK N   1      26.244  26.988  -6.592  0.00  0.00     0.033 A 
HETATM   11  C   UNK N   1      26.174  25.809  -5.839  0.00  0.00     0.058 A 
BRANCH  11  12
HETATM   12  N   UNK N   1      25.521  24.663  -6.354  0.00  0.00    -0.279 N 
HETATM   13  H   UNK N   1      24.729  24.349  -5.861  0.00  0.00     0.179 HD
BRANCH  12  14
HETATM   14  S   UNK N   1      25.976  23.743  -7.778  0.00  0.00     0.269 S 
HETATM   15  O   UNK N   1      24.645  23.155  -8.266  0.00  0.00    -0.200 OA
HETATM   16  O   UNK N   1      25.984  22.636  -6.709  0.00  0.00    -0.200 OA
BRANCH  14  17
HETATM   17  C   UNK N   1      27.295  22.646  -8.311  0.00  0.00     0.121 A 
HETATM   18  C   UNK N   1      28.554  23.071  -8.763  0.00  0.00     0.035 A 
HETATM   19  C   UNK N   1      29.443  21.994  -9.032  0.00  0.00     0.033 A 
HETATM   20  C   UNK N   1      28.876  20.747  -8.771  0.00  0.00     0.075 A 
HETATM   21 Cl   UNK N   1      29.675  19.201  -8.961  0.00  0.00    -0.076 Cl
HETATM   22  S   UNK N   1      27.328  20.994  -8.227  0.00  0.00    -0.064 SA
ENDBRANCH  14  17
ENDBRANCH  12  14
ENDBRANCH  11  12
ENDBRANCH   1   5
BRANCH   2  23
HETATM   23  C   UNK N   1      29.254  23.784  -4.104  0.00  0.00     0.034 C 
HETATM   24  C   UNK N   1      30.402  24.295  -3.511  0.00  0.00     0.027 C 
HETATM   25  C   UNK N   1      31.647  23.788  -3.846  0.00  0.00     0.001 C 
HETATM   26  C   UNK N   1      31.750  22.699  -4.709  0.00  0.00     0.170 C 
HETATM   27  C   UNK N   1      30.620  22.301  -5.440  0.00  0.00     0.001 C 
HETATM   28  C   UNK N   1      29.367  22.846  -5.140  0.00  0.00     0.027 C 
BRANCH  26  29
HETATM   29  S   UNK N   1      32.638  21.353  -3.936  0.00  0.00     0.222 S 
HETATM   30  O   UNK N   1      32.493  21.480  -2.408  0.00  0.00    -0.210 OA
HETATM   31  O   UNK N   1      31.648  20.183  -4.105  0.00  0.00    -0.210 OA
BRANCH  29  32
HETATM   32  N   UNK N   1      34.223  20.582  -4.177  0.00  0.00    -0.206 NA
HETATM   33  C   UNK N   1      33.976  19.132  -4.103  0.00  0.00     0.133 C 
HETATM   34  C   UNK N   1      35.061  18.332  -4.825  0.00  0.00     0.183 C 
HETATM   35  O   UNK N   1      35.121  18.744  -6.164  0.00  0.00    -0.389 OA
HETATM   36  C   UNK N   1      35.685  20.024  -6.122  0.00  0.00     0.183 C 
HETATM   37  C   UNK N   1      34.664  20.984  -5.529  0.00  0.00     0.133 C 
ENDBRANCH  29  32
ENDBRANCH  26  29
ENDBRANCH   2  23
TORSDOF 7
ENDMDL
MODEL 8
REMARK VINA RESULT:      -7.9     14.296     17.547
REMARK  7 active torsions:
REMARK  status: ('A' for Active; 'I' for Inactive)
REMARK    1  A    between atoms: N_24  and  C_15 
REMARK    2  A    between atoms: S_35  and  C_16 
REMARK    3  A    between atoms: C_21  and  C_17 
REMARK    4  A    between atoms: N_25  and  C_18 
REMARK    5  A    between atoms: S_34  and  C_20 
REMARK       I    between atoms: N_24  and  C_21 
REMARK    6  A    between atoms: S_34  and  N_25 
REMARK    7  A    between atoms: S_35  and  N_26 
ROOT
HETATM    1  C   UNK N   1      27.171  24.508  -3.409  0.00  0.00     0.258 C 
HETATM    2  N   UNK N   1      28.514  24.503  -3.284  0.00  0.00    -0.323 N 
HETATM    3  O   UNK N   1      26.544  23.566  -2.937  0.00  0.00    -0.267 OA
HETATM    4  H   UNK N   1      28.877  24.087  -2.468  0.00  0.00     0.169 HD
ENDROOT
BRANCH   1   5
HETATM    5  C   UNK N   1      26.410  25.628  -4.016  0.00  0.00     0.061 A 
HETATM    6  C   UNK N   1      26.633  26.920  -3.531  0.00  0.00     0.043 A 
HETATM    7  C   UNK N   1      25.999  28.016  -4.104  0.00  0.00     0.035 A 
HETATM    8  C   UNK N   1      25.134  27.835  -5.187  0.00  0.00     0.026 A 
HETATM    9 Cl   UNK N   1      26.312  29.618  -3.476  0.00  0.00    -0.084 Cl
HETATM   10  C   UNK N   1      24.920  26.555  -5.709  0.00  0.00     0.033 A 
HETATM   11  C   UNK N   1      25.558  25.445  -5.141  0.00  0.00     0.058 A 
BRANCH  11  12
HETATM   12  N   UNK N   1      25.458  24.168  -5.745  0.00  0.00    -0.279 N 
HETATM   13  H   UNK N   1      24.970  23.479  -5.240  0.00  0.00     0.179 HD
BRANCH  12  14
HETATM   14  S   UNK N   1      26.112  23.686  -7.301  0.00  0.00     0.269 S 
HETATM   15  O   UNK N   1      24.888  23.709  -8.228  0.00  0.00    -0.200 OA
HETATM   16  O   UNK N   1      25.594  22.335  -6.779  0.00  0.00    -0.200 OA
BRANCH  14  17
HETATM   17  C   UNK N   1      27.285  22.497  -7.962  0.00  0.00     0.121 A 
HETATM   18  C   UNK N   1      28.169  21.731  -7.186  0.00  0.00     0.035 A 
HETATM   19  C   UNK N   1      28.921  20.799  -7.953  0.00  0.00     0.033 A 
HETATM   20  C   UNK N   1      28.604  20.836  -9.311  0.00  0.00     0.075 A 
HETATM   21 Cl   UNK N   1      29.305  19.821 -10.551  0.00  0.00    -0.076 Cl
HETATM   22  S   UNK N   1      27.431  21.989  -9.529  0.00  0.00    -0.064 SA
ENDBRANCH  14  17
ENDBRANCH  12  14
ENDBRANCH  11  12
ENDBRANCH   1   5
BRANCH   2  23
HETATM   23  C   UNK N   1      29.464  25.031  -4.202  0.00  0.00     0.034 C 
HETATM   24  C   UNK N   1      30.650  25.537  -3.684  0.00  0.00     0.027 C 
HETATM   25  C   UNK N   1      31.798  25.561  -4.460  0.00  0.00     0.001 C 
HETATM   26  C   UNK N   1      31.795  24.993  -5.732  0.00  0.00     0.170 C 
HETATM   27  C   UNK N   1      30.569  24.647  -6.320  0.00  0.00     0.001 C 
HETATM   28  C   UNK N   1      29.397  24.668  -5.556  0.00  0.00     0.027 C 
BRANCH  26  29
HETATM   29  S   UNK N   1      33.059  23.736  -5.873  0.00  0.00     0.222 S 
HETATM   30  O   UNK N   1      33.637  23.776  -7.301  0.00  0.00    -0.210 OA
HETATM   31  O   UNK N   1      34.259  24.415  -5.184  0.00  0.00    -0.210 OA
BRANCH  29  32
HETATM   32  N   UNK N   1      33.211  22.036  -5.371  0.00  0.00    -0.206 NA
HETATM   33  C   UNK N   1      32.055  21.774  -4.497  0.00  0.00     0.133 C 
HETATM   34  C   UNK N   1      31.714  20.284  -4.436  0.00  0.00     0.183 C 
HETATM   35  O   UNK N   1      31.457  19.818  -5.733  0.00  0.00    -0.389 OA
HETATM   36  C   UNK N   1      32.704  19.804  -6.366  0.00  0.00     0.183 C 
HETATM   37  C   UNK N   1      33.138  21.241  -6.614  0.00  0.00     0.133 C 
ENDBRANCH  29  32
ENDBRANCH  26  29
ENDBRANCH   2  23
TORSDOF 7
ENDMDL
MODEL 9
REMARK VINA RESULT:      -7.8      4.352     10.478
REMARK  7 active torsions:
REMARK  status: ('A' for Active; 'I' for Inactive)
REMARK    1  A    between atoms: N_24  and  C_15 
REMARK    2  A    between atoms: S_35  and  C_16 
REMARK    3  A    between atoms: C_21  and  C_17 
REMARK    4  A    between atoms: N_25  and  C_18 
REMARK    5  A    between atoms: S_34  and  C_20 
REMARK       I    between atoms: N_24  and  C_21 
REMARK    6  A    between atoms: S_34  and  N_25 
REMARK    7  A    between atoms: S_35  and  N_26 
ROOT
HETATM    1  C   UNK N   1      33.745  14.149   9.771  0.00  0.00     0.258 C 
HETATM    2  N   UNK N   1      34.069  14.410  11.054  0.00  0.00    -0.323 N 
HETATM    3  O   UNK N   1      32.578  14.306   9.427  0.00  0.00    -0.267 OA
HETATM    4  H   UNK N   1      33.565  15.132  11.495  0.00  0.00     0.169 HD
ENDROOT
BRANCH   1   5
HETATM    5  C   UNK N   1      34.738  13.760   8.738  0.00  0.00     0.061 A 
HETATM    6  C   UNK N   1      34.991  12.400   8.543  0.00  0.00     0.043 A 
HETATM    7  C   UNK N   1      35.860  11.972   7.545  0.00  0.00     0.035 A 
HETATM    8  C   UNK N   1      36.485  12.908   6.716  0.00  0.00     0.026 A 
HETATM    9 Cl   UNK N   1      36.144  10.260   7.325  0.00  0.00    -0.084 Cl
HETATM   10  C   UNK N   1      36.222  14.272   6.873  0.00  0.00     0.033 A 
HETATM   11  C   UNK N   1      35.344  14.712   7.872  0.00  0.00     0.058 A 
BRANCH  11  12
HETATM   12  N   UNK N   1      34.965  16.074   7.950  0.00  0.00    -0.279 N 
HETATM   13  H   UNK N   1      35.497  16.646   8.548  0.00  0.00     0.179 HD
BRANCH  12  14
HETATM   14  S   UNK N   1      33.645  16.850   7.091  0.00  0.00     0.269 S 
HETATM   15  O   UNK N   1      34.289  18.116   6.511  0.00  0.00    -0.200 OA
HETATM   16  O   UNK N   1      33.584  17.591   8.438  0.00  0.00    -0.200 OA
BRANCH  14  17
HETATM   17  C   UNK N   1      31.893  17.174   7.320  0.00  0.00     0.121 A 
HETATM   18  C   UNK N   1      30.887  16.810   6.410  0.00  0.00     0.035 A 
HETATM   19  C   UNK N   1      29.577  17.101   6.880  0.00  0.00     0.033 A 
HETATM   20  C   UNK N   1      29.574  17.670   8.154  0.00  0.00     0.075 A 
HETATM   21 Cl   UNK N   1      28.152  18.136   9.061  0.00  0.00    -0.076 Cl
HETATM   22  S   UNK N   1      31.149  17.798   8.659  0.00  0.00    -0.064 SA
ENDBRANCH  14  17
ENDBRANCH  12  14
ENDBRANCH  11  12
ENDBRANCH   1   5
BRANCH   2  23
HETATM   23  C   UNK N   1      35.059  13.755  11.839  0.00  0.00     0.034 C 
HETATM   24  C   UNK N   1      35.842  14.541  12.676  0.00  0.00     0.027 C 
HETATM   25  C   UNK N   1      36.412  13.996  13.815  0.00  0.00     0.001 C 
HETATM   26  C   UNK N   1      36.127  12.681  14.180  0.00  0.00     0.170 C 
HETATM   27  C   UNK N   1      35.490  11.841  13.254  0.00  0.00     0.001 C 
HETATM   28  C   UNK N   1      34.956  12.377  12.077  0.00  0.00     0.027 C 
BRANCH  26  29
HETATM   29  S   UNK N   1      35.443  12.610  15.830  0.00  0.00     0.222 S 
HETATM   30  O   UNK N   1      35.995  13.797  16.644  0.00  0.00    -0.210 OA
HETATM   31  O   UNK N   1      34.032  13.193  15.614  0.00  0.00    -0.210 OA
BRANCH  29  32
HETATM   32  N   UNK N   1      35.171  11.326  17.031  0.00  0.00    -0.206 NA
HETATM   33  C   UNK N   1      36.284  10.377  16.858  0.00  0.00     0.133 C 
HETATM   34  C   UNK N   1      36.529   9.551  18.122  0.00  0.00     0.183 C 
HETATM   35  O   UNK N   1      36.794  10.417  19.192  0.00  0.00    -0.389 OA
HETATM   36  C   UNK N   1      35.566  11.024  19.477  0.00  0.00     0.183 C 
HETATM   37  C   UNK N   1      35.229  11.990  18.350  0.00  0.00     0.133 C 
ENDBRANCH  29  32
ENDBRANCH  26  29
ENDBRANCH   2  23
TORSDOF 7
ENDMDL
