REMARK  15 active torsions:
REMARK  status: ('A' for Active; 'I' for Inactive)
REMARK    1  A    between atoms: C_2  and  C_3 
REMARK    2  A    between atoms: C_3  and  C_4 
REMARK    3  A    between atoms: C_5  and  O_20 
REMARK    4  A    between atoms: C_9  and  O_10 
REMARK    5  A    between atoms: O_10  and  C_11 
REMARK    6  A    between atoms: C_16  and  C_17 
REMARK    7  A    between atoms: C_17  and  O_19 
REMARK    8  A    between atoms: O_20  and  C_21 
REMARK    9  A    between atoms: C_21  and  C_22 
REMARK   10  A    between atoms: C_22  and  C_23 
REMARK   11  A    between atoms: C_23  and  O_24 
REMARK   12  A    between atoms: O_24  and  C_25 
REMARK   13  A    between atoms: C_27  and  O_40 
REMARK   14  A    between atoms: C_28  and  C_33 
REMARK   15  A    between atoms: C_30  and  C_31 
ROOT
HETATM    1  O   UNK N   1       2.733  -6.049  -0.621  0.00  0.00    -0.350 OA
ENDROOT
BRANCH   1   2
HETATM    2  C   UNK N   1       1.624  -6.797  -0.385  0.00  0.00     0.077 A 
HETATM    3  C   UNK N   1       0.402  -6.237   0.057  0.00  0.00     0.009 A 
HETATM    4  C   UNK N   1      -0.745  -7.049   0.159  0.00  0.00     0.085 A 
HETATM    5  C   UNK N   1      -0.643  -8.423  -0.114  0.00  0.00     0.038 A 
HETATM    6  C   UNK N   1       0.578  -8.986  -0.475  0.00  0.00     0.005 A 
HETATM    7  C   UNK N   1       1.699  -8.174  -0.625  0.00  0.00     0.037 A 
BRANCH   3   8
HETATM    8  C   UNK N   1       0.316  -4.788   0.435  0.00  0.00     0.044 C 
BRANCH   8   9
HETATM    9  C   UNK N   1      -0.223  -3.926  -0.683  0.00  0.00     0.000 C 
HETATM   10  C   UNK N   1      -0.026  -2.475  -0.296  0.00  0.00     0.005 C 
ENDBRANCH   8   9
ENDBRANCH   3   8
BRANCH   4  11
HETATM   11  O   UNK N   1      -1.932  -6.454   0.455  0.00  0.00    -0.309 OA
BRANCH  11  12
HETATM   12  C   UNK N   1      -3.194  -6.937   0.274  0.00  0.00     0.093 A 
HETATM   13  C   UNK N   1      -3.454  -8.315   0.174  0.00  0.00     0.038 A 
HETATM   14  C   UNK N   1      -4.747  -8.782  -0.064  0.00  0.00     0.003 A 
HETATM   15  C   UNK N   1      -5.796  -7.877  -0.215  0.00  0.00     0.001 A 
HETATM   16  C   UNK N   1      -5.556  -6.507  -0.118  0.00  0.00     0.021 A 
HETATM   17  C   UNK N   1      -4.263  -6.021   0.133  0.00  0.00     0.071 A 
BRANCH  17  18
HETATM   18  C   UNK N   1      -4.063  -4.550   0.200  0.00  0.00     0.178 C 
HETATM   19  O   UNK N   1      -2.965  -4.077   0.459  0.00  0.00    -0.646 OA
BRANCH  18  20
HETATM   20  O   UNK N   1      -5.094  -3.717  -0.028  0.00  0.00    -0.773 OA
HETATM   21  H   UNK N   1      -4.951  -2.805  -0.187  0.00  0.00     0.167 HD
ENDBRANCH  18  20
ENDBRANCH  17  18
ENDBRANCH  11  12
ENDBRANCH   4  11
ENDBRANCH   1   2
BRANCH   1  22
HETATM   22  C   UNK N   1       2.713  -4.776  -1.169  0.00  0.00     0.178 C 
BRANCH  22  23
HETATM   23  C   UNK N   1       3.292  -3.727  -0.215  0.00  0.00     0.053 C 
BRANCH  23  24
HETATM   24  C   UNK N   1       4.779  -3.933   0.025  0.00  0.00     0.178 C 
BRANCH  24  25
HETATM   25  O   UNK N   1       4.954  -5.231   0.426  0.00  0.00    -0.350 OA
BRANCH  25  26
HETATM   26  C   UNK N   1       6.095  -5.932   0.301  0.00  0.00     0.077 A 
HETATM   27  C   UNK N   1       7.345  -5.303   0.204  0.00  0.00     0.074 A 
HETATM   28  C   UNK N   1       8.514  -6.067   0.090  0.00  0.00     0.079 A 
HETATM   29  C   UNK N   1       8.430  -7.483   0.057  0.00  0.00     0.008 A 
HETATM   30  C   UNK N   1       7.169  -8.081   0.134  0.00  0.00     0.025 A 
HETATM   31  C   UNK N   1       6.016  -7.327   0.265  0.00  0.00    -0.024 A 
BRANCH  28  32
HETATM   32  O   UNK N   1       9.698  -5.434   0.021  0.00  0.00    -0.360 OA
HETATM   33  H   UNK N   1      10.493  -5.928  -0.027  0.00  0.00     0.217 HD
ENDBRANCH  28  32
BRANCH  29  34
HETATM   34  C   UNK N   1       9.607  -8.389  -0.030  0.00  0.00    -0.023 A 
HETATM   35  C   UNK N   1      10.924  -7.905  -0.024  0.00  0.00     0.015 A 
HETATM   36  C   UNK N   1      12.003  -8.795  -0.059  0.00  0.00     0.043 A 
HETATM   37  C   UNK N   1      11.775 -10.174  -0.101  0.00  0.00     0.116 A 
HETATM   38  C   UNK N   1      10.471 -10.665  -0.116  0.00  0.00     0.043 A 
HETATM   39  F   UNK N   1      12.817 -11.036  -0.122  0.00  0.00    -0.206 F 
HETATM   40  C   UNK N   1       9.397  -9.780  -0.078  0.00  0.00     0.015 A 
ENDBRANCH  29  34
BRANCH  31  41
HETATM   41  C   UNK N   1       4.697  -8.023   0.323  0.00  0.00     0.037 C 
HETATM   42  C   UNK N   1       4.599  -8.929   1.534  0.00  0.00     0.010 C 
ENDBRANCH  31  41
ENDBRANCH  25  26
ENDBRANCH  24  25
ENDBRANCH  23  24
ENDBRANCH  22  23
ENDBRANCH   1  22
TORSDOF 15
