REMARK  2 active torsions:
REMARK  status: ('A' for Active; 'I' for Inactive)
REMARK    1  A    between atoms: C_10  and  C_5 
REMARK    2  A    between atoms: C_8  and  N_13 
ROOT
HETATM    1  C   UNK N   1       3.295   1.587   0.000  0.00  0.00     0.009 A 
HETATM    2  C   UNK N   1       3.992   1.147   0.000  0.00  0.00     0.020 A 
HETATM    3  C   UNK N   1       3.959   0.322   0.000  0.00  0.00     0.065 A 
HETATM    4  C   UNK N   1       3.229  -0.062   0.000  0.00  0.00     0.089 A 
HETATM    5  C   UNK N   1       2.532   0.379   0.000  0.00  0.00    -0.005 A 
HETATM    6  C   UNK N   1       2.560   1.087   0.000  0.00  0.00    -0.046 A 
HETATM    7  C   UNK N   1       2.005   1.809   0.000  0.00  0.00     0.067 A 
HETATM    8  C   UNK N   1       1.180   1.842   0.000  0.00  0.00     0.118 A 
HETATM    9  C   UNK N   1       1.806   0.924   0.000  0.00  0.00     0.091 A 
HETATM   10  C   UNK N   1       1.895   0.103   0.000  0.00  0.00     0.031 A 
HETATM   11  C   UNK N   1       1.101  -0.148   0.000  0.00  0.00     0.037 A 
HETATM   12  C   UNK N   1       0.541   0.458   0.000  0.00  0.00     0.118 A 
HETATM   13  N   UNK N   1       0.574   1.282   0.000  0.00  0.00    -0.405 N 
HETATM   14  C   UNK N   1      -0.175   1.628   0.000  0.00  0.00     0.122 A 
HETATM   15  C   UNK N   1      -0.849   1.152   0.000  0.00  0.00     0.003 A 
HETATM   16  C   UNK N   1      -1.194   0.403   0.000  0.00  0.00     0.007 A 
HETATM   17  C   UNK N   1      -1.670   1.076   0.000  0.00  0.00     0.007 A 
HETATM   18  C   UNK N   1       2.650  -0.230   0.000  0.00  0.00     0.096 A 
HETATM   19  C   UNK N   1       3.315   0.258   0.000  0.00  0.00     0.128 A 
HETATM   20  O   UNK N   1       4.070  -0.075   0.000  0.00  0.00    -0.298 OA
HETATM   21  C   UNK N   1       3.226   1.078   0.000  0.00  0.00     0.081 A 
HETATM   22  C   UNK N   1       2.471   1.411   0.000  0.00  0.00     0.048 A 
HETATM   23  O   UNK N   1       1.032   0.638   0.000  0.00  0.00    -0.387 OA
HETATM   24  O   UNK N   1       3.197  -0.886   0.000  0.00  0.00    -0.359 OA
HETATM   25  C   UNK N   1       4.657  -0.118   0.000  0.00  0.00     0.252 A 
HETATM   26  O   UNK N   1       5.387   0.266   0.000  0.00  0.00    -0.268 OA
HETATM   27  N   UNK N   1       4.625  -0.943   0.000  0.00  0.00    -0.366 N 
HETATM   28  H   UNK N   1       0.286   1.259   0.000  0.00  0.00     0.210 HD
HETATM   29  H   UNK N   1       2.367  -1.322   0.000  0.00  0.00     0.217 HD
HETATM   30  H   UNK N   1       3.753  -1.401   0.000  0.00  0.00     0.159 HD
HETATM   31  H   UNK N   1       5.457  -1.468   0.000  0.00  0.00     0.159 HD
ENDROOT
TORSDOF 2
