REMARK  10 active torsions:
REMARK  status: ('A' for Active; 'I' for Inactive)
REMARK    1  A    between atoms: C_4  and  N_7 
REMARK       I    between atoms: N_7  and  C_8 
REMARK    2  A    between atoms: N_7  and  C_24 
REMARK    3  A    between atoms: C_8  and  O_10 
REMARK    4  A    between atoms: O_10  and  C_11 
REMARK    5  A    between atoms: C_12  and  C_11 
REMARK    6  A    between atoms: C_15  and  C_18 
REMARK    7  A    between atoms: C_18  and  O_19 
REMARK    8  A    between atoms: O_19  and  C_20 
REMARK    9  A    between atoms: C_20  and  C_21 
REMARK   10  A    between atoms: C_21  and  O_23 
ROOT
HETATM    1  N   UNK N   1      -3.555 -10.386  -0.075  0.00  0.00    -0.259 N 
HETATM    2  C   UNK N   1      -3.694  -8.996  -0.063  0.00  0.00     0.372 C 
HETATM    3  O   UNK N   1      -4.799  -8.471  -0.005  0.00  0.00    -0.238 OA
ENDROOT
BRANCH   2   4
HETATM    4  O   UNK N   1      -2.603  -8.192  -0.099  0.00  0.00    -0.303 OA
BRANCH   4   5
HETATM    5  C   UNK N   1      -2.615  -6.844   0.168  0.00  0.00     0.185 C 
BRANCH   5   6
HETATM    6  C   UNK N   1      -1.271  -6.235  -0.213  0.00  0.00     0.010 C 
HETATM    7  C   UNK N   1      -1.200  -4.795   0.280  0.00  0.00     0.007 C 
HETATM    8  C   UNK N   1       0.115  -4.159  -0.164  0.00  0.00     0.007 C 
HETATM    9  C   UNK N   1       1.305  -4.952   0.371  0.00  0.00     0.009 C 
HETATM   10  C   UNK N   1       1.225  -6.404  -0.102  0.00  0.00     0.007 C 
HETATM   11  C   UNK N   1      -0.091  -7.029   0.356  0.00  0.00     0.007 C 
BRANCH   9  12
HETATM   12  C   UNK N   1       2.589  -4.299  -0.115  0.00  0.00     0.172 C 
BRANCH  12  13
HETATM   13  O   UNK N   1       3.692  -4.807   0.574  0.00  0.00    -0.380 OA
BRANCH  13  14
HETATM   14  C   UNK N   1       4.578  -5.225  -0.421  0.00  0.00     0.277 C 
BRANCH  14  15
HETATM   15  C   UNK N   1       5.080  -6.595  -0.110  0.00  0.00     0.164 C 
HETATM   16  O   UNK N   1       6.274  -6.780   0.062  0.00  0.00    -0.648 OA
BRANCH  15  17
HETATM   17  O   UNK N   1       4.221  -7.627  -0.022  0.00  0.00    -0.775 OA
HETATM   18  H   UNK N   1       3.300  -7.469   0.039  0.00  0.00     0.167 HD
ENDBRANCH  15  17
ENDBRANCH  14  15
ENDBRANCH  13  14
ENDBRANCH  12  13
ENDBRANCH   9  12
ENDBRANCH   5   6
ENDBRANCH   4   5
ENDBRANCH   2   4
BRANCH   1  19
HETATM   19  C   UNK N   1      -2.204 -10.974  -0.098  0.00  0.00     0.044 A 
HETATM   20  C   UNK N   1      -1.986 -12.361   0.026  0.00  0.00     0.030 A 
HETATM   21  C   UNK N   1      -0.701 -12.911   0.030  0.00  0.00     0.002 A 
HETATM   22  C   UNK N   1       0.413 -12.084  -0.087  0.00  0.00     0.000 A 
HETATM   23  C   UNK N   1       0.239 -10.710  -0.214  0.00  0.00     0.002 A 
HETATM   24  C   UNK N   1      -1.047 -10.171  -0.219  0.00  0.00     0.030 A 
ENDBRANCH   1  19
BRANCH   1  25
HETATM   25  C   UNK N   1      -4.751 -11.245  -0.033  0.00  0.00     0.045 A 
HETATM   26  C   UNK N   1      -4.658 -12.652  -0.028  0.00  0.00     0.032 A 
HETATM   27  C   UNK N   1      -5.788 -13.471   0.014  0.00  0.00     0.026 A 
HETATM   28  C   UNK N   1      -7.058 -12.901   0.048  0.00  0.00     0.034 A 
HETATM   29  C   UNK N   1      -7.193 -11.515   0.038  0.00  0.00     0.026 A 
HETATM   30 Cl   UNK N   1      -8.475 -13.926   0.104  0.00  0.00    -0.084 Cl
HETATM   31  C   UNK N   1      -6.057 -10.702  -0.002  0.00  0.00     0.032 A 
ENDBRANCH   1  25
TORSDOF 10
