MODEL 1
REMARK VINA RESULT:      -5.3      0.000      0.000
REMARK WARNING: 32 MAX_TORS EXCEEDED!!!
REMARK  65 active torsions:
REMARK  status: ('A' for Active; 'I' for Inactive)
REMARK    1  A    between atoms: O_1  and  C_2 
REMARK    2  A    between atoms: O_1  and  C_25 
REMARK    3  A    between atoms: C_2  and  C_4 
REMARK    4  A    between atoms: C_4  and  C_5 
REMARK    5  A    between atoms: C_5  and  C_6 
REMARK    6  A    between atoms: C_6  and  C_7 
REMARK    7  A    between atoms: C_7  and  C_8 
REMARK    8  A    between atoms: C_8  and  C_9 
REMARK    9  A    between atoms: C_9  and  C_10 
REMARK   10  A    between atoms: C_10  and  C_11 
REMARK   11  A    between atoms: C_11  and  C_12 
REMARK   12  A    between atoms: C_12  and  C_13 
REMARK   13  A    between atoms: C_13  and  C_14 
REMARK   14  A    between atoms: C_14  and  C_15 
REMARK   15  A    between atoms: C_16  and  C_17 
REMARK   16  A    between atoms: C_17  and  C_18 
REMARK   17  A    between atoms: C_18  and  C_19 
REMARK   18  A    between atoms: C_19  and  C_20 
REMARK   19  A    between atoms: C_20  and  C_21 
REMARK   20  A    between atoms: C_21  and  C_22 
REMARK   21  A    between atoms: C_22  and  C_23 
REMARK   22  A    between atoms: C_25  and  C_26 
REMARK   23  A    between atoms: C_26  and  C_27 
REMARK   24  A    between atoms: C_26  and  O_52 
REMARK   25  A    between atoms: C_27  and  O_28 
REMARK   26  A    between atoms: O_28  and  C_29 
REMARK   27  A    between atoms: C_29  and  C_31 
REMARK   28  A    between atoms: C_31  and  C_32 
REMARK   29  A    between atoms: C_32  and  C_33 
REMARK   30  A    between atoms: C_33  and  C_34 
REMARK   31  A    between atoms: C_34  and  C_35 
REMARK   32  A    between atoms: C_35  and  C_36 
REMARK   33  A    between atoms: C_36  and  C_37 
REMARK   34  A    between atoms: C_37  and  C_38 
REMARK   35  A    between atoms: C_38  and  C_39 
REMARK   36  A    between atoms: C_39  and  C_40 
REMARK   37  A    between atoms: C_40  and  C_41 
REMARK   38  A    between atoms: C_41  and  C_42 
REMARK   39  A    between atoms: C_43  and  C_44 
REMARK   40  A    between atoms: C_44  and  C_45 
REMARK   41  A    between atoms: C_45  and  C_46 
REMARK   42  A    between atoms: C_46  and  C_47 
REMARK   43  A    between atoms: C_47  and  C_48 
REMARK   44  A    between atoms: C_48  and  C_49 
REMARK   45  A    between atoms: C_49  and  C_50 
REMARK   46  A    between atoms: O_52  and  C_53 
REMARK   47  A    between atoms: C_53  and  C_55 
REMARK   48  A    between atoms: C_55  and  C_56 
REMARK   49  A    between atoms: C_56  and  C_57 
REMARK   50  A    between atoms: C_57  and  C_58 
REMARK   51  A    between atoms: C_58  and  C_59 
REMARK   52  A    between atoms: C_59  and  C_60 
REMARK   53  A    between atoms: C_60  and  C_61 
REMARK   54  A    between atoms: C_61  and  C_62 
REMARK   55  A    between atoms: C_62  and  C_63 
REMARK   56  A    between atoms: C_63  and  C_64 
REMARK   57  A    between atoms: C_64  and  C_65 
REMARK   58  A    between atoms: C_65  and  C_66 
REMARK   59  A    between atoms: C_67  and  C_68 
REMARK   60  A    between atoms: C_68  and  C_69 
REMARK   61  A    between atoms: C_69  and  C_70 
REMARK   62  A    between atoms: C_70  and  C_71 
REMARK   63  A    between atoms: C_71  and  C_72 
REMARK   64  A    between atoms: C_72  and  C_73 
REMARK   65  A    between atoms: C_73  and  C_74 
ROOT
HETATM    1  C   UNK N   1      21.164  19.343   2.996  0.00  0.00     0.180 C 
ENDROOT
BRANCH   1   2
HETATM    2  C   UNK N   1      21.830  20.535   2.320  0.00  0.00     0.213 C 
BRANCH   2   3
HETATM    3  O   UNK N   1      22.866  20.952   3.119  0.00  0.00    -0.319 OA
BRANCH   3   4
HETATM    4  C   UNK N   1      24.120  20.513   2.892  0.00  0.00     0.258 C 
HETATM    5  O   UNK N   1      24.760  20.925   1.937  0.00  0.00    -0.265 OA
BRANCH   4   6
HETATM    6  C   UNK N   1      24.775  19.628   3.893  0.00  0.00     0.111 C 
BRANCH   6   7
HETATM    7  C   UNK N   1      26.195  19.294   3.488  0.00  0.00     0.010 C 
BRANCH   7   8
HETATM    8  C   UNK N   1      26.489  17.845   3.836  0.00  0.00     0.000 C 
BRANCH   8   9
HETATM    9  C   UNK N   1      27.985  17.555   3.770  0.00  0.00     0.000 C 
BRANCH   9  10
HETATM   10  C   UNK N   1      28.402  16.575   4.858  0.00  0.00     0.000 C 
BRANCH  10  11
HETATM   11  C   UNK N   1      29.778  15.970   4.606  0.00  0.00     0.000 C 
BRANCH  11  12
HETATM   12  C   UNK N   1      30.223  16.209   3.173  0.00  0.00     0.000 C 
BRANCH  12  13
HETATM   13  C   UNK N   1      31.661  16.710   3.135  0.00  0.00     0.000 C 
BRANCH  13  14
HETATM   14  C   UNK N   1      31.953  17.635   4.310  0.00  0.00     0.000 C 
BRANCH  14  15
HETATM   15  C   UNK N   1      33.443  17.644   4.626  0.00  0.00     0.004 C 
BRANCH  15  16
HETATM   16  C   UNK N   1      33.744  16.766   5.829  0.00  0.00     0.027 C 
BRANCH  16  17
HETATM   17  C   UNK N   1      34.030  17.610   7.034  0.00  0.00    -0.031 C 
HETATM   18  C   UNK N   1      33.324  17.544   8.166  0.00  0.00    -0.031 C 
BRANCH  18  19
HETATM   19  C   UNK N   1      32.166  16.619   8.344  0.00  0.00     0.027 C 
BRANCH  19  20
HETATM   20  C   UNK N   1      30.899  17.280   7.827  0.00  0.00     0.004 C 
BRANCH  20  21
HETATM   21  C   UNK N   1      29.943  17.590   8.968  0.00  0.00     0.000 C 
BRANCH  21  22
HETATM   22  C   UNK N   1      28.516  17.615   8.447  0.00  0.00     0.000 C 
BRANCH  22  23
HETATM   23  C   UNK N   1      27.999  19.036   8.392  0.00  0.00     0.000 C 
BRANCH  23  24
HETATM   24  C   UNK N   1      27.803  19.438   6.946  0.00  0.00    -0.000 C 
BRANCH  24  25
HETATM   25  C   UNK N   1      26.808  20.576   6.867  0.00  0.00    -0.005 C 
HETATM   26  C   UNK N   1      27.459  21.765   6.194  0.00  0.00     0.005 C 
ENDBRANCH  24  25
ENDBRANCH  23  24
ENDBRANCH  22  23
ENDBRANCH  21  22
ENDBRANCH  20  21
ENDBRANCH  19  20
ENDBRANCH  18  19
ENDBRANCH  16  17
ENDBRANCH  15  16
ENDBRANCH  14  15
ENDBRANCH  13  14
ENDBRANCH  12  13
ENDBRANCH  11  12
ENDBRANCH  10  11
ENDBRANCH   9  10
ENDBRANCH   8   9
ENDBRANCH   7   8
ENDBRANCH   6   7
ENDBRANCH   4   6
ENDBRANCH   3   4
ENDBRANCH   2   3
ENDBRANCH   1   2
BRANCH   1  27
HETATM   27  C   UNK N   1      19.794  19.091   2.412  0.00  0.00     0.213 C 
BRANCH  27  28
HETATM   28  O   UNK N   1      19.567  17.739   2.471  0.00  0.00    -0.319 OA
BRANCH  28  29
HETATM   29  C   UNK N   1      20.151  16.883   1.600  0.00  0.00     0.258 C 
HETATM   30  O   UNK N   1      20.362  17.212   0.444  0.00  0.00    -0.265 OA
BRANCH  29  31
HETATM   31  C   UNK N   1      20.608  15.545   2.076  0.00  0.00     0.111 C 
BRANCH  31  32
HETATM   32  C   UNK N   1      21.577  14.914   1.092  0.00  0.00     0.010 C 
BRANCH  32  33
HETATM   33  C   UNK N   1      22.888  14.554   1.776  0.00  0.00     0.000 C 
BRANCH  33  34
HETATM   34  C   UNK N   1      23.926  14.150   0.740  0.00  0.00     0.000 C 
BRANCH  34  35
HETATM   35  C   UNK N   1      23.368  13.098  -0.207  0.00  0.00     0.000 C 
BRANCH  35  36
HETATM   36  C   UNK N   1      23.649  11.680   0.276  0.00  0.00     0.000 C 
BRANCH  36  37
HETATM   37  C   UNK N   1      25.030  11.580   0.898  0.00  0.00     0.000 C 
BRANCH  37  38
HETATM   38  C   UNK N   1      25.142  10.303   1.709  0.00  0.00     0.000 C 
BRANCH  38  39
HETATM   39  C   UNK N   1      25.548  10.631   3.131  0.00  0.00     0.000 C 
BRANCH  39  40
HETATM   40  C   UNK N   1      25.302  12.105   3.417  0.00  0.00     0.004 C 
BRANCH  40  41
HETATM   41  C   UNK N   1      26.571  12.780   3.915  0.00  0.00     0.027 C 
BRANCH  41  42
HETATM   42  C   UNK N   1      26.850  14.004   3.099  0.00  0.00    -0.031 C 
HETATM   43  C   UNK N   1      27.664  13.987   2.039  0.00  0.00    -0.031 C 
BRANCH  43  44
HETATM   44  C   UNK N   1      28.340  12.739   1.563  0.00  0.00     0.027 C 
BRANCH  44  45
HETATM   45  C   UNK N   1      29.830  12.774   1.871  0.00  0.00     0.004 C 
BRANCH  45  46
HETATM   46  C   UNK N   1      30.640  12.027   0.823  0.00  0.00     0.000 C 
BRANCH  46  47
HETATM   47  C   UNK N   1      29.919  12.063  -0.513  0.00  0.00     0.000 C 
BRANCH  47  48
HETATM   48  C   UNK N   1      30.355  10.904  -1.390  0.00  0.00     0.000 C 
BRANCH  48  49
HETATM   49  C   UNK N   1      29.499   9.690  -1.098  0.00  0.00    -0.000 C 
BRANCH  49  50
HETATM   50  C   UNK N   1      30.312   8.436  -1.340  0.00  0.00    -0.005 C 
HETATM   51  C   UNK N   1      31.787   8.772  -1.266  0.00  0.00     0.005 C 
ENDBRANCH  49  50
ENDBRANCH  48  49
ENDBRANCH  47  48
ENDBRANCH  46  47
ENDBRANCH  45  46
ENDBRANCH  44  45
ENDBRANCH  43  44
ENDBRANCH  41  42
ENDBRANCH  40  41
ENDBRANCH  39  40
ENDBRANCH  38  39
ENDBRANCH  37  38
ENDBRANCH  36  37
ENDBRANCH  35  36
ENDBRANCH  34  35
ENDBRANCH  33  34
ENDBRANCH  32  33
ENDBRANCH  31  32
ENDBRANCH  29  31
ENDBRANCH  28  29
ENDBRANCH  27  28
ENDBRANCH   1  27
BRANCH   1  52
HETATM   52  O   UNK N   1      21.078  19.551   4.358  0.00  0.00    -0.312 OA
BRANCH  52  53
HETATM   53  C   UNK N   1      21.412  18.600   5.252  0.00  0.00     0.259 C 
HETATM   54  O   UNK N   1      21.103  18.726   6.438  0.00  0.00    -0.265 OA
BRANCH  53  55
HETATM   55  C   UNK N   1      22.081  17.348   4.803  0.00  0.00     0.111 C 
BRANCH  55  56
HETATM   56  C   UNK N   1      23.072  16.833   5.833  0.00  0.00     0.010 C 
BRANCH  56  57
HETATM   57  C   UNK N   1      23.924  15.723   5.235  0.00  0.00     0.000 C 
BRANCH  57  58
HETATM   58  C   UNK N   1      25.042  15.384   6.200  0.00  0.00     0.000 C 
BRANCH  58  59
HETATM   59  C   UNK N   1      24.620  14.365   7.231  0.00  0.00     0.000 C 
BRANCH  59  60
HETATM   60  C   UNK N   1      24.020  13.211   6.461  0.00  0.00     0.000 C 
BRANCH  60  61
HETATM   61  C   UNK N   1      24.341  11.877   7.089  0.00  0.00     0.000 C 
BRANCH  61  62
HETATM   62  C   UNK N   1      23.079  11.421   7.786  0.00  0.00     0.000 C 
BRANCH  62  63
HETATM   63  C   UNK N   1      23.348  10.979   9.205  0.00  0.00     0.000 C 
BRANCH  63  64
HETATM   64  C   UNK N   1      23.711  12.215   9.998  0.00  0.00     0.004 C 
BRANCH  64  65
HETATM   65  C   UNK N   1      22.719  12.430  11.122  0.00  0.00     0.027 C 
BRANCH  65  66
HETATM   66  C   UNK N   1      21.267  12.553  10.713  0.00  0.00    -0.031 C 
HETATM   67  C   UNK N   1      20.669  13.495   9.955  0.00  0.00    -0.031 C 
BRANCH  67  68
HETATM   68  C   UNK N   1      21.334  14.680   9.323  0.00  0.00     0.027 C 
BRANCH  68  69
HETATM   69  C   UNK N   1      20.673  15.047   8.008  0.00  0.00     0.004 C 
BRANCH  69  70
HETATM   70  C   UNK N   1      20.602  13.816   7.128  0.00  0.00     0.000 C 
BRANCH  70  71
HETATM   71  C   UNK N   1      20.447  14.240   5.682  0.00  0.00     0.000 C 
BRANCH  71  72
HETATM   72  C   UNK N   1      19.941  13.082   4.847  0.00  0.00     0.000 C 
BRANCH  72  73
HETATM   73  C   UNK N   1      20.237  11.771   5.549  0.00  0.00    -0.000 C 
BRANCH  73  74
HETATM   74  C   UNK N   1      20.925  10.801   4.605  0.00  0.00    -0.005 C 
HETATM   75  C   UNK N   1      21.733  11.565   3.572  0.00  0.00     0.005 C 
ENDBRANCH  73  74
ENDBRANCH  72  73
ENDBRANCH  71  72
ENDBRANCH  70  71
ENDBRANCH  69  70
ENDBRANCH  68  69
ENDBRANCH  67  68
ENDBRANCH  65  66
ENDBRANCH  64  65
ENDBRANCH  63  64
ENDBRANCH  62  63
ENDBRANCH  61  62
ENDBRANCH  60  61
ENDBRANCH  59  60
ENDBRANCH  58  59
ENDBRANCH  57  58
ENDBRANCH  56  57
ENDBRANCH  55  56
ENDBRANCH  53  55
ENDBRANCH  52  53
ENDBRANCH   1  52
TORSDOF 65
ENDMDL
MODEL 2
REMARK VINA RESULT:      -5.0      1.948      4.692
REMARK WARNING: 32 MAX_TORS EXCEEDED!!!
REMARK  65 active torsions:
REMARK  status: ('A' for Active; 'I' for Inactive)
REMARK    1  A    between atoms: O_1  and  C_2 
REMARK    2  A    between atoms: O_1  and  C_25 
REMARK    3  A    between atoms: C_2  and  C_4 
REMARK    4  A    between atoms: C_4  and  C_5 
REMARK    5  A    between atoms: C_5  and  C_6 
REMARK    6  A    between atoms: C_6  and  C_7 
REMARK    7  A    between atoms: C_7  and  C_8 
REMARK    8  A    between atoms: C_8  and  C_9 
REMARK    9  A    between atoms: C_9  and  C_10 
REMARK   10  A    between atoms: C_10  and  C_11 
REMARK   11  A    between atoms: C_11  and  C_12 
REMARK   12  A    between atoms: C_12  and  C_13 
REMARK   13  A    between atoms: C_13  and  C_14 
REMARK   14  A    between atoms: C_14  and  C_15 
REMARK   15  A    between atoms: C_16  and  C_17 
REMARK   16  A    between atoms: C_17  and  C_18 
REMARK   17  A    between atoms: C_18  and  C_19 
REMARK   18  A    between atoms: C_19  and  C_20 
REMARK   19  A    between atoms: C_20  and  C_21 
REMARK   20  A    between atoms: C_21  and  C_22 
REMARK   21  A    between atoms: C_22  and  C_23 
REMARK   22  A    between atoms: C_25  and  C_26 
REMARK   23  A    between atoms: C_26  and  C_27 
REMARK   24  A    between atoms: C_26  and  O_52 
REMARK   25  A    between atoms: C_27  and  O_28 
REMARK   26  A    between atoms: O_28  and  C_29 
REMARK   27  A    between atoms: C_29  and  C_31 
REMARK   28  A    between atoms: C_31  and  C_32 
REMARK   29  A    between atoms: C_32  and  C_33 
REMARK   30  A    between atoms: C_33  and  C_34 
REMARK   31  A    between atoms: C_34  and  C_35 
REMARK   32  A    between atoms: C_35  and  C_36 
REMARK   33  A    between atoms: C_36  and  C_37 
REMARK   34  A    between atoms: C_37  and  C_38 
REMARK   35  A    between atoms: C_38  and  C_39 
REMARK   36  A    between atoms: C_39  and  C_40 
REMARK   37  A    between atoms: C_40  and  C_41 
REMARK   38  A    between atoms: C_41  and  C_42 
REMARK   39  A    between atoms: C_43  and  C_44 
REMARK   40  A    between atoms: C_44  and  C_45 
REMARK   41  A    between atoms: C_45  and  C_46 
REMARK   42  A    between atoms: C_46  and  C_47 
REMARK   43  A    between atoms: C_47  and  C_48 
REMARK   44  A    between atoms: C_48  and  C_49 
REMARK   45  A    between atoms: C_49  and  C_50 
REMARK   46  A    between atoms: O_52  and  C_53 
REMARK   47  A    between atoms: C_53  and  C_55 
REMARK   48  A    between atoms: C_55  and  C_56 
REMARK   49  A    between atoms: C_56  and  C_57 
REMARK   50  A    between atoms: C_57  and  C_58 
REMARK   51  A    between atoms: C_58  and  C_59 
REMARK   52  A    between atoms: C_59  and  C_60 
REMARK   53  A    between atoms: C_60  and  C_61 
REMARK   54  A    between atoms: C_61  and  C_62 
REMARK   55  A    between atoms: C_62  and  C_63 
REMARK   56  A    between atoms: C_63  and  C_64 
REMARK   57  A    between atoms: C_64  and  C_65 
REMARK   58  A    between atoms: C_65  and  C_66 
REMARK   59  A    between atoms: C_67  and  C_68 
REMARK   60  A    between atoms: C_68  and  C_69 
REMARK   61  A    between atoms: C_69  and  C_70 
REMARK   62  A    between atoms: C_70  and  C_71 
REMARK   63  A    between atoms: C_71  and  C_72 
REMARK   64  A    between atoms: C_72  and  C_73 
REMARK   65  A    between atoms: C_73  and  C_74 
ROOT
HETATM    1  C   UNK N   1      20.848  17.665   3.949  0.00  0.00     0.180 C 
ENDROOT
BRANCH   1   2
HETATM    2  C   UNK N   1      21.034  19.136   4.296  0.00  0.00     0.213 C 
BRANCH   2   3
HETATM    3  O   UNK N   1      22.340  19.472   4.038  0.00  0.00    -0.319 OA
BRANCH   3   4
HETATM    4  C   UNK N   1      22.632  20.410   3.115  0.00  0.00     0.258 C 
HETATM    5  O   UNK N   1      21.771  21.180   2.717  0.00  0.00    -0.265 OA
BRANCH   4   6
HETATM    6  C   UNK N   1      24.045  20.598   2.688  0.00  0.00     0.111 C 
BRANCH   6   7
HETATM    7  C   UNK N   1      25.010  20.125   3.753  0.00  0.00     0.010 C 
BRANCH   7   8
HETATM    8  C   UNK N   1      26.433  20.264   3.240  0.00  0.00     0.000 C 
BRANCH   8   9
HETATM    9  C   UNK N   1      27.444  19.797   4.284  0.00  0.00     0.000 C 
BRANCH   9  10
HETATM   10  C   UNK N   1      27.321  20.608   5.567  0.00  0.00     0.000 C 
BRANCH  10  11
HETATM   11  C   UNK N   1      27.628  19.785   6.812  0.00  0.00     0.000 C 
BRANCH  11  12
HETATM   12  C   UNK N   1      27.667  18.301   6.487  0.00  0.00     0.000 C 
BRANCH  12  13
HETATM   13  C   UNK N   1      28.172  17.504   7.683  0.00  0.00     0.000 C 
BRANCH  13  14
HETATM   14  C   UNK N   1      28.355  18.397   8.904  0.00  0.00     0.000 C 
BRANCH  14  15
HETATM   15  C   UNK N   1      29.765  18.257   9.462  0.00  0.00     0.004 C 
BRANCH  15  16
HETATM   16  C   UNK N   1      30.587  17.300   8.616  0.00  0.00     0.027 C 
BRANCH  16  17
HETATM   17  C   UNK N   1      31.870  17.948   8.189  0.00  0.00    -0.031 C 
HETATM   18  C   UNK N   1      32.931  17.265   7.748  0.00  0.00    -0.031 C 
BRANCH  18  19
HETATM   19  C   UNK N   1      32.946  15.777   7.639  0.00  0.00     0.027 C 
BRANCH  19  20
HETATM   20  C   UNK N   1      34.201  15.331   6.905  0.00  0.00     0.004 C 
BRANCH  20  21
HETATM   21  C   UNK N   1      34.360  16.085   5.594  0.00  0.00     0.000 C 
BRANCH  21  22
HETATM   22  C   UNK N   1      34.032  15.164   4.432  0.00  0.00     0.000 C 
BRANCH  22  23
HETATM   23  C   UNK N   1      33.140  15.870   3.433  0.00  0.00     0.000 C 
BRANCH  23  24
HETATM   24  C   UNK N   1      31.701  15.475   3.687  0.00  0.00    -0.000 C 
BRANCH  24  25
HETATM   25  C   UNK N   1      30.796  16.656   3.411  0.00  0.00    -0.005 C 
HETATM   26  C   UNK N   1      30.589  17.438   4.690  0.00  0.00     0.005 C 
ENDBRANCH  24  25
ENDBRANCH  23  24
ENDBRANCH  22  23
ENDBRANCH  21  22
ENDBRANCH  20  21
ENDBRANCH  19  20
ENDBRANCH  18  19
ENDBRANCH  16  17
ENDBRANCH  15  16
ENDBRANCH  14  15
ENDBRANCH  13  14
ENDBRANCH  12  13
ENDBRANCH  11  12
ENDBRANCH  10  11
ENDBRANCH   9  10
ENDBRANCH   8   9
ENDBRANCH   7   8
ENDBRANCH   6   7
ENDBRANCH   4   6
ENDBRANCH   3   4
ENDBRANCH   2   3
ENDBRANCH   1   2
BRANCH   1  27
HETATM   27  C   UNK N   1      21.123  17.420   2.484  0.00  0.00     0.213 C 
BRANCH  27  28
HETATM   28  O   UNK N   1      19.947  17.002   1.912  0.00  0.00    -0.319 OA
BRANCH  28  29
HETATM   29  C   UNK N   1      19.913  16.481   0.663  0.00  0.00     0.258 C 
HETATM   30  O   UNK N   1      20.261  17.142  -0.301  0.00  0.00    -0.265 OA
BRANCH  29  31
HETATM   31  C   UNK N   1      19.512  15.057   0.469  0.00  0.00     0.111 C 
BRANCH  31  32
HETATM   32  C   UNK N   1      20.449  14.118   1.207  0.00  0.00     0.010 C 
BRANCH  32  33
HETATM   33  C   UNK N   1      21.897  14.385   0.824  0.00  0.00     0.000 C 
BRANCH  33  34
HETATM   34  C   UNK N   1      22.704  13.097   0.898  0.00  0.00     0.000 C 
BRANCH  34  35
HETATM   35  C   UNK N   1      21.871  11.967   1.485  0.00  0.00     0.000 C 
BRANCH  35  36
HETATM   36  C   UNK N   1      22.387  11.516   2.847  0.00  0.00     0.000 C 
BRANCH  36  37
HETATM   37  C   UNK N   1      23.752  12.114   3.137  0.00  0.00     0.000 C 
BRANCH  37  38
HETATM   38  C   UNK N   1      23.824  12.560   4.586  0.00  0.00     0.000 C 
BRANCH  38  39
HETATM   39  C   UNK N   1      24.490  11.487   5.421  0.00  0.00     0.000 C 
BRANCH  39  40
HETATM   40  C   UNK N   1      23.437  10.639   6.117  0.00  0.00     0.004 C 
BRANCH  40  41
HETATM   41  C   UNK N   1      24.087   9.597   7.014  0.00  0.00     0.027 C 
BRANCH  41  42
HETATM   42  C   UNK N   1      23.406   8.275   6.834  0.00  0.00    -0.031 C 
HETATM   43  C   UNK N   1      24.076   7.163   6.511  0.00  0.00    -0.031 C 
BRANCH  43  44
HETATM   44  C   UNK N   1      25.562   7.143   6.329  0.00  0.00     0.027 C 
BRANCH  44  45
HETATM   45  C   UNK N   1      25.931   7.138   4.853  0.00  0.00     0.004 C 
BRANCH  45  46
HETATM   46  C   UNK N   1      26.779   8.344   4.480  0.00  0.00     0.000 C 
BRANCH  46  47
HETATM   47  C   UNK N   1      26.069   9.172   3.424  0.00  0.00     0.000 C 
BRANCH  47  48
HETATM   48  C   UNK N   1      26.945  10.321   2.963  0.00  0.00     0.000 C 
BRANCH  48  49
HETATM   49  C   UNK N   1      26.691  10.603   1.497  0.00  0.00    -0.000 C 
BRANCH  49  50
HETATM   50  C   UNK N   1      25.925   9.446   0.892  0.00  0.00    -0.005 C 
HETATM   51  C   UNK N   1      24.704   9.976   0.169  0.00  0.00     0.005 C 
ENDBRANCH  49  50
ENDBRANCH  48  49
ENDBRANCH  47  48
ENDBRANCH  46  47
ENDBRANCH  45  46
ENDBRANCH  44  45
ENDBRANCH  43  44
ENDBRANCH  41  42
ENDBRANCH  40  41
ENDBRANCH  39  40
ENDBRANCH  38  39
ENDBRANCH  37  38
ENDBRANCH  36  37
ENDBRANCH  35  36
ENDBRANCH  34  35
ENDBRANCH  33  34
ENDBRANCH  32  33
ENDBRANCH  31  32
ENDBRANCH  29  31
ENDBRANCH  28  29
ENDBRANCH  27  28
ENDBRANCH   1  27
BRANCH   1  52
HETATM   52  O   UNK N   1      19.572  17.254   4.276  0.00  0.00    -0.312 OA
BRANCH  52  53
HETATM   53  C   UNK N   1      19.342  16.229   5.121  0.00  0.00     0.259 C 
HETATM   54  O   UNK N   1      18.201  16.005   5.530  0.00  0.00    -0.265 OA
BRANCH  53  55
HETATM   55  C   UNK N   1      20.446  15.307   5.500  0.00  0.00     0.111 C 
BRANCH  55  56
HETATM   56  C   UNK N   1      20.274  13.929   4.882  0.00  0.00     0.010 C 
BRANCH  56  57
HETATM   57  C   UNK N   1      20.500  12.849   5.929  0.00  0.00     0.000 C 
BRANCH  57  58
HETATM   58  C   UNK N   1      21.090  13.482   7.172  0.00  0.00     0.000 C 
BRANCH  58  59
HETATM   59  C   UNK N   1      21.325  12.473   8.272  0.00  0.00     0.000 C 
BRANCH  59  60
HETATM   60  C   UNK N   1      21.161  13.223   9.573  0.00  0.00     0.000 C 
BRANCH  60  61
HETATM   61  C   UNK N   1      22.126  12.747  10.631  0.00  0.00     0.000 C 
BRANCH  61  62
HETATM   62  C   UNK N   1      22.976  11.677   9.983  0.00  0.00     0.000 C 
BRANCH  62  63
HETATM   63  C   UNK N   1      24.445  11.874  10.271  0.00  0.00     0.000 C 
BRANCH  63  64
HETATM   64  C   UNK N   1      24.810  13.267   9.808  0.00  0.00     0.004 C 
BRANCH  64  65
HETATM   65  C   UNK N   1      24.731  13.359   8.298  0.00  0.00     0.027 C 
BRANCH  65  66
HETATM   66  C   UNK N   1      25.691  14.325   7.638  0.00  0.00    -0.031 C 
HETATM   67  C   UNK N   1      25.439  15.305   6.746  0.00  0.00    -0.031 C 
BRANCH  67  68
HETATM   68  C   UNK N   1      24.098  15.670   6.184  0.00  0.00     0.027 C 
BRANCH  68  69
HETATM   69  C   UNK N   1      24.219  16.763   5.138  0.00  0.00     0.004 C 
BRANCH  69  70
HETATM   70  C   UNK N   1      24.212  16.134   3.760  0.00  0.00     0.000 C 
BRANCH  70  71
HETATM   71  C   UNK N   1      25.536  16.407   3.076  0.00  0.00     0.000 C 
BRANCH  71  72
HETATM   72  C   UNK N   1      26.021  15.166   2.356  0.00  0.00     0.000 C 
BRANCH  72  73
HETATM   73  C   UNK N   1      27.418  14.808   2.828  0.00  0.00    -0.000 C 
BRANCH  73  74
HETATM   74  C   UNK N   1      27.356  13.890   4.036  0.00  0.00    -0.005 C 
HETATM   75  C   UNK N   1      28.451  14.253   5.022  0.00  0.00     0.005 C 
ENDBRANCH  73  74
ENDBRANCH  72  73
ENDBRANCH  71  72
ENDBRANCH  70  71
ENDBRANCH  69  70
ENDBRANCH  68  69
ENDBRANCH  67  68
ENDBRANCH  65  66
ENDBRANCH  64  65
ENDBRANCH  63  64
ENDBRANCH  62  63
ENDBRANCH  61  62
ENDBRANCH  60  61
ENDBRANCH  59  60
ENDBRANCH  58  59
ENDBRANCH  57  58
ENDBRANCH  56  57
ENDBRANCH  55  56
ENDBRANCH  53  55
ENDBRANCH  52  53
ENDBRANCH   1  52
TORSDOF 65
ENDMDL
MODEL 3
REMARK VINA RESULT:      -5.0      1.902      4.974
REMARK WARNING: 32 MAX_TORS EXCEEDED!!!
REMARK  65 active torsions:
REMARK  status: ('A' for Active; 'I' for Inactive)
REMARK    1  A    between atoms: O_1  and  C_2 
REMARK    2  A    between atoms: O_1  and  C_25 
REMARK    3  A    between atoms: C_2  and  C_4 
REMARK    4  A    between atoms: C_4  and  C_5 
REMARK    5  A    between atoms: C_5  and  C_6 
REMARK    6  A    between atoms: C_6  and  C_7 
REMARK    7  A    between atoms: C_7  and  C_8 
REMARK    8  A    between atoms: C_8  and  C_9 
REMARK    9  A    between atoms: C_9  and  C_10 
REMARK   10  A    between atoms: C_10  and  C_11 
REMARK   11  A    between atoms: C_11  and  C_12 
REMARK   12  A    between atoms: C_12  and  C_13 
REMARK   13  A    between atoms: C_13  and  C_14 
REMARK   14  A    between atoms: C_14  and  C_15 
REMARK   15  A    between atoms: C_16  and  C_17 
REMARK   16  A    between atoms: C_17  and  C_18 
REMARK   17  A    between atoms: C_18  and  C_19 
REMARK   18  A    between atoms: C_19  and  C_20 
REMARK   19  A    between atoms: C_20  and  C_21 
REMARK   20  A    between atoms: C_21  and  C_22 
REMARK   21  A    between atoms: C_22  and  C_23 
REMARK   22  A    between atoms: C_25  and  C_26 
REMARK   23  A    between atoms: C_26  and  C_27 
REMARK   24  A    between atoms: C_26  and  O_52 
REMARK   25  A    between atoms: C_27  and  O_28 
REMARK   26  A    between atoms: O_28  and  C_29 
REMARK   27  A    between atoms: C_29  and  C_31 
REMARK   28  A    between atoms: C_31  and  C_32 
REMARK   29  A    between atoms: C_32  and  C_33 
REMARK   30  A    between atoms: C_33  and  C_34 
REMARK   31  A    between atoms: C_34  and  C_35 
REMARK   32  A    between atoms: C_35  and  C_36 
REMARK   33  A    between atoms: C_36  and  C_37 
REMARK   34  A    between atoms: C_37  and  C_38 
REMARK   35  A    between atoms: C_38  and  C_39 
REMARK   36  A    between atoms: C_39  and  C_40 
REMARK   37  A    between atoms: C_40  and  C_41 
REMARK   38  A    between atoms: C_41  and  C_42 
REMARK   39  A    between atoms: C_43  and  C_44 
REMARK   40  A    between atoms: C_44  and  C_45 
REMARK   41  A    between atoms: C_45  and  C_46 
REMARK   42  A    between atoms: C_46  and  C_47 
REMARK   43  A    between atoms: C_47  and  C_48 
REMARK   44  A    between atoms: C_48  and  C_49 
REMARK   45  A    between atoms: C_49  and  C_50 
REMARK   46  A    between atoms: O_52  and  C_53 
REMARK   47  A    between atoms: C_53  and  C_55 
REMARK   48  A    between atoms: C_55  and  C_56 
REMARK   49  A    between atoms: C_56  and  C_57 
REMARK   50  A    between atoms: C_57  and  C_58 
REMARK   51  A    between atoms: C_58  and  C_59 
REMARK   52  A    between atoms: C_59  and  C_60 
REMARK   53  A    between atoms: C_60  and  C_61 
REMARK   54  A    between atoms: C_61  and  C_62 
REMARK   55  A    between atoms: C_62  and  C_63 
REMARK   56  A    between atoms: C_63  and  C_64 
REMARK   57  A    between atoms: C_64  and  C_65 
REMARK   58  A    between atoms: C_65  and  C_66 
REMARK   59  A    between atoms: C_67  and  C_68 
REMARK   60  A    between atoms: C_68  and  C_69 
REMARK   61  A    between atoms: C_69  and  C_70 
REMARK   62  A    between atoms: C_70  and  C_71 
REMARK   63  A    between atoms: C_71  and  C_72 
REMARK   64  A    between atoms: C_72  and  C_73 
REMARK   65  A    between atoms: C_73  and  C_74 
ROOT
HETATM    1  C   UNK N   1      20.375  17.631   3.594  0.00  0.00     0.180 C 
ENDROOT
BRANCH   1   2
HETATM    2  C   UNK N   1      20.183  19.105   3.261  0.00  0.00     0.213 C 
BRANCH   2   3
HETATM    3  O   UNK N   1      21.241  19.801   3.789  0.00  0.00    -0.319 OA
BRANCH   3   4
HETATM    4  C   UNK N   1      22.273  20.170   3.004  0.00  0.00     0.258 C 
HETATM    5  O   UNK N   1      22.097  20.920   2.057  0.00  0.00    -0.265 OA
BRANCH   4   6
HETATM    6  C   UNK N   1      23.656  19.771   3.384  0.00  0.00     0.111 C 
BRANCH   6   7
HETATM    7  C   UNK N   1      24.688  20.508   2.557  0.00  0.00     0.010 C 
BRANCH   7   8
HETATM    8  C   UNK N   1      26.039  20.419   3.246  0.00  0.00     0.000 C 
BRANCH   8   9
HETATM    9  C   UNK N   1      25.880  20.224   4.750  0.00  0.00     0.000 C 
BRANCH   9  10
HETATM   10  C   UNK N   1      26.787  21.171   5.524  0.00  0.00     0.000 C 
BRANCH  10  11
HETATM   11  C   UNK N   1      27.256  20.582   6.850  0.00  0.00     0.000 C 
BRANCH  11  12
HETATM   12  C   UNK N   1      27.928  19.235   6.638  0.00  0.00     0.000 C 
BRANCH  12  13
HETATM   13  C   UNK N   1      28.229  18.571   7.975  0.00  0.00     0.000 C 
BRANCH  13  14
HETATM   14  C   UNK N   1      29.193  17.403   7.805  0.00  0.00     0.000 C 
BRANCH  14  15
HETATM   15  C   UNK N   1      28.859  16.613   6.547  0.00  0.00     0.004 C 
BRANCH  15  16
HETATM   16  C   UNK N   1      30.113  16.343   5.731  0.00  0.00     0.027 C 
BRANCH  16  17
HETATM   17  C   UNK N   1      30.218  17.318   4.596  0.00  0.00    -0.031 C 
HETATM   18  C   UNK N   1      30.883  17.064   3.465  0.00  0.00    -0.031 C 
BRANCH  18  19
HETATM   19  C   UNK N   1      31.597  15.777   3.218  0.00  0.00     0.027 C 
BRANCH  19  20
HETATM   20  C   UNK N   1      33.083  15.957   3.486  0.00  0.00     0.004 C 
BRANCH  20  21
HETATM   21  C   UNK N   1      33.514  15.168   4.712  0.00  0.00     0.000 C 
BRANCH  21  22
HETATM   22  C   UNK N   1      34.308  16.066   5.644  0.00  0.00     0.000 C 
BRANCH  22  23
HETATM   23  C   UNK N   1      33.662  17.431   5.740  0.00  0.00     0.000 C 
BRANCH  23  24
HETATM   24  C   UNK N   1      33.608  17.855   7.193  0.00  0.00    -0.000 C 
BRANCH  24  25
HETATM   25  C   UNK N   1      33.681  16.631   8.080  0.00  0.00    -0.005 C 
HETATM   26  C   UNK N   1      34.430  16.975   9.350  0.00  0.00     0.005 C 
ENDBRANCH  24  25
ENDBRANCH  23  24
ENDBRANCH  22  23
ENDBRANCH  21  22
ENDBRANCH  20  21
ENDBRANCH  19  20
ENDBRANCH  18  19
ENDBRANCH  16  17
ENDBRANCH  15  16
ENDBRANCH  14  15
ENDBRANCH  13  14
ENDBRANCH  12  13
ENDBRANCH  11  12
ENDBRANCH  10  11
ENDBRANCH   9  10
ENDBRANCH   8   9
ENDBRANCH   7   8
ENDBRANCH   6   7
ENDBRANCH   4   6
ENDBRANCH   3   4
ENDBRANCH   2   3
ENDBRANCH   1   2
BRANCH   1  27
HETATM   27  C   UNK N   1      20.791  16.852   2.368  0.00  0.00     0.213 C 
BRANCH  27  28
HETATM   28  O   UNK N   1      21.778  15.980   2.753  0.00  0.00    -0.319 OA
BRANCH  28  29
HETATM   29  C   UNK N   1      22.153  14.944   1.967  0.00  0.00     0.258 C 
HETATM   30  O   UNK N   1      21.948  14.962   0.765  0.00  0.00    -0.265 OA
BRANCH  29  31
HETATM   31  C   UNK N   1      22.892  13.794   2.568  0.00  0.00     0.111 C 
BRANCH  31  32
HETATM   32  C   UNK N   1      22.286  13.388   3.899  0.00  0.00     0.010 C 
BRANCH  32  33
HETATM   33  C   UNK N   1      23.019  12.190   4.485  0.00  0.00     0.000 C 
BRANCH  33  34
HETATM   34  C   UNK N   1      22.382  11.781   5.805  0.00  0.00     0.000 C 
BRANCH  34  35
HETATM   35  C   UNK N   1      22.530  10.285   6.040  0.00  0.00     0.000 C 
BRANCH  35  36
HETATM   36  C   UNK N   1      23.478   9.972   7.192  0.00  0.00     0.000 C 
BRANCH  36  37
HETATM   37  C   UNK N   1      24.036   8.566   7.071  0.00  0.00     0.000 C 
BRANCH  37  38
HETATM   38  C   UNK N   1      23.426   7.868   5.870  0.00  0.00     0.000 C 
BRANCH  38  39
HETATM   39  C   UNK N   1      24.454   6.960   5.227  0.00  0.00     0.000 C 
BRANCH  39  40
HETATM   40  C   UNK N   1      25.800   7.129   5.913  0.00  0.00     0.004 C 
BRANCH  40  41
HETATM   41  C   UNK N   1      26.917   7.270   4.888  0.00  0.00     0.027 C 
BRANCH  41  42
HETATM   42  C   UNK N   1      26.334   7.480   3.525  0.00  0.00    -0.031 C 
HETATM   43  C   UNK N   1      26.969   8.173   2.575  0.00  0.00    -0.031 C 
BRANCH  43  44
HETATM   44  C   UNK N   1      28.326   8.772   2.785  0.00  0.00     0.027 C 
BRANCH  44  45
HETATM   45  C   UNK N   1      28.949   9.191   1.462  0.00  0.00     0.004 C 
BRANCH  45  46
HETATM   46  C   UNK N   1      28.012  10.075   0.653  0.00  0.00     0.000 C 
BRANCH  46  47
HETATM   47  C   UNK N   1      28.346  11.537   0.887  0.00  0.00     0.000 C 
BRANCH  47  48
HETATM   48  C   UNK N   1      29.841  11.726   1.065  0.00  0.00     0.000 C 
BRANCH  48  49
HETATM   49  C   UNK N   1      30.105  12.643   2.240  0.00  0.00    -0.000 C 
BRANCH  49  50
HETATM   50  C   UNK N   1      31.114  11.995   3.164  0.00  0.00    -0.005 C 
HETATM   51  C   UNK N   1      30.886  12.482   4.579  0.00  0.00     0.005 C 
ENDBRANCH  49  50
ENDBRANCH  48  49
ENDBRANCH  47  48
ENDBRANCH  46  47
ENDBRANCH  45  46
ENDBRANCH  44  45
ENDBRANCH  43  44
ENDBRANCH  41  42
ENDBRANCH  40  41
ENDBRANCH  39  40
ENDBRANCH  38  39
ENDBRANCH  37  38
ENDBRANCH  36  37
ENDBRANCH  35  36
ENDBRANCH  34  35
ENDBRANCH  33  34
ENDBRANCH  32  33
ENDBRANCH  31  32
ENDBRANCH  29  31
ENDBRANCH  28  29
ENDBRANCH  27  28
ENDBRANCH   1  27
BRANCH   1  52
HETATM   52  O   UNK N   1      19.216  17.106   4.130  0.00  0.00    -0.312 OA
BRANCH  52  53
HETATM   53  C   UNK N   1      19.216  16.370   5.258  0.00  0.00     0.259 C 
HETATM   54  O   UNK N   1      18.200  15.764   5.605  0.00  0.00    -0.265 OA
BRANCH  53  55
HETATM   55  C   UNK N   1      20.465  16.211   6.051  0.00  0.00     0.111 C 
BRANCH  55  56
HETATM   56  C   UNK N   1      20.324  15.144   7.124  0.00  0.00     0.010 C 
BRANCH  56  57
HETATM   57  C   UNK N   1      20.625  15.731   8.495  0.00  0.00     0.000 C 
BRANCH  57  58
HETATM   58  C   UNK N   1      21.055  14.616   9.427  0.00  0.00     0.000 C 
BRANCH  58  59
HETATM   59  C   UNK N   1      21.361  13.337   8.685  0.00  0.00     0.000 C 
BRANCH  59  60
HETATM   60  C   UNK N   1      21.726  12.317   9.738  0.00  0.00     0.000 C 
BRANCH  60  61
HETATM   61  C   UNK N   1      22.873  12.777  10.605  0.00  0.00     0.000 C 
BRANCH  61  62
HETATM   62  C   UNK N   1      24.135  12.262   9.950  0.00  0.00     0.000 C 
BRANCH  62  63
HETATM   63  C   UNK N   1      24.967  13.382   9.373  0.00  0.00     0.000 C 
BRANCH  63  64
HETATM   64  C   UNK N   1      25.059  13.149   7.881  0.00  0.00     0.004 C 
BRANCH  64  65
HETATM   65  C   UNK N   1      25.292  14.459   7.157  0.00  0.00     0.027 C 
BRANCH  65  66
HETATM   66  C   UNK N   1      24.075  15.093   6.519  0.00  0.00    -0.031 C 
HETATM   67  C   UNK N   1      24.004  16.120   5.648  0.00  0.00    -0.031 C 
BRANCH  67  68
HETATM   68  C   UNK N   1      25.160  16.897   5.094  0.00  0.00     0.027 C 
BRANCH  68  69
HETATM   69  C   UNK N   1      25.397  16.566   3.633  0.00  0.00     0.004 C 
BRANCH  69  70
HETATM   70  C   UNK N   1      26.884  16.621   3.347  0.00  0.00     0.000 C 
BRANCH  70  71
HETATM   71  C   UNK N   1      27.347  15.272   2.836  0.00  0.00     0.000 C 
BRANCH  71  72
HETATM   72  C   UNK N   1      27.584  14.326   3.996  0.00  0.00     0.000 C 
BRANCH  72  73
HETATM   73  C   UNK N   1      26.690  13.108   3.859  0.00  0.00    -0.000 C 
BRANCH  73  74
HETATM   74  C   UNK N   1      27.209  11.965   4.714  0.00  0.00    -0.005 C 
HETATM   75  C   UNK N   1      26.134  10.906   4.876  0.00  0.00     0.005 C 
ENDBRANCH  73  74
ENDBRANCH  72  73
ENDBRANCH  71  72
ENDBRANCH  70  71
ENDBRANCH  69  70
ENDBRANCH  68  69
ENDBRANCH  67  68
ENDBRANCH  65  66
ENDBRANCH  64  65
ENDBRANCH  63  64
ENDBRANCH  62  63
ENDBRANCH  61  62
ENDBRANCH  60  61
ENDBRANCH  59  60
ENDBRANCH  58  59
ENDBRANCH  57  58
ENDBRANCH  56  57
ENDBRANCH  55  56
ENDBRANCH  53  55
ENDBRANCH  52  53
ENDBRANCH   1  52
TORSDOF 65
ENDMDL
MODEL 4
REMARK VINA RESULT:      -4.9      1.729      4.285
REMARK WARNING: 32 MAX_TORS EXCEEDED!!!
REMARK  65 active torsions:
REMARK  status: ('A' for Active; 'I' for Inactive)
REMARK    1  A    between atoms: O_1  and  C_2 
REMARK    2  A    between atoms: O_1  and  C_25 
REMARK    3  A    between atoms: C_2  and  C_4 
REMARK    4  A    between atoms: C_4  and  C_5 
REMARK    5  A    between atoms: C_5  and  C_6 
REMARK    6  A    between atoms: C_6  and  C_7 
REMARK    7  A    between atoms: C_7  and  C_8 
REMARK    8  A    between atoms: C_8  and  C_9 
REMARK    9  A    between atoms: C_9  and  C_10 
REMARK   10  A    between atoms: C_10  and  C_11 
REMARK   11  A    between atoms: C_11  and  C_12 
REMARK   12  A    between atoms: C_12  and  C_13 
REMARK   13  A    between atoms: C_13  and  C_14 
REMARK   14  A    between atoms: C_14  and  C_15 
REMARK   15  A    between atoms: C_16  and  C_17 
REMARK   16  A    between atoms: C_17  and  C_18 
REMARK   17  A    between atoms: C_18  and  C_19 
REMARK   18  A    between atoms: C_19  and  C_20 
REMARK   19  A    between atoms: C_20  and  C_21 
REMARK   20  A    between atoms: C_21  and  C_22 
REMARK   21  A    between atoms: C_22  and  C_23 
REMARK   22  A    between atoms: C_25  and  C_26 
REMARK   23  A    between atoms: C_26  and  C_27 
REMARK   24  A    between atoms: C_26  and  O_52 
REMARK   25  A    between atoms: C_27  and  O_28 
REMARK   26  A    between atoms: O_28  and  C_29 
REMARK   27  A    between atoms: C_29  and  C_31 
REMARK   28  A    between atoms: C_31  and  C_32 
REMARK   29  A    between atoms: C_32  and  C_33 
REMARK   30  A    between atoms: C_33  and  C_34 
REMARK   31  A    between atoms: C_34  and  C_35 
REMARK   32  A    between atoms: C_35  and  C_36 
REMARK   33  A    between atoms: C_36  and  C_37 
REMARK   34  A    between atoms: C_37  and  C_38 
REMARK   35  A    between atoms: C_38  and  C_39 
REMARK   36  A    between atoms: C_39  and  C_40 
REMARK   37  A    between atoms: C_40  and  C_41 
REMARK   38  A    between atoms: C_41  and  C_42 
REMARK   39  A    between atoms: C_43  and  C_44 
REMARK   40  A    between atoms: C_44  and  C_45 
REMARK   41  A    between atoms: C_45  and  C_46 
REMARK   42  A    between atoms: C_46  and  C_47 
REMARK   43  A    between atoms: C_47  and  C_48 
REMARK   44  A    between atoms: C_48  and  C_49 
REMARK   45  A    between atoms: C_49  and  C_50 
REMARK   46  A    between atoms: O_52  and  C_53 
REMARK   47  A    between atoms: C_53  and  C_55 
REMARK   48  A    between atoms: C_55  and  C_56 
REMARK   49  A    between atoms: C_56  and  C_57 
REMARK   50  A    between atoms: C_57  and  C_58 
REMARK   51  A    between atoms: C_58  and  C_59 
REMARK   52  A    between atoms: C_59  and  C_60 
REMARK   53  A    between atoms: C_60  and  C_61 
REMARK   54  A    between atoms: C_61  and  C_62 
REMARK   55  A    between atoms: C_62  and  C_63 
REMARK   56  A    between atoms: C_63  and  C_64 
REMARK   57  A    between atoms: C_64  and  C_65 
REMARK   58  A    between atoms: C_65  and  C_66 
REMARK   59  A    between atoms: C_67  and  C_68 
REMARK   60  A    between atoms: C_68  and  C_69 
REMARK   61  A    between atoms: C_69  and  C_70 
REMARK   62  A    between atoms: C_70  and  C_71 
REMARK   63  A    between atoms: C_71  and  C_72 
REMARK   64  A    between atoms: C_72  and  C_73 
REMARK   65  A    between atoms: C_73  and  C_74 
ROOT
HETATM    1  C   UNK N   1      20.258  17.275   3.299  0.00  0.00     0.180 C 
ENDROOT
BRANCH   1   2
HETATM    2  C   UNK N   1      20.224  18.776   3.043  0.00  0.00     0.213 C 
BRANCH   2   3
HETATM    3  O   UNK N   1      21.257  19.349   3.742  0.00  0.00    -0.319 OA
BRANCH   3   4
HETATM    4  C   UNK N   1      22.267  19.957   3.088  0.00  0.00     0.258 C 
HETATM    5  O   UNK N   1      22.039  20.833   2.270  0.00  0.00    -0.265 OA
BRANCH   4   6
HETATM    6  C   UNK N   1      23.672  19.654   3.474  0.00  0.00     0.111 C 
BRANCH   6   7
HETATM    7  C   UNK N   1      24.639  20.637   2.849  0.00  0.00     0.010 C 
BRANCH   7   8
HETATM    8  C   UNK N   1      26.060  20.255   3.228  0.00  0.00     0.000 C 
BRANCH   8   9
HETATM    9  C   UNK N   1      26.247  20.258   4.742  0.00  0.00     0.000 C 
BRANCH   9  10
HETATM   10  C   UNK N   1      27.714  20.093   5.112  0.00  0.00     0.000 C 
BRANCH  10  11
HETATM   11  C   UNK N   1      27.981  18.814   5.897  0.00  0.00     0.000 C 
BRANCH  11  12
HETATM   12  C   UNK N   1      29.010  17.948   5.189  0.00  0.00     0.000 C 
BRANCH  12  13
HETATM   13  C   UNK N   1      29.048  16.553   5.801  0.00  0.00     0.000 C 
BRANCH  13  14
HETATM   14  C   UNK N   1      30.299  15.796   5.371  0.00  0.00     0.000 C 
BRANCH  14  15
HETATM   15  C   UNK N   1      30.681  16.163   3.943  0.00  0.00     0.004 C 
BRANCH  15  16
HETATM   16  C   UNK N   1      32.190  16.276   3.802  0.00  0.00     0.027 C 
BRANCH  16  17
HETATM   17  C   UNK N   1      32.690  17.506   4.498  0.00  0.00    -0.031 C 
HETATM   18  C   UNK N   1      33.497  17.475   5.563  0.00  0.00    -0.031 C 
BRANCH  18  19
HETATM   19  C   UNK N   1      33.981  16.202   6.174  0.00  0.00     0.027 C 
BRANCH  19  20
HETATM   20  C   UNK N   1      33.278  15.973   7.502  0.00  0.00     0.004 C 
BRANCH  20  21
HETATM   21  C   UNK N   1      32.925  17.295   8.165  0.00  0.00     0.000 C 
BRANCH  21  22
HETATM   22  C   UNK N   1      31.468  17.277   8.595  0.00  0.00     0.000 C 
BRANCH  22  23
HETATM   23  C   UNK N   1      30.917  18.686   8.652  0.00  0.00     0.000 C 
BRANCH  23  24
HETATM   24  C   UNK N   1      29.691  18.704   9.541  0.00  0.00    -0.000 C 
BRANCH  24  25
HETATM   25  C   UNK N   1      29.179  17.292   9.726  0.00  0.00    -0.005 C 
HETATM   26  C   UNK N   1      27.749  17.210   9.236  0.00  0.00     0.005 C 
ENDBRANCH  24  25
ENDBRANCH  23  24
ENDBRANCH  22  23
ENDBRANCH  21  22
ENDBRANCH  20  21
ENDBRANCH  19  20
ENDBRANCH  18  19
ENDBRANCH  16  17
ENDBRANCH  15  16
ENDBRANCH  14  15
ENDBRANCH  13  14
ENDBRANCH  12  13
ENDBRANCH  11  12
ENDBRANCH  10  11
ENDBRANCH   9  10
ENDBRANCH   8   9
ENDBRANCH   7   8
ENDBRANCH   6   7
ENDBRANCH   4   6
ENDBRANCH   3   4
ENDBRANCH   2   3
ENDBRANCH   1   2
BRANCH   1  27
HETATM   27  C   UNK N   1      20.375  16.512   2.000  0.00  0.00     0.213 C 
BRANCH  27  28
HETATM   28  O   UNK N   1      21.570  15.839   2.028  0.00  0.00    -0.319 OA
BRANCH  28  29
HETATM   29  C   UNK N   1      21.657  14.533   1.683  0.00  0.00     0.258 C 
HETATM   30  O   UNK N   1      21.079  14.106   0.698  0.00  0.00    -0.265 OA
BRANCH  29  31
HETATM   31  C   UNK N   1      22.529  13.618   2.476  0.00  0.00     0.111 C 
BRANCH  31  32
HETATM   32  C   UNK N   1      22.171  13.658   3.950  0.00  0.00     0.010 C 
BRANCH  32  33
HETATM   33  C   UNK N   1      22.776  12.474   4.689  0.00  0.00     0.000 C 
BRANCH  33  34
HETATM   34  C   UNK N   1      21.765  11.896   5.668  0.00  0.00     0.000 C 
BRANCH  34  35
HETATM   35  C   UNK N   1      21.357  10.488   5.259  0.00  0.00     0.000 C 
BRANCH  35  36
HETATM   36  C   UNK N   1      22.166   9.974   4.074  0.00  0.00     0.000 C 
BRANCH  36  37
HETATM   37  C   UNK N   1      21.533   8.727   3.482  0.00  0.00     0.000 C 
BRANCH  37  38
HETATM   38  C   UNK N   1      20.905   9.052   2.140  0.00  0.00     0.000 C 
BRANCH  38  39
HETATM   39  C   UNK N   1      21.674  10.171   1.470  0.00  0.00     0.000 C 
BRANCH  39  40
HETATM   40  C   UNK N   1      22.042   9.773   0.050  0.00  0.00     0.004 C 
BRANCH  40  41
HETATM   41  C   UNK N   1      23.521  10.013  -0.215  0.00  0.00     0.027 C 
BRANCH  41  42
HETATM   42  C   UNK N   1      23.929  11.342   0.340  0.00  0.00    -0.031 C 
HETATM   43  C   UNK N   1      25.133  11.553   0.882  0.00  0.00    -0.031 C 
BRANCH  43  44
HETATM   44  C   UNK N   1      26.181  10.485   0.953  0.00  0.00     0.027 C 
BRANCH  44  45
HETATM   45  C   UNK N   1      27.578  11.088   0.906  0.00  0.00     0.004 C 
BRANCH  45  46
HETATM   46  C   UNK N   1      28.641  10.027   0.666  0.00  0.00     0.000 C 
BRANCH  46  47
HETATM   47  C   UNK N   1      28.286   8.756   1.416  0.00  0.00     0.000 C 
BRANCH  47  48
HETATM   48  C   UNK N   1      28.895   8.764   2.806  0.00  0.00     0.000 C 
BRANCH  48  49
HETATM   49  C   UNK N   1      30.180   9.565   2.797  0.00  0.00    -0.000 C 
BRANCH  49  50
HETATM   50  C   UNK N   1      30.183  10.518   3.973  0.00  0.00    -0.005 C 
HETATM   51  C   UNK N   1      29.754   9.775   5.222  0.00  0.00     0.005 C 
ENDBRANCH  49  50
ENDBRANCH  48  49
ENDBRANCH  47  48
ENDBRANCH  46  47
ENDBRANCH  45  46
ENDBRANCH  44  45
ENDBRANCH  43  44
ENDBRANCH  41  42
ENDBRANCH  40  41
ENDBRANCH  39  40
ENDBRANCH  38  39
ENDBRANCH  37  38
ENDBRANCH  36  37
ENDBRANCH  35  36
ENDBRANCH  34  35
ENDBRANCH  33  34
ENDBRANCH  32  33
ENDBRANCH  31  32
ENDBRANCH  29  31
ENDBRANCH  28  29
ENDBRANCH  27  28
ENDBRANCH   1  27
BRANCH   1  52
HETATM   52  O   UNK N   1      19.130  16.881   3.990  0.00  0.00    -0.312 OA
BRANCH  52  53
HETATM   53  C   UNK N   1      19.199  16.146   5.117  0.00  0.00     0.259 C 
HETATM   54  O   UNK N   1      18.242  15.453   5.466  0.00  0.00    -0.265 OA
BRANCH  53  55
HETATM   55  C   UNK N   1      20.459  16.096   5.906  0.00  0.00     0.111 C 
BRANCH  55  56
HETATM   56  C   UNK N   1      20.344  15.169   7.104  0.00  0.00     0.010 C 
BRANCH  56  57
HETATM   57  C   UNK N   1      20.746  15.899   8.377  0.00  0.00     0.000 C 
BRANCH  57  58
HETATM   58  C   UNK N   1      21.138  14.881   9.428  0.00  0.00     0.000 C 
BRANCH  58  59
HETATM   59  C   UNK N   1      21.109  13.468   8.894  0.00  0.00     0.000 C 
BRANCH  59  60
HETATM   60  C   UNK N   1      21.155  12.561  10.101  0.00  0.00     0.000 C 
BRANCH  60  61
HETATM   61  C   UNK N   1      22.495  12.602  10.796  0.00  0.00     0.000 C 
BRANCH  61  62
HETATM   62  C   UNK N   1      23.457  11.846   9.907  0.00  0.00     0.000 C 
BRANCH  62  63
HETATM   63  C   UNK N   1      24.643  12.693   9.514  0.00  0.00     0.000 C 
BRANCH  63  64
HETATM   64  C   UNK N   1      24.707  12.700   8.002  0.00  0.00     0.004 C 
BRANCH  64  65
HETATM   65  C   UNK N   1      25.151  14.059   7.501  0.00  0.00     0.027 C 
BRANCH  65  66
HETATM   66  C   UNK N   1      24.055  14.976   7.003  0.00  0.00    -0.031 C 
HETATM   67  C   UNK N   1      24.103  15.926   6.047  0.00  0.00    -0.031 C 
BRANCH  67  68
HETATM   68  C   UNK N   1      25.302  16.303   5.230  0.00  0.00     0.027 C 
BRANCH  68  69
HETATM   69  C   UNK N   1      25.138  15.880   3.782  0.00  0.00     0.004 C 
BRANCH  69  70
HETATM   70  C   UNK N   1      26.104  16.670   2.923  0.00  0.00     0.000 C 
BRANCH  70  71
HETATM   71  C   UNK N   1      27.312  15.812   2.607  0.00  0.00     0.000 C 
BRANCH  71  72
HETATM   72  C   UNK N   1      26.936  14.345   2.640  0.00  0.00     0.000 C 
BRANCH  72  73
HETATM   73  C   UNK N   1      28.011  13.553   3.359  0.00  0.00    -0.000 C 
BRANCH  73  74
HETATM   74  C   UNK N   1      27.560  13.189   4.763  0.00  0.00    -0.005 C 
HETATM   75  C   UNK N   1      26.520  12.085   4.706  0.00  0.00     0.005 C 
ENDBRANCH  73  74
ENDBRANCH  72  73
ENDBRANCH  71  72
ENDBRANCH  70  71
ENDBRANCH  69  70
ENDBRANCH  68  69
ENDBRANCH  67  68
ENDBRANCH  65  66
ENDBRANCH  64  65
ENDBRANCH  63  64
ENDBRANCH  62  63
ENDBRANCH  61  62
ENDBRANCH  60  61
ENDBRANCH  59  60
ENDBRANCH  58  59
ENDBRANCH  57  58
ENDBRANCH  56  57
ENDBRANCH  55  56
ENDBRANCH  53  55
ENDBRANCH  52  53
ENDBRANCH   1  52
TORSDOF 65
ENDMDL
MODEL 5
REMARK VINA RESULT:      -4.8      5.681     11.705
REMARK WARNING: 32 MAX_TORS EXCEEDED!!!
REMARK  65 active torsions:
REMARK  status: ('A' for Active; 'I' for Inactive)
REMARK    1  A    between atoms: O_1  and  C_2 
REMARK    2  A    between atoms: O_1  and  C_25 
REMARK    3  A    between atoms: C_2  and  C_4 
REMARK    4  A    between atoms: C_4  and  C_5 
REMARK    5  A    between atoms: C_5  and  C_6 
REMARK    6  A    between atoms: C_6  and  C_7 
REMARK    7  A    between atoms: C_7  and  C_8 
REMARK    8  A    between atoms: C_8  and  C_9 
REMARK    9  A    between atoms: C_9  and  C_10 
REMARK   10  A    between atoms: C_10  and  C_11 
REMARK   11  A    between atoms: C_11  and  C_12 
REMARK   12  A    between atoms: C_12  and  C_13 
REMARK   13  A    between atoms: C_13  and  C_14 
REMARK   14  A    between atoms: C_14  and  C_15 
REMARK   15  A    between atoms: C_16  and  C_17 
REMARK   16  A    between atoms: C_17  and  C_18 
REMARK   17  A    between atoms: C_18  and  C_19 
REMARK   18  A    between atoms: C_19  and  C_20 
REMARK   19  A    between atoms: C_20  and  C_21 
REMARK   20  A    between atoms: C_21  and  C_22 
REMARK   21  A    between atoms: C_22  and  C_23 
REMARK   22  A    between atoms: C_25  and  C_26 
REMARK   23  A    between atoms: C_26  and  C_27 
REMARK   24  A    between atoms: C_26  and  O_52 
REMARK   25  A    between atoms: C_27  and  O_28 
REMARK   26  A    between atoms: O_28  and  C_29 
REMARK   27  A    between atoms: C_29  and  C_31 
REMARK   28  A    between atoms: C_31  and  C_32 
REMARK   29  A    between atoms: C_32  and  C_33 
REMARK   30  A    between atoms: C_33  and  C_34 
REMARK   31  A    between atoms: C_34  and  C_35 
REMARK   32  A    between atoms: C_35  and  C_36 
REMARK   33  A    between atoms: C_36  and  C_37 
REMARK   34  A    between atoms: C_37  and  C_38 
REMARK   35  A    between atoms: C_38  and  C_39 
REMARK   36  A    between atoms: C_39  and  C_40 
REMARK   37  A    between atoms: C_40  and  C_41 
REMARK   38  A    between atoms: C_41  and  C_42 
REMARK   39  A    between atoms: C_43  and  C_44 
REMARK   40  A    between atoms: C_44  and  C_45 
REMARK   41  A    between atoms: C_45  and  C_46 
REMARK   42  A    between atoms: C_46  and  C_47 
REMARK   43  A    between atoms: C_47  and  C_48 
REMARK   44  A    between atoms: C_48  and  C_49 
REMARK   45  A    between atoms: C_49  and  C_50 
REMARK   46  A    between atoms: O_52  and  C_53 
REMARK   47  A    between atoms: C_53  and  C_55 
REMARK   48  A    between atoms: C_55  and  C_56 
REMARK   49  A    between atoms: C_56  and  C_57 
REMARK   50  A    between atoms: C_57  and  C_58 
REMARK   51  A    between atoms: C_58  and  C_59 
REMARK   52  A    between atoms: C_59  and  C_60 
REMARK   53  A    between atoms: C_60  and  C_61 
REMARK   54  A    between atoms: C_61  and  C_62 
REMARK   55  A    between atoms: C_62  and  C_63 
REMARK   56  A    between atoms: C_63  and  C_64 
REMARK   57  A    between atoms: C_64  and  C_65 
REMARK   58  A    between atoms: C_65  and  C_66 
REMARK   59  A    between atoms: C_67  and  C_68 
REMARK   60  A    between atoms: C_68  and  C_69 
REMARK   61  A    between atoms: C_69  and  C_70 
REMARK   62  A    between atoms: C_70  and  C_71 
REMARK   63  A    between atoms: C_71  and  C_72 
REMARK   64  A    between atoms: C_72  and  C_73 
REMARK   65  A    between atoms: C_73  and  C_74 
ROOT
HETATM    1  C   UNK N   1      31.944  16.576   8.288  0.00  0.00     0.180 C 
ENDROOT
BRANCH   1   2
HETATM    2  C   UNK N   1      30.896  17.387   9.039  0.00  0.00     0.213 C 
BRANCH   2   3
HETATM    3  O   UNK N   1      29.665  16.839   8.776  0.00  0.00    -0.319 OA
BRANCH   3   4
HETATM    4  C   UNK N   1      28.557  17.604   8.818  0.00  0.00     0.258 C 
HETATM    5  O   UNK N   1      27.533  17.188   9.337  0.00  0.00    -0.265 OA
BRANCH   4   6
HETATM    6  C   UNK N   1      28.628  19.017   8.355  0.00  0.00     0.111 C 
BRANCH   6   7
HETATM    7  C   UNK N   1      27.830  19.222   7.085  0.00  0.00     0.010 C 
BRANCH   7   8
HETATM    8  C   UNK N   1      28.625  18.697   5.902  0.00  0.00     0.000 C 
BRANCH   8   9
HETATM    9  C   UNK N   1      28.327  19.499   4.639  0.00  0.00     0.000 C 
BRANCH   9  10
HETATM   10  C   UNK N   1      26.992  20.224   4.752  0.00  0.00     0.000 C 
BRANCH  10  11
HETATM   11  C   UNK N   1      26.176  20.153   3.466  0.00  0.00     0.000 C 
BRANCH  11  12
HETATM   12  C   UNK N   1      24.765  19.660   3.745  0.00  0.00     0.000 C 
BRANCH  12  13
HETATM   13  C   UNK N   1      24.797  18.408   4.612  0.00  0.00     0.000 C 
BRANCH  13  14
HETATM   14  C   UNK N   1      24.236  17.205   3.862  0.00  0.00     0.000 C 
BRANCH  14  15
HETATM   15  C   UNK N   1      22.835  16.872   4.359  0.00  0.00     0.004 C 
BRANCH  15  16
HETATM   16  C   UNK N   1      22.655  17.314   5.802  0.00  0.00     0.027 C 
BRANCH  16  17
HETATM   17  C   UNK N   1      21.243  17.082   6.248  0.00  0.00    -0.031 C 
HETATM   18  C   UNK N   1      20.868  16.041   6.997  0.00  0.00    -0.031 C 
BRANCH  18  19
HETATM   19  C   UNK N   1      21.824  14.995   7.466  0.00  0.00     0.027 C 
BRANCH  19  20
HETATM   20  C   UNK N   1      21.115  13.653   7.545  0.00  0.00     0.004 C 
BRANCH  20  21
HETATM   21  C   UNK N   1      21.671  12.683   6.515  0.00  0.00     0.000 C 
BRANCH  21  22
HETATM   22  C   UNK N   1      22.150  11.419   7.209  0.00  0.00     0.000 C 
BRANCH  22  23
HETATM   23  C   UNK N   1      23.377  11.710   8.046  0.00  0.00     0.000 C 
BRANCH  23  24
HETATM   24  C   UNK N   1      23.049  11.475   9.506  0.00  0.00    -0.000 C 
BRANCH  24  25
HETATM   25  C   UNK N   1      23.606  12.609  10.339  0.00  0.00    -0.005 C 
HETATM   26  C   UNK N   1      24.863  13.141   9.686  0.00  0.00     0.005 C 
ENDBRANCH  24  25
ENDBRANCH  23  24
ENDBRANCH  22  23
ENDBRANCH  21  22
ENDBRANCH  20  21
ENDBRANCH  19  20
ENDBRANCH  18  19
ENDBRANCH  16  17
ENDBRANCH  15  16
ENDBRANCH  14  15
ENDBRANCH  13  14
ENDBRANCH  12  13
ENDBRANCH  11  12
ENDBRANCH  10  11
ENDBRANCH   9  10
ENDBRANCH   8   9
ENDBRANCH   7   8
ENDBRANCH   6   7
ENDBRANCH   4   6
ENDBRANCH   3   4
ENDBRANCH   2   3
ENDBRANCH   1   2
BRANCH   1  27
HETATM   27  C   UNK N   1      32.597  15.565   9.201  0.00  0.00     0.213 C 
BRANCH  27  28
HETATM   28  O   UNK N   1      33.752  16.132   9.679  0.00  0.00    -0.319 OA
BRANCH  28  29
HETATM   29  C   UNK N   1      34.596  15.448  10.486  0.00  0.00     0.258 C 
HETATM   30  O   UNK N   1      34.180  14.847  11.462  0.00  0.00    -0.265 OA
BRANCH  29  31
HETATM   31  C   UNK N   1      36.045  15.369  10.139  0.00  0.00     0.111 C 
BRANCH  31  32
HETATM   32  C   UNK N   1      36.301  14.305   9.087  0.00  0.00     0.010 C 
BRANCH  32  33
HETATM   33  C   UNK N   1      37.455  13.402   9.497  0.00  0.00     0.000 C 
BRANCH  33  34
HETATM   34  C   UNK N   1      36.921  12.096  10.064  0.00  0.00     0.000 C 
BRANCH  34  35
HETATM   35  C   UNK N   1      35.499  11.837   9.588  0.00  0.00     0.000 C 
BRANCH  35  36
HETATM   36  C   UNK N   1      34.554  11.511  10.739  0.00  0.00     0.000 C 
BRANCH  36  37
HETATM   37  C   UNK N   1      33.744  10.262  10.441  0.00  0.00     0.000 C 
BRANCH  37  38
HETATM   38  C   UNK N   1      33.690   9.375  11.670  0.00  0.00     0.000 C 
BRANCH  38  39
HETATM   39  C   UNK N   1      34.340  10.079  12.842  0.00  0.00     0.000 C 
BRANCH  39  40
HETATM   40  C   UNK N   1      35.470   9.228  13.401  0.00  0.00     0.004 C 
BRANCH  40  41
HETATM   41  C   UNK N   1      36.824   9.778  12.978  0.00  0.00     0.027 C 
BRANCH  41  42
HETATM   42  C   UNK N   1      37.539  10.340  14.168  0.00  0.00    -0.031 C 
HETATM   43  C   UNK N   1      37.561  11.649  14.438  0.00  0.00    -0.031 C 
BRANCH  43  44
HETATM   44  C   UNK N   1      36.849  12.658  13.590  0.00  0.00     0.027 C 
BRANCH  44  45
HETATM   45  C   UNK N   1      35.715  13.318  14.361  0.00  0.00     0.004 C 
BRANCH  45  46
HETATM   46  C   UNK N   1      36.056  13.480  15.834  0.00  0.00     0.000 C 
BRANCH  46  47
HETATM   47  C   UNK N   1      34.902  12.991  16.690  0.00  0.00     0.000 C 
BRANCH  47  48
HETATM   48  C   UNK N   1      35.274  11.709  17.411  0.00  0.00     0.000 C 
BRANCH  48  49
HETATM   49  C   UNK N   1      34.769  10.516  16.626  0.00  0.00    -0.000 C 
BRANCH  49  50
HETATM   50  C   UNK N   1      34.874   9.273  17.485  0.00  0.00    -0.005 C 
HETATM   51  C   UNK N   1      34.466   9.608  18.905  0.00  0.00     0.005 C 
ENDBRANCH  49  50
ENDBRANCH  48  49
ENDBRANCH  47  48
ENDBRANCH  46  47
ENDBRANCH  45  46
ENDBRANCH  44  45
ENDBRANCH  43  44
ENDBRANCH  41  42
ENDBRANCH  40  41
ENDBRANCH  39  40
ENDBRANCH  38  39
ENDBRANCH  37  38
ENDBRANCH  36  37
ENDBRANCH  35  36
ENDBRANCH  34  35
ENDBRANCH  33  34
ENDBRANCH  32  33
ENDBRANCH  31  32
ENDBRANCH  29  31
ENDBRANCH  28  29
ENDBRANCH  27  28
ENDBRANCH   1  27
BRANCH   1  52
HETATM   52  O   UNK N   1      32.893  17.413   7.737  0.00  0.00    -0.312 OA
BRANCH  52  53
HETATM   53  C   UNK N   1      33.091  17.497   6.407  0.00  0.00     0.259 C 
HETATM   54  O   UNK N   1      34.197  17.808   5.961  0.00  0.00    -0.265 OA
BRANCH  53  55
HETATM   55  C   UNK N   1      32.002  17.131   5.461  0.00  0.00     0.111 C 
BRANCH  55  56
HETATM   56  C   UNK N   1      32.192  17.778   4.099  0.00  0.00     0.010 C 
BRANCH  56  57
HETATM   57  C   UNK N   1      31.978  16.754   2.994  0.00  0.00     0.000 C 
BRANCH  57  58
HETATM   58  C   UNK N   1      33.095  15.732   3.045  0.00  0.00     0.000 C 
BRANCH  58  59
HETATM   59  C   UNK N   1      32.580  14.316   2.937  0.00  0.00     0.000 C 
BRANCH  59  60
HETATM   60  C   UNK N   1      31.083  14.397   3.123  0.00  0.00     0.000 C 
BRANCH  60  61
HETATM   61  C   UNK N   1      30.616  13.622   4.332  0.00  0.00     0.000 C 
BRANCH  61  62
HETATM   62  C   UNK N   1      29.133  13.889   4.460  0.00  0.00     0.000 C 
BRANCH  62  63
HETATM   63  C   UNK N   1      28.686  15.021   3.567  0.00  0.00     0.000 C 
BRANCH  63  64
HETATM   64  C   UNK N   1      27.634  15.801   4.325  0.00  0.00     0.004 C 
BRANCH  64  65
HETATM   65  C   UNK N   1      27.554  15.323   5.760  0.00  0.00     0.027 C 
BRANCH  65  66
HETATM   66  C   UNK N   1      26.177  15.328   6.388  0.00  0.00    -0.031 C 
HETATM   67  C   UNK N   1      25.158  14.461   6.220  0.00  0.00    -0.031 C 
BRANCH  67  68
HETATM   68  C   UNK N   1      25.159  13.251   5.335  0.00  0.00     0.027 C 
BRANCH  68  69
HETATM   69  C   UNK N   1      24.358  13.493   4.069  0.00  0.00     0.004 C 
BRANCH  69  70
HETATM   70  C   UNK N   1      25.185  13.071   2.871  0.00  0.00     0.000 C 
BRANCH  70  71
HETATM   71  C   UNK N   1      25.389  14.262   1.957  0.00  0.00     0.000 C 
BRANCH  71  72
HETATM   72  C   UNK N   1      24.114  14.562   1.195  0.00  0.00     0.000 C 
BRANCH  72  73
HETATM   73  C   UNK N   1      23.738  13.374   0.331  0.00  0.00    -0.000 C 
BRANCH  73  74
HETATM   74  C   UNK N   1      22.242  13.118   0.395  0.00  0.00    -0.005 C 
HETATM   75  C   UNK N   1      21.963  11.860   1.197  0.00  0.00     0.005 C 
ENDBRANCH  73  74
ENDBRANCH  72  73
ENDBRANCH  71  72
ENDBRANCH  70  71
ENDBRANCH  69  70
ENDBRANCH  68  69
ENDBRANCH  67  68
ENDBRANCH  65  66
ENDBRANCH  64  65
ENDBRANCH  63  64
ENDBRANCH  62  63
ENDBRANCH  61  62
ENDBRANCH  60  61
ENDBRANCH  59  60
ENDBRANCH  58  59
ENDBRANCH  57  58
ENDBRANCH  56  57
ENDBRANCH  55  56
ENDBRANCH  53  55
ENDBRANCH  52  53
ENDBRANCH   1  52
TORSDOF 65
ENDMDL
MODEL 6
REMARK VINA RESULT:      -4.8      6.387     12.485
REMARK WARNING: 32 MAX_TORS EXCEEDED!!!
REMARK  65 active torsions:
REMARK  status: ('A' for Active; 'I' for Inactive)
REMARK    1  A    between atoms: O_1  and  C_2 
REMARK    2  A    between atoms: O_1  and  C_25 
REMARK    3  A    between atoms: C_2  and  C_4 
REMARK    4  A    between atoms: C_4  and  C_5 
REMARK    5  A    between atoms: C_5  and  C_6 
REMARK    6  A    between atoms: C_6  and  C_7 
REMARK    7  A    between atoms: C_7  and  C_8 
REMARK    8  A    between atoms: C_8  and  C_9 
REMARK    9  A    between atoms: C_9  and  C_10 
REMARK   10  A    between atoms: C_10  and  C_11 
REMARK   11  A    between atoms: C_11  and  C_12 
REMARK   12  A    between atoms: C_12  and  C_13 
REMARK   13  A    between atoms: C_13  and  C_14 
REMARK   14  A    between atoms: C_14  and  C_15 
REMARK   15  A    between atoms: C_16  and  C_17 
REMARK   16  A    between atoms: C_17  and  C_18 
REMARK   17  A    between atoms: C_18  and  C_19 
REMARK   18  A    between atoms: C_19  and  C_20 
REMARK   19  A    between atoms: C_20  and  C_21 
REMARK   20  A    between atoms: C_21  and  C_22 
REMARK   21  A    between atoms: C_22  and  C_23 
REMARK   22  A    between atoms: C_25  and  C_26 
REMARK   23  A    between atoms: C_26  and  C_27 
REMARK   24  A    between atoms: C_26  and  O_52 
REMARK   25  A    between atoms: C_27  and  O_28 
REMARK   26  A    between atoms: O_28  and  C_29 
REMARK   27  A    between atoms: C_29  and  C_31 
REMARK   28  A    between atoms: C_31  and  C_32 
REMARK   29  A    between atoms: C_32  and  C_33 
REMARK   30  A    between atoms: C_33  and  C_34 
REMARK   31  A    between atoms: C_34  and  C_35 
REMARK   32  A    between atoms: C_35  and  C_36 
REMARK   33  A    between atoms: C_36  and  C_37 
REMARK   34  A    between atoms: C_37  and  C_38 
REMARK   35  A    between atoms: C_38  and  C_39 
REMARK   36  A    between atoms: C_39  and  C_40 
REMARK   37  A    between atoms: C_40  and  C_41 
REMARK   38  A    between atoms: C_41  and  C_42 
REMARK   39  A    between atoms: C_43  and  C_44 
REMARK   40  A    between atoms: C_44  and  C_45 
REMARK   41  A    between atoms: C_45  and  C_46 
REMARK   42  A    between atoms: C_46  and  C_47 
REMARK   43  A    between atoms: C_47  and  C_48 
REMARK   44  A    between atoms: C_48  and  C_49 
REMARK   45  A    between atoms: C_49  and  C_50 
REMARK   46  A    between atoms: O_52  and  C_53 
REMARK   47  A    between atoms: C_53  and  C_55 
REMARK   48  A    between atoms: C_55  and  C_56 
REMARK   49  A    between atoms: C_56  and  C_57 
REMARK   50  A    between atoms: C_57  and  C_58 
REMARK   51  A    between atoms: C_58  and  C_59 
REMARK   52  A    between atoms: C_59  and  C_60 
REMARK   53  A    between atoms: C_60  and  C_61 
REMARK   54  A    between atoms: C_61  and  C_62 
REMARK   55  A    between atoms: C_62  and  C_63 
REMARK   56  A    between atoms: C_63  and  C_64 
REMARK   57  A    between atoms: C_64  and  C_65 
REMARK   58  A    between atoms: C_65  and  C_66 
REMARK   59  A    between atoms: C_67  and  C_68 
REMARK   60  A    between atoms: C_68  and  C_69 
REMARK   61  A    between atoms: C_69  and  C_70 
REMARK   62  A    between atoms: C_70  and  C_71 
REMARK   63  A    between atoms: C_71  and  C_72 
REMARK   64  A    between atoms: C_72  and  C_73 
REMARK   65  A    between atoms: C_73  and  C_74 
ROOT
HETATM    1  C   UNK N   1      32.428  16.249   8.215  0.00  0.00     0.180 C 
ENDROOT
BRANCH   1   2
HETATM    2  C   UNK N   1      31.058  16.545   8.814  0.00  0.00     0.213 C 
BRANCH   2   3
HETATM    3  O   UNK N   1      30.881  17.907   8.816  0.00  0.00    -0.319 OA
BRANCH   3   4
HETATM    4  C   UNK N   1      29.684  18.436   9.135  0.00  0.00     0.258 C 
HETATM    5  O   UNK N   1      29.419  18.726  10.291  0.00  0.00    -0.265 OA
BRANCH   4   6
HETATM    6  C   UNK N   1      28.736  18.801   8.046  0.00  0.00     0.111 C 
BRANCH   6   7
HETATM    7  C   UNK N   1      27.888  17.617   7.634  0.00  0.00     0.010 C 
BRANCH   7   8
HETATM    8  C   UNK N   1      28.277  17.185   6.230  0.00  0.00     0.000 C 
BRANCH   8   9
HETATM    9  C   UNK N   1      28.689  18.382   5.380  0.00  0.00     0.000 C 
BRANCH   9  10
HETATM   10  C   UNK N   1      27.840  18.478   4.120  0.00  0.00     0.000 C 
BRANCH  10  11
HETATM   11  C   UNK N   1      27.056  19.783   4.038  0.00  0.00     0.000 C 
BRANCH  11  12
HETATM   12  C   UNK N   1      25.730  19.667   4.773  0.00  0.00     0.000 C 
BRANCH  12  13
HETATM   13  C   UNK N   1      24.686  18.995   3.891  0.00  0.00     0.000 C 
BRANCH  13  14
HETATM   14  C   UNK N   1      24.248  17.657   4.475  0.00  0.00     0.000 C 
BRANCH  14  15
HETATM   15  C   UNK N   1      23.101  17.853   5.458  0.00  0.00     0.004 C 
BRANCH  15  16
HETATM   16  C   UNK N   1      22.537  16.513   5.902  0.00  0.00     0.027 C 
BRANCH  16  17
HETATM   17  C   UNK N   1      22.741  15.481   4.835  0.00  0.00    -0.031 C 
HETATM   18  C   UNK N   1      22.038  14.347   4.762  0.00  0.00    -0.031 C 
BRANCH  18  19
HETATM   19  C   UNK N   1      20.974  13.990   5.746  0.00  0.00     0.027 C 
BRANCH  19  20
HETATM   20  C   UNK N   1      20.479  12.578   5.475  0.00  0.00     0.004 C 
BRANCH  20  21
HETATM   21  C   UNK N   1      21.234  11.566   6.323  0.00  0.00     0.000 C 
BRANCH  21  22
HETATM   22  C   UNK N   1      22.373  10.970   5.513  0.00  0.00     0.000 C 
BRANCH  22  23
HETATM   23  C   UNK N   1      23.699  11.244   6.188  0.00  0.00     0.000 C 
BRANCH  23  24
HETATM   24  C   UNK N   1      23.447  11.812   7.568  0.00  0.00    -0.000 C 
BRANCH  24  25
HETATM   25  C   UNK N   1      24.444  12.914   7.852  0.00  0.00    -0.005 C 
HETATM   26  C   UNK N   1      25.217  13.229   6.589  0.00  0.00     0.005 C 
ENDBRANCH  24  25
ENDBRANCH  23  24
ENDBRANCH  22  23
ENDBRANCH  21  22
ENDBRANCH  20  21
ENDBRANCH  19  20
ENDBRANCH  18  19
ENDBRANCH  16  17
ENDBRANCH  15  16
ENDBRANCH  14  15
ENDBRANCH  13  14
ENDBRANCH  12  13
ENDBRANCH  11  12
ENDBRANCH  10  11
ENDBRANCH   9  10
ENDBRANCH   8   9
ENDBRANCH   7   8
ENDBRANCH   6   7
ENDBRANCH   4   6
ENDBRANCH   3   4
ENDBRANCH   2   3
ENDBRANCH   1   2
BRANCH   1  27
HETATM   27  C   UNK N   1      33.351  15.659   9.254  0.00  0.00     0.213 C 
BRANCH  27  28
HETATM   28  O   UNK N   1      34.074  16.694   9.793  0.00  0.00    -0.319 OA
BRANCH  28  29
HETATM   29  C   UNK N   1      35.194  16.473  10.520  0.00  0.00     0.258 C 
HETATM   30  O   UNK N   1      36.078  17.312  10.580  0.00  0.00    -0.265 OA
BRANCH  29  31
HETATM   31  C   UNK N   1      35.320  15.217  11.317  0.00  0.00     0.111 C 
BRANCH  31  32
HETATM   32  C   UNK N   1      36.456  14.352  10.801  0.00  0.00     0.010 C 
BRANCH  32  33
HETATM   33  C   UNK N   1      35.994  12.917  10.594  0.00  0.00     0.000 C 
BRANCH  33  34
HETATM   34  C   UNK N   1      36.950  11.954  11.282  0.00  0.00     0.000 C 
BRANCH  34  35
HETATM   35  C   UNK N   1      37.273  12.424  12.692  0.00  0.00     0.000 C 
BRANCH  35  36
HETATM   36  C   UNK N   1      37.860  11.311  13.552  0.00  0.00     0.000 C 
BRANCH  36  37
HETATM   37  C   UNK N   1      37.235   9.971  13.209  0.00  0.00     0.000 C 
BRANCH  37  38
HETATM   38  C   UNK N   1      37.196   9.087  14.442  0.00  0.00     0.000 C 
BRANCH  38  39
HETATM   39  C   UNK N   1      35.758   8.813  14.832  0.00  0.00     0.000 C 
BRANCH  39  40
HETATM   40  C   UNK N   1      34.822   9.705  14.033  0.00  0.00     0.004 C 
BRANCH  40  41
HETATM   41  C   UNK N   1      33.931  10.522  14.957  0.00  0.00     0.027 C 
BRANCH  41  42
HETATM   42  C   UNK N   1      34.189  11.983  14.755  0.00  0.00    -0.031 C 
HETATM   43  C   UNK N   1      35.016  12.679  15.541  0.00  0.00    -0.031 C 
BRANCH  43  44
HETATM   44  C   UNK N   1      35.772  12.051  16.671  0.00  0.00     0.027 C 
BRANCH  44  45
HETATM   45  C   UNK N   1      35.160  12.424  18.012  0.00  0.00     0.004 C 
BRANCH  45  46
HETATM   46  C   UNK N   1      35.339  11.319  19.041  0.00  0.00     0.000 C 
BRANCH  46  47
HETATM   47  C   UNK N   1      35.534   9.985  18.342  0.00  0.00     0.000 C 
BRANCH  47  48
HETATM   48  C   UNK N   1      34.276   9.142  18.434  0.00  0.00     0.000 C 
BRANCH  48  49
HETATM   49  C   UNK N   1      33.600   9.374  19.769  0.00  0.00    -0.000 C 
BRANCH  49  50
HETATM   50  C   UNK N   1      32.751   8.170  20.115  0.00  0.00    -0.005 C 
HETATM   51  C   UNK N   1      31.291   8.573  20.134  0.00  0.00     0.005 C 
ENDBRANCH  49  50
ENDBRANCH  48  49
ENDBRANCH  47  48
ENDBRANCH  46  47
ENDBRANCH  45  46
ENDBRANCH  44  45
ENDBRANCH  43  44
ENDBRANCH  41  42
ENDBRANCH  40  41
ENDBRANCH  39  40
ENDBRANCH  38  39
ENDBRANCH  37  38
ENDBRANCH  36  37
ENDBRANCH  35  36
ENDBRANCH  34  35
ENDBRANCH  33  34
ENDBRANCH  32  33
ENDBRANCH  31  32
ENDBRANCH  29  31
ENDBRANCH  28  29
ENDBRANCH  27  28
ENDBRANCH   1  27
BRANCH   1  52
HETATM   52  O   UNK N   1      32.974  17.397   7.679  0.00  0.00    -0.312 OA
BRANCH  52  53
HETATM   53  C   UNK N   1      33.296  17.496   6.374  0.00  0.00     0.259 C 
HETATM   54  O   UNK N   1      34.460  17.718   6.036  0.00  0.00    -0.265 OA
BRANCH  53  55
HETATM   55  C   UNK N   1      32.267  17.255   5.326  0.00  0.00     0.111 C 
BRANCH  55  56
HETATM   56  C   UNK N   1      32.742  17.695   3.951  0.00  0.00     0.010 C 
BRANCH  56  57
HETATM   57  C   UNK N   1      32.266  16.715   2.889  0.00  0.00     0.000 C 
BRANCH  57  58
HETATM   58  C   UNK N   1      30.762  16.564   2.997  0.00  0.00     0.000 C 
BRANCH  58  59
HETATM   59  C   UNK N   1      30.324  15.122   2.901  0.00  0.00     0.000 C 
BRANCH  59  60
HETATM   60  C   UNK N   1      28.828  15.149   2.692  0.00  0.00     0.000 C 
BRANCH  60  61
HETATM   61  C   UNK N   1      28.076  14.601   3.881  0.00  0.00     0.000 C 
BRANCH  61  62
HETATM   62  C   UNK N   1      26.631  15.005   3.693  0.00  0.00     0.000 C 
BRANCH  62  63
HETATM   63  C   UNK N   1      26.349  15.441   2.275  0.00  0.00     0.000 C 
BRANCH  63  64
HETATM   64  C   UNK N   1      25.176  14.624   1.779  0.00  0.00     0.004 C 
BRANCH  64  65
HETATM   65  C   UNK N   1      24.903  13.469   2.721  0.00  0.00     0.027 C 
BRANCH  65  66
HETATM   66  C   UNK N   1      24.666  12.123   2.071  0.00  0.00    -0.031 C 
HETATM   67  C   UNK N   1      23.503  11.531   1.730  0.00  0.00    -0.031 C 
BRANCH  67  68
HETATM   68  C   UNK N   1      22.129  12.096   1.928  0.00  0.00     0.027 C 
BRANCH  68  69
HETATM   69  C   UNK N   1      21.558  12.626   0.626  0.00  0.00     0.004 C 
BRANCH  69  70
HETATM   70  C   UNK N   1      20.409  13.565   0.934  0.00  0.00     0.000 C 
BRANCH  70  71
HETATM   71  C   UNK N   1      20.931  14.984   1.021  0.00  0.00     0.000 C 
BRANCH  71  72
HETATM   72  C   UNK N   1      19.880  15.960   0.534  0.00  0.00     0.000 C 
BRANCH  72  73
HETATM   73  C   UNK N   1      20.103  17.319   1.170  0.00  0.00    -0.000 C 
BRANCH  73  74
HETATM   74  C   UNK N   1      20.754  17.171   2.534  0.00  0.00    -0.005 C 
HETATM   75  C   UNK N   1      19.740  17.452   3.628  0.00  0.00     0.005 C 
ENDBRANCH  73  74
ENDBRANCH  72  73
ENDBRANCH  71  72
ENDBRANCH  70  71
ENDBRANCH  69  70
ENDBRANCH  68  69
ENDBRANCH  67  68
ENDBRANCH  65  66
ENDBRANCH  64  65
ENDBRANCH  63  64
ENDBRANCH  62  63
ENDBRANCH  61  62
ENDBRANCH  60  61
ENDBRANCH  59  60
ENDBRANCH  58  59
ENDBRANCH  57  58
ENDBRANCH  56  57
ENDBRANCH  55  56
ENDBRANCH  53  55
ENDBRANCH  52  53
ENDBRANCH   1  52
TORSDOF 65
ENDMDL
MODEL 7
REMARK VINA RESULT:      -4.8      5.829     11.905
REMARK WARNING: 32 MAX_TORS EXCEEDED!!!
REMARK  65 active torsions:
REMARK  status: ('A' for Active; 'I' for Inactive)
REMARK    1  A    between atoms: O_1  and  C_2 
REMARK    2  A    between atoms: O_1  and  C_25 
REMARK    3  A    between atoms: C_2  and  C_4 
REMARK    4  A    between atoms: C_4  and  C_5 
REMARK    5  A    between atoms: C_5  and  C_6 
REMARK    6  A    between atoms: C_6  and  C_7 
REMARK    7  A    between atoms: C_7  and  C_8 
REMARK    8  A    between atoms: C_8  and  C_9 
REMARK    9  A    between atoms: C_9  and  C_10 
REMARK   10  A    between atoms: C_10  and  C_11 
REMARK   11  A    between atoms: C_11  and  C_12 
REMARK   12  A    between atoms: C_12  and  C_13 
REMARK   13  A    between atoms: C_13  and  C_14 
REMARK   14  A    between atoms: C_14  and  C_15 
REMARK   15  A    between atoms: C_16  and  C_17 
REMARK   16  A    between atoms: C_17  and  C_18 
REMARK   17  A    between atoms: C_18  and  C_19 
REMARK   18  A    between atoms: C_19  and  C_20 
REMARK   19  A    between atoms: C_20  and  C_21 
REMARK   20  A    between atoms: C_21  and  C_22 
REMARK   21  A    between atoms: C_22  and  C_23 
REMARK   22  A    between atoms: C_25  and  C_26 
REMARK   23  A    between atoms: C_26  and  C_27 
REMARK   24  A    between atoms: C_26  and  O_52 
REMARK   25  A    between atoms: C_27  and  O_28 
REMARK   26  A    between atoms: O_28  and  C_29 
REMARK   27  A    between atoms: C_29  and  C_31 
REMARK   28  A    between atoms: C_31  and  C_32 
REMARK   29  A    between atoms: C_32  and  C_33 
REMARK   30  A    between atoms: C_33  and  C_34 
REMARK   31  A    between atoms: C_34  and  C_35 
REMARK   32  A    between atoms: C_35  and  C_36 
REMARK   33  A    between atoms: C_36  and  C_37 
REMARK   34  A    between atoms: C_37  and  C_38 
REMARK   35  A    between atoms: C_38  and  C_39 
REMARK   36  A    between atoms: C_39  and  C_40 
REMARK   37  A    between atoms: C_40  and  C_41 
REMARK   38  A    between atoms: C_41  and  C_42 
REMARK   39  A    between atoms: C_43  and  C_44 
REMARK   40  A    between atoms: C_44  and  C_45 
REMARK   41  A    between atoms: C_45  and  C_46 
REMARK   42  A    between atoms: C_46  and  C_47 
REMARK   43  A    between atoms: C_47  and  C_48 
REMARK   44  A    between atoms: C_48  and  C_49 
REMARK   45  A    between atoms: C_49  and  C_50 
REMARK   46  A    between atoms: O_52  and  C_53 
REMARK   47  A    between atoms: C_53  and  C_55 
REMARK   48  A    between atoms: C_55  and  C_56 
REMARK   49  A    between atoms: C_56  and  C_57 
REMARK   50  A    between atoms: C_57  and  C_58 
REMARK   51  A    between atoms: C_58  and  C_59 
REMARK   52  A    between atoms: C_59  and  C_60 
REMARK   53  A    between atoms: C_60  and  C_61 
REMARK   54  A    between atoms: C_61  and  C_62 
REMARK   55  A    between atoms: C_62  and  C_63 
REMARK   56  A    between atoms: C_63  and  C_64 
REMARK   57  A    between atoms: C_64  and  C_65 
REMARK   58  A    between atoms: C_65  and  C_66 
REMARK   59  A    between atoms: C_67  and  C_68 
REMARK   60  A    between atoms: C_68  and  C_69 
REMARK   61  A    between atoms: C_69  and  C_70 
REMARK   62  A    between atoms: C_70  and  C_71 
REMARK   63  A    between atoms: C_71  and  C_72 
REMARK   64  A    between atoms: C_72  and  C_73 
REMARK   65  A    between atoms: C_73  and  C_74 
ROOT
HETATM    1  C   UNK N   1      32.069  16.295   7.901  0.00  0.00     0.180 C 
ENDROOT
BRANCH   1   2
HETATM    2  C   UNK N   1      30.763  16.553   8.642  0.00  0.00     0.213 C 
BRANCH   2   3
HETATM    3  O   UNK N   1      30.343  17.823   8.332  0.00  0.00    -0.319 OA
BRANCH   3   4
HETATM    4  C   UNK N   1      29.352  18.402   9.038  0.00  0.00     0.258 C 
HETATM    5  O   UNK N   1      29.580  18.926  10.116  0.00  0.00    -0.265 OA
BRANCH   4   6
HETATM    6  C   UNK N   1      27.999  18.527   8.428  0.00  0.00     0.111 C 
BRANCH   6   7
HETATM    7  C   UNK N   1      28.022  19.434   7.217  0.00  0.00     0.010 C 
BRANCH   7   8
HETATM    8  C   UNK N   1      26.961  20.510   7.375  0.00  0.00     0.000 C 
BRANCH   8   9
HETATM    9  C   UNK N   1      26.683  21.209   6.048  0.00  0.00     0.000 C 
BRANCH   9  10
HETATM   10  C   UNK N   1      27.503  20.594   4.922  0.00  0.00     0.000 C 
BRANCH  10  11
HETATM   11  C   UNK N   1      26.666  20.289   3.686  0.00  0.00     0.000 C 
BRANCH  11  12
HETATM   12  C   UNK N   1      25.216  20.028   4.062  0.00  0.00     0.000 C 
BRANCH  12  13
HETATM   13  C   UNK N   1      24.807  18.614   3.668  0.00  0.00     0.000 C 
BRANCH  13  14
HETATM   14  C   UNK N   1      23.330  18.369   3.952  0.00  0.00     0.000 C 
BRANCH  14  15
HETATM   15  C   UNK N   1      23.077  18.315   5.454  0.00  0.00     0.004 C 
BRANCH  15  16
HETATM   16  C   UNK N   1      21.595  18.143   5.745  0.00  0.00     0.027 C 
BRANCH  16  17
HETATM   17  C   UNK N   1      20.970  17.215   4.747  0.00  0.00    -0.031 C 
HETATM   18  C   UNK N   1      20.399  16.053   5.076  0.00  0.00    -0.031 C 
BRANCH  18  19
HETATM   19  C   UNK N   1      20.329  15.556   6.482  0.00  0.00     0.027 C 
BRANCH  19  20
HETATM   20  C   UNK N   1      20.583  14.057   6.507  0.00  0.00     0.004 C 
BRANCH  20  21
HETATM   21  C   UNK N   1      21.285  13.648   7.793  0.00  0.00     0.000 C 
BRANCH  21  22
HETATM   22  C   UNK N   1      21.881  12.260   7.629  0.00  0.00     0.000 C 
BRANCH  22  23
HETATM   23  C   UNK N   1      23.176  12.147   8.403  0.00  0.00     0.000 C 
BRANCH  23  24
HETATM   24  C   UNK N   1      22.895  11.514   9.750  0.00  0.00    -0.000 C 
BRANCH  24  25
HETATM   25  C   UNK N   1      23.017  12.560  10.837  0.00  0.00    -0.005 C 
HETATM   26  C   UNK N   1      23.087  11.877  12.185  0.00  0.00     0.005 C 
ENDBRANCH  24  25
ENDBRANCH  23  24
ENDBRANCH  22  23
ENDBRANCH  21  22
ENDBRANCH  20  21
ENDBRANCH  19  20
ENDBRANCH  18  19
ENDBRANCH  16  17
ENDBRANCH  15  16
ENDBRANCH  14  15
ENDBRANCH  13  14
ENDBRANCH  12  13
ENDBRANCH  11  12
ENDBRANCH  10  11
ENDBRANCH   9  10
ENDBRANCH   8   9
ENDBRANCH   7   8
ENDBRANCH   6   7
ENDBRANCH   4   6
ENDBRANCH   3   4
ENDBRANCH   2   3
ENDBRANCH   1   2
BRANCH   1  27
HETATM   27  C   UNK N   1      33.099  15.689   8.824  0.00  0.00     0.213 C 
BRANCH  27  28
HETATM   28  O   UNK N   1      33.795  16.725   9.395  0.00  0.00    -0.319 OA
BRANCH  28  29
HETATM   29  C   UNK N   1      35.034  16.547   9.912  0.00  0.00     0.258 C 
HETATM   30  O   UNK N   1      35.648  17.480  10.401  0.00  0.00    -0.265 OA
BRANCH  29  31
HETATM   31  C   UNK N   1      35.627  15.179   9.948  0.00  0.00     0.111 C 
BRANCH  31  32
HETATM   32  C   UNK N   1      36.269  14.894  11.294  0.00  0.00     0.010 C 
BRANCH  32  33
HETATM   33  C   UNK N   1      36.953  13.535  11.292  0.00  0.00     0.000 C 
BRANCH  33  34
HETATM   34  C   UNK N   1      35.933  12.435  11.035  0.00  0.00     0.000 C 
BRANCH  34  35
HETATM   35  C   UNK N   1      36.315  11.615   9.812  0.00  0.00     0.000 C 
BRANCH  35  36
HETATM   36  C   UNK N   1      37.324  10.521  10.142  0.00  0.00     0.000 C 
BRANCH  36  37
HETATM   37  C   UNK N   1      36.912   9.196   9.526  0.00  0.00     0.000 C 
BRANCH  37  38
HETATM   38  C   UNK N   1      35.432   8.956   9.756  0.00  0.00     0.000 C 
BRANCH  38  39
HETATM   39  C   UNK N   1      35.210   8.416  11.153  0.00  0.00     0.000 C 
BRANCH  39  40
HETATM   40  C   UNK N   1      34.158   9.245  11.872  0.00  0.00     0.004 C 
BRANCH  40  41
HETATM   41  C   UNK N   1      34.653   9.678  13.244  0.00  0.00     0.027 C 
BRANCH  41  42
HETATM   42  C   UNK N   1      36.113   9.374  13.378  0.00  0.00    -0.031 C 
HETATM   43  C   UNK N   1      36.612   8.703  14.421  0.00  0.00    -0.031 C 
BRANCH  43  44
HETATM   44  C   UNK N   1      35.749   8.178  15.528  0.00  0.00     0.027 C 
BRANCH  44  45
HETATM   45  C   UNK N   1      36.215   8.701  16.878  0.00  0.00     0.004 C 
BRANCH  45  46
HETATM   46  C   UNK N   1      35.124   9.489  17.585  0.00  0.00     0.000 C 
BRANCH  46  47
HETATM   47  C   UNK N   1      34.681  10.654  16.719  0.00  0.00     0.000 C 
BRANCH  47  48
HETATM   48  C   UNK N   1      35.357  11.939  17.159  0.00  0.00     0.000 C 
BRANCH  48  49
HETATM   49  C   UNK N   1      34.842  13.098  16.333  0.00  0.00    -0.000 C 
BRANCH  49  50
HETATM   50  C   UNK N   1      35.386  12.988  14.924  0.00  0.00    -0.005 C 
HETATM   51  C   UNK N   1      36.889  12.811  14.979  0.00  0.00     0.005 C 
ENDBRANCH  49  50
ENDBRANCH  48  49
ENDBRANCH  47  48
ENDBRANCH  46  47
ENDBRANCH  45  46
ENDBRANCH  44  45
ENDBRANCH  43  44
ENDBRANCH  41  42
ENDBRANCH  40  41
ENDBRANCH  39  40
ENDBRANCH  38  39
ENDBRANCH  37  38
ENDBRANCH  36  37
ENDBRANCH  35  36
ENDBRANCH  34  35
ENDBRANCH  33  34
ENDBRANCH  32  33
ENDBRANCH  31  32
ENDBRANCH  29  31
ENDBRANCH  28  29
ENDBRANCH  27  28
ENDBRANCH   1  27
BRANCH   1  52
HETATM   52  O   UNK N   1      32.545  17.466   7.347  0.00  0.00    -0.312 OA
BRANCH  52  53
HETATM   53  C   UNK N   1      33.335  17.474   6.256  0.00  0.00     0.259 C 
HETATM   54  O   UNK N   1      34.477  17.934   6.319  0.00  0.00    -0.265 OA
BRANCH  53  55
HETATM   55  C   UNK N   1      32.871  16.853   4.987  0.00  0.00     0.111 C 
BRANCH  55  56
HETATM   56  C   UNK N   1      31.664  17.573   4.409  0.00  0.00     0.010 C 
BRANCH  56  57
HETATM   57  C   UNK N   1      30.409  16.733   4.594  0.00  0.00     0.000 C 
BRANCH  57  58
HETATM   58  C   UNK N   1      29.192  17.606   4.368  0.00  0.00     0.000 C 
BRANCH  58  59
HETATM   59  C   UNK N   1      27.903  16.880   4.669  0.00  0.00     0.000 C 
BRANCH  59  60
HETATM   60  C   UNK N   1      28.243  15.826   5.697  0.00  0.00     0.000 C 
BRANCH  60  61
HETATM   61  C   UNK N   1      27.035  15.020   6.109  0.00  0.00     0.000 C 
BRANCH  61  62
HETATM   62  C   UNK N   1      25.847  15.949   6.003  0.00  0.00     0.000 C 
BRANCH  62  63
HETATM   63  C   UNK N   1      24.540  15.192   5.983  0.00  0.00     0.000 C 
BRANCH  63  64
HETATM   64  C   UNK N   1      24.854  13.765   5.590  0.00  0.00     0.004 C 
BRANCH  64  65
HETATM   65  C   UNK N   1      23.874  13.280   4.542  0.00  0.00     0.027 C 
BRANCH  65  66
HETATM   66  C   UNK N   1      23.173  14.354   3.738  0.00  0.00    -0.031 C 
HETATM   67  C   UNK N   1      23.526  14.908   2.561  0.00  0.00    -0.031 C 
BRANCH  67  68
HETATM   68  C   UNK N   1      24.742  14.574   1.751  0.00  0.00     0.027 C 
BRANCH  68  69
HETATM   69  C   UNK N   1      25.895  15.505   2.079  0.00  0.00     0.004 C 
BRANCH  69  70
HETATM   70  C   UNK N   1      27.196  14.732   1.993  0.00  0.00     0.000 C 
BRANCH  70  71
HETATM   71  C   UNK N   1      27.011  13.367   2.623  0.00  0.00     0.000 C 
BRANCH  71  72
HETATM   72  C   UNK N   1      28.312  12.591   2.584  0.00  0.00     0.000 C 
BRANCH  72  73
HETATM   73  C   UNK N   1      29.069  12.788   3.884  0.00  0.00    -0.000 C 
BRANCH  73  74
HETATM   74  C   UNK N   1      30.488  13.254   3.612  0.00  0.00    -0.005 C 
HETATM   75  C   UNK N   1      31.296  13.240   4.897  0.00  0.00     0.005 C 
ENDBRANCH  73  74
ENDBRANCH  72  73
ENDBRANCH  71  72
ENDBRANCH  70  71
ENDBRANCH  69  70
ENDBRANCH  68  69
ENDBRANCH  67  68
ENDBRANCH  65  66
ENDBRANCH  64  65
ENDBRANCH  63  64
ENDBRANCH  62  63
ENDBRANCH  61  62
ENDBRANCH  60  61
ENDBRANCH  59  60
ENDBRANCH  58  59
ENDBRANCH  57  58
ENDBRANCH  56  57
ENDBRANCH  55  56
ENDBRANCH  53  55
ENDBRANCH  52  53
ENDBRANCH   1  52
TORSDOF 65
ENDMDL
MODEL 8
REMARK VINA RESULT:      -4.7      6.643     12.517
REMARK WARNING: 32 MAX_TORS EXCEEDED!!!
REMARK  65 active torsions:
REMARK  status: ('A' for Active; 'I' for Inactive)
REMARK    1  A    between atoms: O_1  and  C_2 
REMARK    2  A    between atoms: O_1  and  C_25 
REMARK    3  A    between atoms: C_2  and  C_4 
REMARK    4  A    between atoms: C_4  and  C_5 
REMARK    5  A    between atoms: C_5  and  C_6 
REMARK    6  A    between atoms: C_6  and  C_7 
REMARK    7  A    between atoms: C_7  and  C_8 
REMARK    8  A    between atoms: C_8  and  C_9 
REMARK    9  A    between atoms: C_9  and  C_10 
REMARK   10  A    between atoms: C_10  and  C_11 
REMARK   11  A    between atoms: C_11  and  C_12 
REMARK   12  A    between atoms: C_12  and  C_13 
REMARK   13  A    between atoms: C_13  and  C_14 
REMARK   14  A    between atoms: C_14  and  C_15 
REMARK   15  A    between atoms: C_16  and  C_17 
REMARK   16  A    between atoms: C_17  and  C_18 
REMARK   17  A    between atoms: C_18  and  C_19 
REMARK   18  A    between atoms: C_19  and  C_20 
REMARK   19  A    between atoms: C_20  and  C_21 
REMARK   20  A    between atoms: C_21  and  C_22 
REMARK   21  A    between atoms: C_22  and  C_23 
REMARK   22  A    between atoms: C_25  and  C_26 
REMARK   23  A    between atoms: C_26  and  C_27 
REMARK   24  A    between atoms: C_26  and  O_52 
REMARK   25  A    between atoms: C_27  and  O_28 
REMARK   26  A    between atoms: O_28  and  C_29 
REMARK   27  A    between atoms: C_29  and  C_31 
REMARK   28  A    between atoms: C_31  and  C_32 
REMARK   29  A    between atoms: C_32  and  C_33 
REMARK   30  A    between atoms: C_33  and  C_34 
REMARK   31  A    between atoms: C_34  and  C_35 
REMARK   32  A    between atoms: C_35  and  C_36 
REMARK   33  A    between atoms: C_36  and  C_37 
REMARK   34  A    between atoms: C_37  and  C_38 
REMARK   35  A    between atoms: C_38  and  C_39 
REMARK   36  A    between atoms: C_39  and  C_40 
REMARK   37  A    between atoms: C_40  and  C_41 
REMARK   38  A    between atoms: C_41  and  C_42 
REMARK   39  A    between atoms: C_43  and  C_44 
REMARK   40  A    between atoms: C_44  and  C_45 
REMARK   41  A    between atoms: C_45  and  C_46 
REMARK   42  A    between atoms: C_46  and  C_47 
REMARK   43  A    between atoms: C_47  and  C_48 
REMARK   44  A    between atoms: C_48  and  C_49 
REMARK   45  A    between atoms: C_49  and  C_50 
REMARK   46  A    between atoms: O_52  and  C_53 
REMARK   47  A    between atoms: C_53  and  C_55 
REMARK   48  A    between atoms: C_55  and  C_56 
REMARK   49  A    between atoms: C_56  and  C_57 
REMARK   50  A    between atoms: C_57  and  C_58 
REMARK   51  A    between atoms: C_58  and  C_59 
REMARK   52  A    between atoms: C_59  and  C_60 
REMARK   53  A    between atoms: C_60  and  C_61 
REMARK   54  A    between atoms: C_61  and  C_62 
REMARK   55  A    between atoms: C_62  and  C_63 
REMARK   56  A    between atoms: C_63  and  C_64 
REMARK   57  A    between atoms: C_64  and  C_65 
REMARK   58  A    between atoms: C_65  and  C_66 
REMARK   59  A    between atoms: C_67  and  C_68 
REMARK   60  A    between atoms: C_68  and  C_69 
REMARK   61  A    between atoms: C_69  and  C_70 
REMARK   62  A    between atoms: C_70  and  C_71 
REMARK   63  A    between atoms: C_71  and  C_72 
REMARK   64  A    between atoms: C_72  and  C_73 
REMARK   65  A    between atoms: C_73  and  C_74 
ROOT
HETATM    1  C   UNK N   1      32.043  16.075   7.985  0.00  0.00     0.180 C 
ENDROOT
BRANCH   1   2
HETATM    2  C   UNK N   1      30.630  16.647   7.977  0.00  0.00     0.213 C 
BRANCH   2   3
HETATM    3  O   UNK N   1      30.669  17.883   8.572  0.00  0.00    -0.319 OA
BRANCH   3   4
HETATM    4  C   UNK N   1      29.570  18.385   9.169  0.00  0.00     0.258 C 
HETATM    5  O   UNK N   1      29.640  18.888  10.280  0.00  0.00    -0.265 OA
BRANCH   4   6
HETATM    6  C   UNK N   1      28.293  18.454   8.407  0.00  0.00     0.111 C 
BRANCH   6   7
HETATM    7  C   UNK N   1      28.348  19.523   7.336  0.00  0.00     0.010 C 
BRANCH   7   8
HETATM    8  C   UNK N   1      27.034  19.539   6.574  0.00  0.00     0.000 C 
BRANCH   8   9
HETATM    9  C   UNK N   1      26.995  20.683   5.566  0.00  0.00     0.000 C 
BRANCH   9  10
HETATM   10  C   UNK N   1      27.373  20.198   4.173  0.00  0.00     0.000 C 
BRANCH  10  11
HETATM   11  C   UNK N   1      26.280  20.463   3.143  0.00  0.00     0.000 C 
BRANCH  11  12
HETATM   12  C   UNK N   1      24.974  19.804   3.556  0.00  0.00     0.000 C 
BRANCH  12  13
HETATM   13  C   UNK N   1      23.787  20.546   2.956  0.00  0.00     0.000 C 
BRANCH  13  14
HETATM   14  C   UNK N   1      22.484  19.795   3.205  0.00  0.00     0.000 C 
BRANCH  14  15
HETATM   15  C   UNK N   1      22.744  18.529   4.012  0.00  0.00     0.004 C 
BRANCH  15  16
HETATM   16  C   UNK N   1      21.465  18.039   4.672  0.00  0.00     0.027 C 
BRANCH  16  17
HETATM   17  C   UNK N   1      21.611  18.045   6.163  0.00  0.00    -0.031 C 
HETATM   18  C   UNK N   1      21.012  17.160   6.967  0.00  0.00    -0.031 C 
BRANCH  18  19
HETATM   19  C   UNK N   1      20.127  16.073   6.455  0.00  0.00     0.027 C 
BRANCH  19  20
HETATM   20  C   UNK N   1      20.401  14.788   7.221  0.00  0.00     0.004 C 
BRANCH  20  21
HETATM   21  C   UNK N   1      21.391  15.029   8.350  0.00  0.00     0.000 C 
BRANCH  21  22
HETATM   22  C   UNK N   1      21.433  13.813   9.260  0.00  0.00     0.000 C 
BRANCH  22  23
HETATM   23  C   UNK N   1      22.861  13.356   9.463  0.00  0.00     0.000 C 
BRANCH  23  24
HETATM   24  C   UNK N   1      22.859  12.035  10.203  0.00  0.00    -0.000 C 
BRANCH  24  25
HETATM   25  C   UNK N   1      22.097  12.183  11.502  0.00  0.00    -0.005 C 
HETATM   26  C   UNK N   1      22.997  11.807  12.659  0.00  0.00     0.005 C 
ENDBRANCH  24  25
ENDBRANCH  23  24
ENDBRANCH  22  23
ENDBRANCH  21  22
ENDBRANCH  20  21
ENDBRANCH  19  20
ENDBRANCH  18  19
ENDBRANCH  16  17
ENDBRANCH  15  16
ENDBRANCH  14  15
ENDBRANCH  13  14
ENDBRANCH  12  13
ENDBRANCH  11  12
ENDBRANCH  10  11
ENDBRANCH   9  10
ENDBRANCH   8   9
ENDBRANCH   7   8
ENDBRANCH   6   7
ENDBRANCH   4   6
ENDBRANCH   3   4
ENDBRANCH   2   3
ENDBRANCH   1   2
BRANCH   1  27
HETATM   27  C   UNK N   1      32.229  15.120   9.140  0.00  0.00     0.213 C 
BRANCH  27  28
HETATM   28  O   UNK N   1      33.431  15.419   9.729  0.00  0.00    -0.319 OA
BRANCH  28  29
HETATM   29  C   UNK N   1      34.466  14.547   9.712  0.00  0.00     0.258 C 
HETATM   30  O   UNK N   1      34.274  13.351   9.565  0.00  0.00    -0.265 OA
BRANCH  29  31
HETATM   31  C   UNK N   1      35.864  15.060   9.802  0.00  0.00     0.111 C 
BRANCH  31  32
HETATM   32  C   UNK N   1      36.623  14.390  10.933  0.00  0.00     0.010 C 
BRANCH  32  33
HETATM   33  C   UNK N   1      36.091  14.840  12.285  0.00  0.00     0.000 C 
BRANCH  33  34
HETATM   34  C   UNK N   1      35.700  13.632  13.123  0.00  0.00     0.000 C 
BRANCH  34  35
HETATM   35  C   UNK N   1      36.918  13.027  13.805  0.00  0.00     0.000 C 
BRANCH  35  36
HETATM   36  C   UNK N   1      36.755  12.954  15.319  0.00  0.00     0.000 C 
BRANCH  36  37
HETATM   37  C   UNK N   1      35.414  13.521  15.750  0.00  0.00     0.000 C 
BRANCH  37  38
HETATM   38  C   UNK N   1      34.679  12.514  16.614  0.00  0.00     0.000 C 
BRANCH  38  39
HETATM   39  C   UNK N   1      35.255  12.521  18.015  0.00  0.00     0.000 C 
BRANCH  39  40
HETATM   40  C   UNK N   1      35.831  11.154  18.349  0.00  0.00     0.004 C 
BRANCH  40  41
HETATM   41  C   UNK N   1      34.880  10.367  19.238  0.00  0.00     0.027 C 
BRANCH  41  42
HETATM   42  C   UNK N   1      34.221   9.282  18.444  0.00  0.00    -0.031 C 
HETATM   43  C   UNK N   1      34.637   8.012  18.484  0.00  0.00    -0.031 C 
BRANCH  43  44
HETATM   44  C   UNK N   1      35.777   7.565  19.346  0.00  0.00     0.027 C 
BRANCH  44  45
HETATM   45  C   UNK N   1      36.884   6.944  18.508  0.00  0.00     0.004 C 
BRANCH  45  46
HETATM   46  C   UNK N   1      37.776   8.002  17.879  0.00  0.00     0.000 C 
BRANCH  46  47
HETATM   47  C   UNK N   1      37.587   8.013  16.372  0.00  0.00     0.000 C 
BRANCH  47  48
HETATM   48  C   UNK N   1      37.334   9.423  15.872  0.00  0.00     0.000 C 
BRANCH  48  49
HETATM   49  C   UNK N   1      36.680   9.372  14.507  0.00  0.00    -0.000 C 
BRANCH  49  50
HETATM   50  C   UNK N   1      35.202   9.090  14.672  0.00  0.00    -0.005 C 
HETATM   51  C   UNK N   1      34.403  10.153  13.946  0.00  0.00     0.005 C 
ENDBRANCH  49  50
ENDBRANCH  48  49
ENDBRANCH  47  48
ENDBRANCH  46  47
ENDBRANCH  45  46
ENDBRANCH  44  45
ENDBRANCH  43  44
ENDBRANCH  41  42
ENDBRANCH  40  41
ENDBRANCH  39  40
ENDBRANCH  38  39
ENDBRANCH  37  38
ENDBRANCH  36  37
ENDBRANCH  35  36
ENDBRANCH  34  35
ENDBRANCH  33  34
ENDBRANCH  32  33
ENDBRANCH  31  32
ENDBRANCH  29  31
ENDBRANCH  28  29
ENDBRANCH  27  28
ENDBRANCH   1  27
BRANCH   1  52
HETATM   52  O   UNK N   1      32.971  17.094   8.047  0.00  0.00    -0.312 OA
BRANCH  52  53
HETATM   53  C   UNK N   1      33.721  17.447   6.985  0.00  0.00     0.259 C 
HETATM   54  O   UNK N   1      34.564  18.340   7.088  0.00  0.00    -0.265 OA
BRANCH  53  55
HETATM   55  C   UNK N   1      33.601  16.705   5.701  0.00  0.00     0.111 C 
BRANCH  55  56
HETATM   56  C   UNK N   1      33.063  17.584   4.584  0.00  0.00     0.010 C 
BRANCH  56  57
HETATM   57  C   UNK N   1      31.563  17.380   4.428  0.00  0.00     0.000 C 
BRANCH  57  58
HETATM   58  C   UNK N   1      31.318  16.195   3.518  0.00  0.00     0.000 C 
BRANCH  58  59
HETATM   59  C   UNK N   1      29.872  16.085   3.098  0.00  0.00     0.000 C 
BRANCH  59  60
HETATM   60  C   UNK N   1      29.123  17.131   3.890  0.00  0.00     0.000 C 
BRANCH  60  61
HETATM   61  C   UNK N   1      27.781  16.632   4.368  0.00  0.00     0.000 C 
BRANCH  61  62
HETATM   62  C   UNK N   1      28.041  15.876   5.652  0.00  0.00     0.000 C 
BRANCH  62  63
HETATM   63  C   UNK N   1      26.762  15.572   6.395  0.00  0.00     0.000 C 
BRANCH  63  64
HETATM   64  C   UNK N   1      25.635  16.241   5.640  0.00  0.00     0.004 C 
BRANCH  64  65
HETATM   65  C   UNK N   1      24.298  15.689   6.092  0.00  0.00     0.027 C 
BRANCH  65  66
HETATM   66  C   UNK N   1      23.488  14.964   5.039  0.00  0.00    -0.031 C 
HETATM   67  C   UNK N   1      23.203  13.650   4.935  0.00  0.00    -0.031 C 
BRANCH  67  68
HETATM   68  C   UNK N   1      23.646  12.568   5.873  0.00  0.00     0.027 C 
BRANCH  68  69
HETATM   69  C   UNK N   1      24.731  11.708   5.251  0.00  0.00     0.004 C 
BRANCH  69  70
HETATM   70  C   UNK N   1      26.030  12.488   5.229  0.00  0.00     0.000 C 
BRANCH  70  71
HETATM   71  C   UNK N   1      26.882  12.011   4.072  0.00  0.00     0.000 C 
BRANCH  71  72
HETATM   72  C   UNK N   1      26.735  12.948   2.890  0.00  0.00     0.000 C 
BRANCH  72  73
HETATM   73  C   UNK N   1      25.424  12.677   2.177  0.00  0.00    -0.000 C 
BRANCH  73  74
HETATM   74  C   UNK N   1      24.893  13.946   1.533  0.00  0.00    -0.005 C 
HETATM   75  C   UNK N   1      25.622  15.156   2.087  0.00  0.00     0.005 C 
ENDBRANCH  73  74
ENDBRANCH  72  73
ENDBRANCH  71  72
ENDBRANCH  70  71
ENDBRANCH  69  70
ENDBRANCH  68  69
ENDBRANCH  67  68
ENDBRANCH  65  66
ENDBRANCH  64  65
ENDBRANCH  63  64
ENDBRANCH  62  63
ENDBRANCH  61  62
ENDBRANCH  60  61
ENDBRANCH  59  60
ENDBRANCH  58  59
ENDBRANCH  57  58
ENDBRANCH  56  57
ENDBRANCH  55  56
ENDBRANCH  53  55
ENDBRANCH  52  53
ENDBRANCH   1  52
TORSDOF 65
ENDMDL
MODEL 9
REMARK VINA RESULT:      -4.7      7.022     12.829
REMARK WARNING: 32 MAX_TORS EXCEEDED!!!
REMARK  65 active torsions:
REMARK  status: ('A' for Active; 'I' for Inactive)
REMARK    1  A    between atoms: O_1  and  C_2 
REMARK    2  A    between atoms: O_1  and  C_25 
REMARK    3  A    between atoms: C_2  and  C_4 
REMARK    4  A    between atoms: C_4  and  C_5 
REMARK    5  A    between atoms: C_5  and  C_6 
REMARK    6  A    between atoms: C_6  and  C_7 
REMARK    7  A    between atoms: C_7  and  C_8 
REMARK    8  A    between atoms: C_8  and  C_9 
REMARK    9  A    between atoms: C_9  and  C_10 
REMARK   10  A    between atoms: C_10  and  C_11 
REMARK   11  A    between atoms: C_11  and  C_12 
REMARK   12  A    between atoms: C_12  and  C_13 
REMARK   13  A    between atoms: C_13  and  C_14 
REMARK   14  A    between atoms: C_14  and  C_15 
REMARK   15  A    between atoms: C_16  and  C_17 
REMARK   16  A    between atoms: C_17  and  C_18 
REMARK   17  A    between atoms: C_18  and  C_19 
REMARK   18  A    between atoms: C_19  and  C_20 
REMARK   19  A    between atoms: C_20  and  C_21 
REMARK   20  A    between atoms: C_21  and  C_22 
REMARK   21  A    between atoms: C_22  and  C_23 
REMARK   22  A    between atoms: C_25  and  C_26 
REMARK   23  A    between atoms: C_26  and  C_27 
REMARK   24  A    between atoms: C_26  and  O_52 
REMARK   25  A    between atoms: C_27  and  O_28 
REMARK   26  A    between atoms: O_28  and  C_29 
REMARK   27  A    between atoms: C_29  and  C_31 
REMARK   28  A    between atoms: C_31  and  C_32 
REMARK   29  A    between atoms: C_32  and  C_33 
REMARK   30  A    between atoms: C_33  and  C_34 
REMARK   31  A    between atoms: C_34  and  C_35 
REMARK   32  A    between atoms: C_35  and  C_36 
REMARK   33  A    between atoms: C_36  and  C_37 
REMARK   34  A    between atoms: C_37  and  C_38 
REMARK   35  A    between atoms: C_38  and  C_39 
REMARK   36  A    between atoms: C_39  and  C_40 
REMARK   37  A    between atoms: C_40  and  C_41 
REMARK   38  A    between atoms: C_41  and  C_42 
REMARK   39  A    between atoms: C_43  and  C_44 
REMARK   40  A    between atoms: C_44  and  C_45 
REMARK   41  A    between atoms: C_45  and  C_46 
REMARK   42  A    between atoms: C_46  and  C_47 
REMARK   43  A    between atoms: C_47  and  C_48 
REMARK   44  A    between atoms: C_48  and  C_49 
REMARK   45  A    between atoms: C_49  and  C_50 
REMARK   46  A    between atoms: O_52  and  C_53 
REMARK   47  A    between atoms: C_53  and  C_55 
REMARK   48  A    between atoms: C_55  and  C_56 
REMARK   49  A    between atoms: C_56  and  C_57 
REMARK   50  A    between atoms: C_57  and  C_58 
REMARK   51  A    between atoms: C_58  and  C_59 
REMARK   52  A    between atoms: C_59  and  C_60 
REMARK   53  A    between atoms: C_60  and  C_61 
REMARK   54  A    between atoms: C_61  and  C_62 
REMARK   55  A    between atoms: C_62  and  C_63 
REMARK   56  A    between atoms: C_63  and  C_64 
REMARK   57  A    between atoms: C_64  and  C_65 
REMARK   58  A    between atoms: C_65  and  C_66 
REMARK   59  A    between atoms: C_67  and  C_68 
REMARK   60  A    between atoms: C_68  and  C_69 
REMARK   61  A    between atoms: C_69  and  C_70 
REMARK   62  A    between atoms: C_70  and  C_71 
REMARK   63  A    between atoms: C_71  and  C_72 
REMARK   64  A    between atoms: C_72  and  C_73 
REMARK   65  A    between atoms: C_73  and  C_74 
ROOT
HETATM    1  C   UNK N   1      35.297  16.219   9.589  0.00  0.00     0.180 C 
ENDROOT
BRANCH   1   2
HETATM    2  C   UNK N   1      34.568  15.042   8.953  0.00  0.00     0.213 C 
BRANCH   2   3
HETATM    3  O   UNK N   1      35.013  14.915   7.660  0.00  0.00    -0.319 OA
BRANCH   3   4
HETATM    4  C   UNK N   1      34.141  14.961   6.634  0.00  0.00     0.258 C 
HETATM    5  O   UNK N   1      33.008  14.523   6.759  0.00  0.00    -0.265 OA
BRANCH   4   6
HETATM    6  C   UNK N   1      34.521  15.679   5.387  0.00  0.00     0.111 C 
BRANCH   6   7
HETATM    7  C   UNK N   1      33.362  15.748   4.415  0.00  0.00     0.010 C 
BRANCH   7   8
HETATM    8  C   UNK N   1      33.097  17.198   4.049  0.00  0.00     0.000 C 
BRANCH   8   9
HETATM    9  C   UNK N   1      31.601  17.472   3.928  0.00  0.00     0.000 C 
BRANCH   9  10
HETATM   10  C   UNK N   1      30.861  17.038   5.187  0.00  0.00     0.000 C 
BRANCH  10  11
HETATM   11  C   UNK N   1      29.644  16.173   4.882  0.00  0.00     0.000 C 
BRANCH  11  12
HETATM   12  C   UNK N   1      29.711  15.620   3.468  0.00  0.00     0.000 C 
BRANCH  12  13
HETATM   13  C   UNK N   1      29.043  14.253   3.395  0.00  0.00     0.000 C 
BRANCH  13  14
HETATM   14  C   UNK N   1      28.463  13.850   4.745  0.00  0.00     0.000 C 
BRANCH  14  15
HETATM   15  C   UNK N   1      27.242  12.958   4.558  0.00  0.00     0.004 C 
BRANCH  15  16
HETATM   16  C   UNK N   1      26.049  13.511   5.321  0.00  0.00     0.027 C 
BRANCH  16  17
HETATM   17  C   UNK N   1      26.341  14.894   5.818  0.00  0.00    -0.031 C 
HETATM   18  C   UNK N   1      25.880  16.002   5.230  0.00  0.00    -0.031 C 
BRANCH  18  19
HETATM   19  C   UNK N   1      25.026  15.973   4.006  0.00  0.00     0.027 C 
BRANCH  19  20
HETATM   20  C   UNK N   1      25.883  16.235   2.778  0.00  0.00     0.004 C 
BRANCH  20  21
HETATM   21  C   UNK N   1      25.725  15.120   1.757  0.00  0.00     0.000 C 
BRANCH  21  22
HETATM   22  C   UNK N   1      24.452  14.342   2.044  0.00  0.00     0.000 C 
BRANCH  22  23
HETATM   23  C   UNK N   1      23.514  14.407   0.858  0.00  0.00     0.000 C 
BRANCH  23  24
HETATM   24  C   UNK N   1      23.528  13.074   0.140  0.00  0.00    -0.000 C 
BRANCH  24  25
HETATM   25  C   UNK N   1      23.861  11.973   1.123  0.00  0.00    -0.005 C 
HETATM   26  C   UNK N   1      24.511  10.822   0.386  0.00  0.00     0.005 C 
ENDBRANCH  24  25
ENDBRANCH  23  24
ENDBRANCH  22  23
ENDBRANCH  21  22
ENDBRANCH  20  21
ENDBRANCH  19  20
ENDBRANCH  18  19
ENDBRANCH  16  17
ENDBRANCH  15  16
ENDBRANCH  14  15
ENDBRANCH  13  14
ENDBRANCH  12  13
ENDBRANCH  11  12
ENDBRANCH  10  11
ENDBRANCH   9  10
ENDBRANCH   8   9
ENDBRANCH   7   8
ENDBRANCH   6   7
ENDBRANCH   4   6
ENDBRANCH   3   4
ENDBRANCH   2   3
ENDBRANCH   1   2
BRANCH   1  27
HETATM   27  C   UNK N   1      35.842  15.843  10.946  0.00  0.00     0.213 C 
BRANCH  27  28
HETATM   28  O   UNK N   1      36.711  14.797  10.762  0.00  0.00    -0.319 OA
BRANCH  28  29
HETATM   29  C   UNK N   1      36.607  13.654  11.480  0.00  0.00     0.258 C 
HETATM   30  O   UNK N   1      37.061  12.605  11.057  0.00  0.00    -0.265 OA
BRANCH  29  31
HETATM   31  C   UNK N   1      35.993  13.692  12.840  0.00  0.00     0.111 C 
BRANCH  31  32
HETATM   32  C   UNK N   1      36.990  13.272  13.905  0.00  0.00     0.010 C 
BRANCH  32  33
HETATM   33  C   UNK N   1      36.508  13.678  15.290  0.00  0.00     0.000 C 
BRANCH  33  34
HETATM   34  C   UNK N   1      35.156  13.043  15.580  0.00  0.00     0.000 C 
BRANCH  34  35
HETATM   35  C   UNK N   1      34.777  13.218  17.043  0.00  0.00     0.000 C 
BRANCH  35  36
HETATM   36  C   UNK N   1      35.364  12.123  17.927  0.00  0.00     0.000 C 
BRANCH  36  37
HETATM   37  C   UNK N   1      35.107  12.413  19.395  0.00  0.00     0.000 C 
BRANCH  37  38
HETATM   38  C   UNK N   1      35.721  11.323  20.253  0.00  0.00     0.000 C 
BRANCH  38  39
HETATM   39  C   UNK N   1      36.513  10.369  19.384  0.00  0.00     0.000 C 
BRANCH  39  40
HETATM   40  C   UNK N   1      36.085   8.936  19.659  0.00  0.00     0.004 C 
BRANCH  40  41
HETATM   41  C   UNK N   1      36.342   8.051  18.449  0.00  0.00     0.027 C 
BRANCH  41  42
HETATM   42  C   UNK N   1      35.363   8.376  17.363  0.00  0.00    -0.031 C 
HETATM   43  C   UNK N   1      35.749   8.788  16.151  0.00  0.00    -0.031 C 
BRANCH  43  44
HETATM   44  C   UNK N   1      37.191   8.931  15.771  0.00  0.00     0.027 C 
BRANCH  44  45
HETATM   45  C   UNK N   1      37.336   9.664  14.446  0.00  0.00     0.004 C 
BRANCH  45  46
HETATM   46  C   UNK N   1      36.859   8.815  13.278  0.00  0.00     0.000 C 
BRANCH  46  47
HETATM   47  C   UNK N   1      36.008   9.653  12.340  0.00  0.00     0.000 C 
BRANCH  47  48
HETATM   48  C   UNK N   1      34.883  10.333  13.097  0.00  0.00     0.000 C 
BRANCH  48  49
HETATM   49  C   UNK N   1      33.565  10.075  12.397  0.00  0.00    -0.000 C 
BRANCH  49  50
HETATM   50  C   UNK N   1      33.816   9.262  11.145  0.00  0.00    -0.005 C 
HETATM   51  C   UNK N   1      32.817   9.661  10.079  0.00  0.00     0.005 C 
ENDBRANCH  49  50
ENDBRANCH  48  49
ENDBRANCH  47  48
ENDBRANCH  46  47
ENDBRANCH  45  46
ENDBRANCH  44  45
ENDBRANCH  43  44
ENDBRANCH  41  42
ENDBRANCH  40  41
ENDBRANCH  39  40
ENDBRANCH  38  39
ENDBRANCH  37  38
ENDBRANCH  36  37
ENDBRANCH  35  36
ENDBRANCH  34  35
ENDBRANCH  33  34
ENDBRANCH  32  33
ENDBRANCH  31  32
ENDBRANCH  29  31
ENDBRANCH  28  29
ENDBRANCH  27  28
ENDBRANCH   1  27
BRANCH   1  52
HETATM   52  O   UNK N   1      34.453  17.306   9.691  0.00  0.00    -0.312 OA
BRANCH  52  53
HETATM   53  C   UNK N   1      34.291  18.186   8.684  0.00  0.00     0.259 C 
HETATM   54  O   UNK N   1      35.211  18.941   8.364  0.00  0.00    -0.265 OA
BRANCH  53  55
HETATM   55  C   UNK N   1      33.031  18.197   7.892  0.00  0.00     0.111 C 
BRANCH  55  56
HETATM   56  C   UNK N   1      31.923  17.413   8.575  0.00  0.00     0.010 C 
BRANCH  56  57
HETATM   57  C   UNK N   1      30.678  18.276   8.720  0.00  0.00     0.000 C 
BRANCH  57  58
HETATM   58  C   UNK N   1      29.453  17.386   8.684  0.00  0.00     0.000 C 
BRANCH  58  59
HETATM   59  C   UNK N   1      28.172  18.170   8.841  0.00  0.00     0.000 C 
BRANCH  59  60
HETATM   60  C   UNK N   1      28.184  19.217   7.752  0.00  0.00     0.000 C 
BRANCH  60  61
HETATM   61  C   UNK N   1      27.701  18.672   6.430  0.00  0.00     0.000 C 
BRANCH  61  62
HETATM   62  C   UNK N   1      28.118  19.676   5.379  0.00  0.00     0.000 C 
BRANCH  62  63
HETATM   63  C   UNK N   1      27.386  19.462   4.075  0.00  0.00     0.000 C 
BRANCH  63  64
HETATM   64  C   UNK N   1      26.228  20.435   4.046  0.00  0.00     0.004 C 
BRANCH  64  65
HETATM   65  C   UNK N   1      24.934  19.705   3.751  0.00  0.00     0.027 C 
BRANCH  65  66
HETATM   66  C   UNK N   1      23.890  20.485   2.982  0.00  0.00    -0.031 C 
HETATM   67  C   UNK N   1      22.566  20.255   2.863  0.00  0.00    -0.031 C 
BRANCH  67  68
HETATM   68  C   UNK N   1      21.802  19.128   3.490  0.00  0.00     0.027 C 
BRANCH  68  69
HETATM   69  C   UNK N   1      20.435  18.968   2.851  0.00  0.00     0.004 C 
BRANCH  69  70
HETATM   70  C   UNK N   1      19.872  17.609   3.219  0.00  0.00     0.000 C 
BRANCH  70  71
HETATM   71  C   UNK N   1      20.622  16.534   2.460  0.00  0.00     0.000 C 
BRANCH  71  72
HETATM   72  C   UNK N   1      20.354  16.657   0.974  0.00  0.00     0.000 C 
BRANCH  72  73
HETATM   73  C   UNK N   1      19.542  15.468   0.496  0.00  0.00    -0.000 C 
BRANCH  73  74
HETATM   74  C   UNK N   1      19.721  14.286   1.433  0.00  0.00    -0.005 C 
HETATM   75  C   UNK N   1      19.910  13.011   0.632  0.00  0.00     0.005 C 
ENDBRANCH  73  74
ENDBRANCH  72  73
ENDBRANCH  71  72
ENDBRANCH  70  71
ENDBRANCH  69  70
ENDBRANCH  68  69
ENDBRANCH  67  68
ENDBRANCH  65  66
ENDBRANCH  64  65
ENDBRANCH  63  64
ENDBRANCH  62  63
ENDBRANCH  61  62
ENDBRANCH  60  61
ENDBRANCH  59  60
ENDBRANCH  58  59
ENDBRANCH  57  58
ENDBRANCH  56  57
ENDBRANCH  55  56
ENDBRANCH  53  55
ENDBRANCH  52  53
ENDBRANCH   1  52
TORSDOF 65
ENDMDL
