MODEL 1
REMARK VINA RESULT:      -5.4      0.000      0.000
REMARK WARNING: 32 MAX_TORS EXCEEDED!!!
REMARK  36 active torsions:
REMARK  status: ('A' for Active; 'I' for Inactive)
REMARK    1  A    between atoms: C_2  and  C_3 
REMARK    2  A    between atoms: C_3  and  C_4 
REMARK    3  A    between atoms: C_4  and  C_5 
REMARK    4  A    between atoms: C_5  and  C_6 
REMARK    5  A    between atoms: C_6  and  C_7 
REMARK    6  A    between atoms: C_7  and  C_8 
REMARK    7  A    between atoms: C_8  and  C_9 
REMARK    8  A    between atoms: C_9  and  C_10 
REMARK    9  A    between atoms: C_10  and  C_11 
REMARK   10  A    between atoms: C_11  and  C_12 
REMARK   11  A    between atoms: C_12  and  C_13 
REMARK   12  A    between atoms: C_13  and  C_14 
REMARK   13  A    between atoms: C_14  and  C_15 
REMARK   14  A    between atoms: C_15  and  C_16 
REMARK   15  A    between atoms: C_16  and  O_18 
REMARK   16  A    between atoms: O_18  and  C_19 
REMARK   17  A    between atoms: C_19  and  C_20 
REMARK   18  A    between atoms: C_20  and  C_21 
REMARK   19  A    between atoms: C_20  and  O_26 
REMARK   20  A    between atoms: C_21  and  O_22 
REMARK   21  A    between atoms: O_22  and  C_23 
REMARK   22  A    between atoms: O_26  and  C_27 
REMARK   23  A    between atoms: C_27  and  C_29 
REMARK   24  A    between atoms: C_29  and  C_30 
REMARK   25  A    between atoms: C_30  and  C_31 
REMARK   26  A    between atoms: C_31  and  C_32 
REMARK   27  A    between atoms: C_32  and  C_33 
REMARK   28  A    between atoms: C_33  and  C_34 
REMARK   29  A    between atoms: C_34  and  C_35 
REMARK   30  A    between atoms: C_35  and  C_36 
REMARK   31  A    between atoms: C_37  and  C_38 
REMARK   32  A    between atoms: C_38  and  C_39 
REMARK   33  A    between atoms: C_40  and  C_41 
REMARK   34  A    between atoms: C_41  and  C_42 
REMARK   35  A    between atoms: C_42  and  C_43 
REMARK   36  A    between atoms: C_43  and  C_44 
ROOT
HETATM    1  C   UNK N   1      20.191  17.290   3.966  0.00  0.00     0.180 C 
ENDROOT
BRANCH   1   2
HETATM    2  C   UNK N   1      21.087  17.804   5.094  0.00  0.00     0.213 C 
BRANCH   2   3
HETATM    3  O   UNK N   1      21.030  17.036   6.238  0.00  0.00    -0.319 OA
BRANCH   3   4
HETATM    4  C   UNK N   1      20.630  17.549   7.425  0.00  0.00     0.258 C 
HETATM    5  O   UNK N   1      20.657  18.757   7.593  0.00  0.00    -0.265 OA
BRANCH   4   6
HETATM    6  C   UNK N   1      20.198  16.649   8.550  0.00  0.00     0.111 C 
BRANCH   6   7
HETATM    7  C   UNK N   1      20.511  15.189   8.274  0.00  0.00     0.010 C 
BRANCH   7   8
HETATM    8  C   UNK N   1      21.332  14.581   9.400  0.00  0.00     0.000 C 
BRANCH   8   9
HETATM    9  C   UNK N   1      20.862  13.166   9.701  0.00  0.00     0.000 C 
BRANCH   9  10
HETATM   10  C   UNK N   1      21.765  12.428  10.682  0.00  0.00     0.000 C 
BRANCH  10  11
HETATM   11  C   UNK N   1      22.966  11.750  10.027  0.00  0.00     0.000 C 
BRANCH  11  12
HETATM   12  C   UNK N   1      24.285  12.416  10.416  0.00  0.00     0.000 C 
BRANCH  12  13
HETATM   13  C   UNK N   1      24.855  13.264   9.287  0.00  0.00     0.000 C 
BRANCH  13  14
HETATM   14  C   UNK N   1      24.407  12.724   7.939  0.00  0.00     0.000 C 
BRANCH  14  15
HETATM   15  C   UNK N   1      24.106  13.871   6.985  0.00  0.00     0.000 C 
BRANCH  15  16
HETATM   16  C   UNK N   1      22.911  13.546   6.105  0.00  0.00     0.000 C 
BRANCH  16  17
HETATM   17  C   UNK N   1      22.360  12.167   6.425  0.00  0.00     0.000 C 
BRANCH  17  18
HETATM   18  C   UNK N   1      20.884  12.104   6.084  0.00  0.00    -0.000 C 
BRANCH  18  19
HETATM   19  C   UNK N   1      20.667  11.258   4.844  0.00  0.00    -0.005 C 
HETATM   20  C   UNK N   1      19.187  11.001   4.663  0.00  0.00     0.005 C 
ENDBRANCH  18  19
ENDBRANCH  17  18
ENDBRANCH  16  17
ENDBRANCH  15  16
ENDBRANCH  14  15
ENDBRANCH  13  14
ENDBRANCH  12  13
ENDBRANCH  11  12
ENDBRANCH  10  11
ENDBRANCH   9  10
ENDBRANCH   8   9
ENDBRANCH   7   8
ENDBRANCH   6   7
ENDBRANCH   4   6
ENDBRANCH   3   4
ENDBRANCH   2   3
ENDBRANCH   1   2
BRANCH   1  21
HETATM   21  C   UNK N   1      19.741  18.430   3.055  0.00  0.00     0.213 C 
BRANCH  21  22
HETATM   22  O   UNK N   1      20.246  19.644   3.478  0.00  0.00    -0.319 OA
BRANCH  22  23
HETATM   23  C   UNK N   1      21.076  20.380   2.696  0.00  0.00     0.254 C 
HETATM   24  O   UNK N   1      22.175  20.727   3.104  0.00  0.00    -0.266 OA
HETATM   25  C   UNK N   1      20.653  20.760   1.319  0.00  0.00     0.126 C 
ENDBRANCH  22  23
ENDBRANCH  21  22
ENDBRANCH   1  21
BRANCH   1  26
HETATM   26  O   UNK N   1      19.103  16.559   4.393  0.00  0.00    -0.312 OA
BRANCH  26  27
HETATM   27  C   UNK N   1      19.067  15.209   4.306  0.00  0.00     0.259 C 
HETATM   28  O   UNK N   1      18.323  14.590   5.048  0.00  0.00    -0.265 OA
BRANCH  27  29
HETATM   29  C   UNK N   1      19.956  14.485   3.317  0.00  0.00     0.111 C 
BRANCH  29  30
HETATM   30  C   UNK N   1      19.274  13.939   2.066  0.00  0.00     0.010 C 
BRANCH  30  31
HETATM   31  C   UNK N   1      20.198  13.795   0.866  0.00  0.00     0.000 C 
BRANCH  31  32
HETATM   32  C   UNK N   1      20.662  12.350   0.739  0.00  0.00     0.000 C 
BRANCH  32  33
HETATM   33  C   UNK N   1      22.172  12.192   0.546  0.00  0.00     0.000 C 
BRANCH  33  34
HETATM   34  C   UNK N   1      23.044  13.406   0.902  0.00  0.00     0.004 C 
BRANCH  34  35
HETATM   35  C   UNK N   1      23.705  13.387   2.281  0.00  0.00     0.027 C 
BRANCH  35  36
HETATM   36  C   UNK N   1      24.638  14.529   2.500  0.00  0.00    -0.030 C 
HETATM   37  C   UNK N   1      24.366  15.421   3.447  0.00  0.00    -0.027 C 
BRANCH  37  38
HETATM   38  C   UNK N   1      25.292  16.570   3.673  0.00  0.00     0.053 C 
BRANCH  38  39
HETATM   39  C   UNK N   1      24.708  17.540   4.658  0.00  0.00    -0.027 C 
HETATM   40  C   UNK N   1      24.834  18.869   4.542  0.00  0.00    -0.030 C 
BRANCH  40  41
HETATM   41  C   UNK N   1      25.565  19.514   3.407  0.00  0.00     0.027 C 
BRANCH  41  42
HETATM   42  C   UNK N   1      26.797  20.220   3.941  0.00  0.00     0.004 C 
BRANCH  42  43
HETATM   43  C   UNK N   1      26.477  20.958   5.228  0.00  0.00    -0.000 C 
BRANCH  43  44
HETATM   44  C   UNK N   1      27.684  20.970   6.144  0.00  0.00    -0.005 C 
HETATM   45  C   UNK N   1      27.718  19.687   6.946  0.00  0.00     0.005 C 
ENDBRANCH  43  44
ENDBRANCH  42  43
ENDBRANCH  41  42
ENDBRANCH  40  41
ENDBRANCH  38  39
ENDBRANCH  37  38
ENDBRANCH  35  36
ENDBRANCH  34  35
ENDBRANCH  33  34
ENDBRANCH  32  33
ENDBRANCH  31  32
ENDBRANCH  30  31
ENDBRANCH  29  30
ENDBRANCH  27  29
ENDBRANCH  26  27
ENDBRANCH   1  26
TORSDOF 36
ENDMDL
MODEL 2
REMARK VINA RESULT:      -5.2      2.490      7.887
REMARK WARNING: 32 MAX_TORS EXCEEDED!!!
REMARK  36 active torsions:
REMARK  status: ('A' for Active; 'I' for Inactive)
REMARK    1  A    between atoms: C_2  and  C_3 
REMARK    2  A    between atoms: C_3  and  C_4 
REMARK    3  A    between atoms: C_4  and  C_5 
REMARK    4  A    between atoms: C_5  and  C_6 
REMARK    5  A    between atoms: C_6  and  C_7 
REMARK    6  A    between atoms: C_7  and  C_8 
REMARK    7  A    between atoms: C_8  and  C_9 
REMARK    8  A    between atoms: C_9  and  C_10 
REMARK    9  A    between atoms: C_10  and  C_11 
REMARK   10  A    between atoms: C_11  and  C_12 
REMARK   11  A    between atoms: C_12  and  C_13 
REMARK   12  A    between atoms: C_13  and  C_14 
REMARK   13  A    between atoms: C_14  and  C_15 
REMARK   14  A    between atoms: C_15  and  C_16 
REMARK   15  A    between atoms: C_16  and  O_18 
REMARK   16  A    between atoms: O_18  and  C_19 
REMARK   17  A    between atoms: C_19  and  C_20 
REMARK   18  A    between atoms: C_20  and  C_21 
REMARK   19  A    between atoms: C_20  and  O_26 
REMARK   20  A    between atoms: C_21  and  O_22 
REMARK   21  A    between atoms: O_22  and  C_23 
REMARK   22  A    between atoms: O_26  and  C_27 
REMARK   23  A    between atoms: C_27  and  C_29 
REMARK   24  A    between atoms: C_29  and  C_30 
REMARK   25  A    between atoms: C_30  and  C_31 
REMARK   26  A    between atoms: C_31  and  C_32 
REMARK   27  A    between atoms: C_32  and  C_33 
REMARK   28  A    between atoms: C_33  and  C_34 
REMARK   29  A    between atoms: C_34  and  C_35 
REMARK   30  A    between atoms: C_35  and  C_36 
REMARK   31  A    between atoms: C_37  and  C_38 
REMARK   32  A    between atoms: C_38  and  C_39 
REMARK   33  A    between atoms: C_40  and  C_41 
REMARK   34  A    between atoms: C_41  and  C_42 
REMARK   35  A    between atoms: C_42  and  C_43 
REMARK   36  A    between atoms: C_43  and  C_44 
ROOT
HETATM    1  C   UNK N   1      21.165  13.701   8.290  0.00  0.00     0.180 C 
ENDROOT
BRANCH   1   2
HETATM    2  C   UNK N   1      20.310  14.953   8.092  0.00  0.00     0.213 C 
BRANCH   2   3
HETATM    3  O   UNK N   1      21.006  16.131   8.268  0.00  0.00    -0.319 OA
BRANCH   3   4
HETATM    4  C   UNK N   1      20.792  17.214   7.484  0.00  0.00     0.258 C 
HETATM    5  O   UNK N   1      20.329  18.228   7.981  0.00  0.00    -0.265 OA
BRANCH   4   6
HETATM    6  C   UNK N   1      21.074  17.168   6.008  0.00  0.00     0.111 C 
BRANCH   6   7
HETATM    7  C   UNK N   1      22.470  17.662   5.671  0.00  0.00     0.010 C 
BRANCH   7   8
HETATM    8  C   UNK N   1      22.887  17.222   4.277  0.00  0.00     0.000 C 
BRANCH   8   9
HETATM    9  C   UNK N   1      24.333  17.610   4.004  0.00  0.00     0.000 C 
BRANCH   9  10
HETATM   10  C   UNK N   1      24.644  19.059   4.363  0.00  0.00     0.000 C 
BRANCH  10  11
HETATM   11  C   UNK N   1      25.663  19.719   3.438  0.00  0.00     0.000 C 
BRANCH  11  12
HETATM   12  C   UNK N   1      26.926  20.146   4.185  0.00  0.00     0.000 C 
BRANCH  12  13
HETATM   13  C   UNK N   1      26.604  20.890   5.474  0.00  0.00     0.000 C 
BRANCH  13  14
HETATM   14  C   UNK N   1      27.664  20.610   6.528  0.00  0.00     0.000 C 
BRANCH  14  15
HETATM   15  C   UNK N   1      27.859  19.110   6.693  0.00  0.00     0.000 C 
BRANCH  15  16
HETATM   16  C   UNK N   1      28.215  18.764   8.128  0.00  0.00     0.000 C 
BRANCH  16  17
HETATM   17  C   UNK N   1      29.438  17.863   8.182  0.00  0.00     0.000 C 
BRANCH  17  18
HETATM   18  C   UNK N   1      29.946  17.592   6.780  0.00  0.00    -0.000 C 
BRANCH  18  19
HETATM   19  C   UNK N   1      30.970  16.473   6.799  0.00  0.00    -0.005 C 
HETATM   20  C   UNK N   1      32.338  17.048   7.096  0.00  0.00     0.005 C 
ENDBRANCH  18  19
ENDBRANCH  17  18
ENDBRANCH  16  17
ENDBRANCH  15  16
ENDBRANCH  14  15
ENDBRANCH  13  14
ENDBRANCH  12  13
ENDBRANCH  11  12
ENDBRANCH  10  11
ENDBRANCH   9  10
ENDBRANCH   8   9
ENDBRANCH   7   8
ENDBRANCH   6   7
ENDBRANCH   4   6
ENDBRANCH   3   4
ENDBRANCH   2   3
ENDBRANCH   1   2
BRANCH   1  21
HETATM   21  C   UNK N   1      21.317  13.365   9.772  0.00  0.00     0.213 C 
BRANCH  21  22
HETATM   22  O   UNK N   1      22.015  12.187   9.953  0.00  0.00    -0.319 OA
BRANCH  22  23
HETATM   23  C   UNK N   1      23.137  12.136  10.714  0.00  0.00     0.254 C 
HETATM   24  O   UNK N   1      24.242  12.288  10.212  0.00  0.00    -0.266 OA
HETATM   25  C   UNK N   1      23.027  11.907  12.182  0.00  0.00     0.126 C 
ENDBRANCH  22  23
ENDBRANCH  21  22
ENDBRANCH   1  21
BRANCH   1  26
HETATM   26  O   UNK N   1      22.401  13.754   7.681  0.00  0.00    -0.312 OA
BRANCH  26  27
HETATM   27  C   UNK N   1      22.642  13.152   6.494  0.00  0.00     0.259 C 
HETATM   28  O   UNK N   1      22.138  12.066   6.270  0.00  0.00    -0.265 OA
BRANCH  27  29
HETATM   29  C   UNK N   1      23.545  13.814   5.474  0.00  0.00     0.111 C 
BRANCH  29  30
HETATM   30  C   UNK N   1      25.005  14.001   5.881  0.00  0.00     0.010 C 
BRANCH  30  31
HETATM   31  C   UNK N   1      25.325  15.382   6.434  0.00  0.00     0.000 C 
BRANCH  31  32
HETATM   32  C   UNK N   1      26.832  15.585   6.481  0.00  0.00     0.000 C 
BRANCH  32  33
HETATM   33  C   UNK N   1      27.562  15.159   5.205  0.00  0.00     0.000 C 
BRANCH  33  34
HETATM   34  C   UNK N   1      27.912  16.272   4.205  0.00  0.00     0.004 C 
BRANCH  34  35
HETATM   35  C   UNK N   1      27.366  16.107   2.787  0.00  0.00     0.027 C 
BRANCH  35  36
HETATM   36  C   UNK N   1      26.527  14.887   2.619  0.00  0.00    -0.030 C 
HETATM   37  C   UNK N   1      25.378  14.970   1.957  0.00  0.00    -0.027 C 
BRANCH  37  38
HETATM   38  C   UNK N   1      24.529  13.754   1.786  0.00  0.00     0.053 C 
BRANCH  38  39
HETATM   39  C   UNK N   1      23.535  13.949   0.678  0.00  0.00    -0.027 C 
HETATM   40  C   UNK N   1      22.233  14.185   0.892  0.00  0.00    -0.030 C 
BRANCH  40  41
HETATM   41  C   UNK N   1      21.648  14.286   2.266  0.00  0.00     0.027 C 
BRANCH  41  42
HETATM   42  C   UNK N   1      20.551  15.335   2.267  0.00  0.00     0.004 C 
BRANCH  42  43
HETATM   43  C   UNK N   1      20.455  16.012   0.912  0.00  0.00    -0.000 C 
BRANCH  43  44
HETATM   44  C   UNK N   1      20.099  17.476   1.076  0.00  0.00    -0.005 C 
HETATM   45  C   UNK N   1      19.765  17.752   2.527  0.00  0.00     0.005 C 
ENDBRANCH  43  44
ENDBRANCH  42  43
ENDBRANCH  41  42
ENDBRANCH  40  41
ENDBRANCH  38  39
ENDBRANCH  37  38
ENDBRANCH  35  36
ENDBRANCH  34  35
ENDBRANCH  33  34
ENDBRANCH  32  33
ENDBRANCH  31  32
ENDBRANCH  30  31
ENDBRANCH  29  30
ENDBRANCH  27  29
ENDBRANCH  26  27
ENDBRANCH   1  26
TORSDOF 36
ENDMDL
MODEL 3
REMARK VINA RESULT:      -5.2      2.212      7.620
REMARK WARNING: 32 MAX_TORS EXCEEDED!!!
REMARK  36 active torsions:
REMARK  status: ('A' for Active; 'I' for Inactive)
REMARK    1  A    between atoms: C_2  and  C_3 
REMARK    2  A    between atoms: C_3  and  C_4 
REMARK    3  A    between atoms: C_4  and  C_5 
REMARK    4  A    between atoms: C_5  and  C_6 
REMARK    5  A    between atoms: C_6  and  C_7 
REMARK    6  A    between atoms: C_7  and  C_8 
REMARK    7  A    between atoms: C_8  and  C_9 
REMARK    8  A    between atoms: C_9  and  C_10 
REMARK    9  A    between atoms: C_10  and  C_11 
REMARK   10  A    between atoms: C_11  and  C_12 
REMARK   11  A    between atoms: C_12  and  C_13 
REMARK   12  A    between atoms: C_13  and  C_14 
REMARK   13  A    between atoms: C_14  and  C_15 
REMARK   14  A    between atoms: C_15  and  C_16 
REMARK   15  A    between atoms: C_16  and  O_18 
REMARK   16  A    between atoms: O_18  and  C_19 
REMARK   17  A    between atoms: C_19  and  C_20 
REMARK   18  A    between atoms: C_20  and  C_21 
REMARK   19  A    between atoms: C_20  and  O_26 
REMARK   20  A    between atoms: C_21  and  O_22 
REMARK   21  A    between atoms: O_22  and  C_23 
REMARK   22  A    between atoms: O_26  and  C_27 
REMARK   23  A    between atoms: C_27  and  C_29 
REMARK   24  A    between atoms: C_29  and  C_30 
REMARK   25  A    between atoms: C_30  and  C_31 
REMARK   26  A    between atoms: C_31  and  C_32 
REMARK   27  A    between atoms: C_32  and  C_33 
REMARK   28  A    between atoms: C_33  and  C_34 
REMARK   29  A    between atoms: C_34  and  C_35 
REMARK   30  A    between atoms: C_35  and  C_36 
REMARK   31  A    between atoms: C_37  and  C_38 
REMARK   32  A    between atoms: C_38  and  C_39 
REMARK   33  A    between atoms: C_40  and  C_41 
REMARK   34  A    between atoms: C_41  and  C_42 
REMARK   35  A    between atoms: C_42  and  C_43 
REMARK   36  A    between atoms: C_43  and  C_44 
ROOT
HETATM    1  C   UNK N   1      20.966  16.348   5.908  0.00  0.00     0.180 C 
ENDROOT
BRANCH   1   2
HETATM    2  C   UNK N   1      21.589  16.681   4.553  0.00  0.00     0.213 C 
BRANCH   2   3
HETATM    3  O   UNK N   1      21.985  17.996   4.435  0.00  0.00    -0.319 OA
BRANCH   3   4
HETATM    4  C   UNK N   1      23.182  18.340   3.904  0.00  0.00     0.258 C 
HETATM    5  O   UNK N   1      24.057  17.495   3.809  0.00  0.00    -0.265 OA
BRANCH   4   6
HETATM    6  C   UNK N   1      23.460  19.755   3.475  0.00  0.00     0.111 C 
BRANCH   6   7
HETATM    7  C   UNK N   1      24.889  19.942   2.998  0.00  0.00     0.010 C 
BRANCH   7   8
HETATM    8  C   UNK N   1      25.791  20.398   4.133  0.00  0.00     0.000 C 
BRANCH   8   9
HETATM    9  C   UNK N   1      27.243  20.059   3.831  0.00  0.00     0.000 C 
BRANCH   9  10
HETATM   10  C   UNK N   1      28.108  19.950   5.082  0.00  0.00     0.000 C 
BRANCH  10  11
HETATM   11  C   UNK N   1      27.309  19.804   6.374  0.00  0.00     0.000 C 
BRANCH  11  12
HETATM   12  C   UNK N   1      28.155  19.233   7.512  0.00  0.00     0.000 C 
BRANCH  12  13
HETATM   13  C   UNK N   1      28.887  17.963   7.101  0.00  0.00     0.000 C 
BRANCH  13  14
HETATM   14  C   UNK N   1      27.908  16.812   6.946  0.00  0.00     0.000 C 
BRANCH  14  15
HETATM   15  C   UNK N   1      28.322  15.920   5.785  0.00  0.00     0.000 C 
BRANCH  15  16
HETATM   16  C   UNK N   1      27.802  16.468   4.467  0.00  0.00     0.000 C 
BRANCH  16  17
HETATM   17  C   UNK N   1      28.927  16.611   3.456  0.00  0.00     0.000 C 
BRANCH  17  18
HETATM   18  C   UNK N   1      30.258  16.297   4.110  0.00  0.00    -0.000 C 
BRANCH  18  19
HETATM   19  C   UNK N   1      31.113  17.547   4.189  0.00  0.00    -0.005 C 
HETATM   20  C   UNK N   1      32.473  17.264   3.589  0.00  0.00     0.005 C 
ENDBRANCH  18  19
ENDBRANCH  17  18
ENDBRANCH  16  17
ENDBRANCH  15  16
ENDBRANCH  14  15
ENDBRANCH  13  14
ENDBRANCH  12  13
ENDBRANCH  11  12
ENDBRANCH  10  11
ENDBRANCH   9  10
ENDBRANCH   8   9
ENDBRANCH   7   8
ENDBRANCH   6   7
ENDBRANCH   4   6
ENDBRANCH   3   4
ENDBRANCH   2   3
ENDBRANCH   1   2
BRANCH   1  21
HETATM   21  C   UNK N   1      20.970  17.563   6.833  0.00  0.00     0.213 C 
BRANCH  21  22
HETATM   22  O   UNK N   1      20.708  17.203   8.140  0.00  0.00    -0.319 OA
BRANCH  22  23
HETATM   23  C   UNK N   1      19.720  17.795   8.857  0.00  0.00     0.254 C 
HETATM   24  O   UNK N   1      19.873  18.912   9.331  0.00  0.00    -0.266 OA
HETATM   25  C   UNK N   1      18.425  17.087   9.059  0.00  0.00     0.126 C 
ENDBRANCH  22  23
ENDBRANCH  21  22
ENDBRANCH   1  21
BRANCH   1  26
HETATM   26  O   UNK N   1      21.531  15.261   6.541  0.00  0.00    -0.312 OA
BRANCH  26  27
HETATM   27  C   UNK N   1      20.823  14.139   6.810  0.00  0.00     0.259 C 
HETATM   28  O   UNK N   1      19.881  13.850   6.093  0.00  0.00    -0.265 OA
BRANCH  27  29
HETATM   29  C   UNK N   1      21.188  13.275   7.999  0.00  0.00     0.111 C 
BRANCH  29  30
HETATM   30  C   UNK N   1      21.243  13.975   9.354  0.00  0.00     0.010 C 
BRANCH  30  31
HETATM   31  C   UNK N   1      21.059  13.044  10.544  0.00  0.00     0.000 C 
BRANCH  31  32
HETATM   32  C   UNK N   1      21.973  11.836  10.404  0.00  0.00     0.000 C 
BRANCH  32  33
HETATM   33  C   UNK N   1      23.371  12.037  10.993  0.00  0.00     0.000 C 
BRANCH  33  34
HETATM   34  C   UNK N   1      24.547  12.021  10.003  0.00  0.00     0.004 C 
BRANCH  34  35
HETATM   35  C   UNK N   1      25.010  13.380   9.477  0.00  0.00     0.027 C 
BRANCH  35  36
HETATM   36  C   UNK N   1      24.915  13.499   7.994  0.00  0.00    -0.030 C 
HETATM   37  C   UNK N   1      24.952  14.702   7.432  0.00  0.00    -0.027 C 
BRANCH  37  38
HETATM   38  C   UNK N   1      24.855  14.832   5.948  0.00  0.00     0.053 C 
BRANCH  38  39
HETATM   39  C   UNK N   1      24.355  13.558   5.332  0.00  0.00    -0.027 C 
HETATM   40  C   UNK N   1      24.502  13.262   4.034  0.00  0.00    -0.030 C 
BRANCH  40  41
HETATM   41  C   UNK N   1      25.193  14.177   3.072  0.00  0.00     0.027 C 
BRANCH  41  42
HETATM   42  C   UNK N   1      25.029  13.640   1.663  0.00  0.00     0.004 C 
BRANCH  42  43
HETATM   43  C   UNK N   1      23.827  14.271   0.984  0.00  0.00    -0.000 C 
BRANCH  43  44
HETATM   44  C   UNK N   1      22.958  13.205   0.348  0.00  0.00    -0.005 C 
HETATM   45  C   UNK N   1      23.812  12.006  -0.006  0.00  0.00     0.005 C 
ENDBRANCH  43  44
ENDBRANCH  42  43
ENDBRANCH  41  42
ENDBRANCH  40  41
ENDBRANCH  38  39
ENDBRANCH  37  38
ENDBRANCH  35  36
ENDBRANCH  34  35
ENDBRANCH  33  34
ENDBRANCH  32  33
ENDBRANCH  31  32
ENDBRANCH  30  31
ENDBRANCH  29  30
ENDBRANCH  27  29
ENDBRANCH  26  27
ENDBRANCH   1  26
TORSDOF 36
ENDMDL
MODEL 4
REMARK VINA RESULT:      -5.2      2.407      7.068
REMARK WARNING: 32 MAX_TORS EXCEEDED!!!
REMARK  36 active torsions:
REMARK  status: ('A' for Active; 'I' for Inactive)
REMARK    1  A    between atoms: C_2  and  C_3 
REMARK    2  A    between atoms: C_3  and  C_4 
REMARK    3  A    between atoms: C_4  and  C_5 
REMARK    4  A    between atoms: C_5  and  C_6 
REMARK    5  A    between atoms: C_6  and  C_7 
REMARK    6  A    between atoms: C_7  and  C_8 
REMARK    7  A    between atoms: C_8  and  C_9 
REMARK    8  A    between atoms: C_9  and  C_10 
REMARK    9  A    between atoms: C_10  and  C_11 
REMARK   10  A    between atoms: C_11  and  C_12 
REMARK   11  A    between atoms: C_12  and  C_13 
REMARK   12  A    between atoms: C_13  and  C_14 
REMARK   13  A    between atoms: C_14  and  C_15 
REMARK   14  A    between atoms: C_15  and  C_16 
REMARK   15  A    between atoms: C_16  and  O_18 
REMARK   16  A    between atoms: O_18  and  C_19 
REMARK   17  A    between atoms: C_19  and  C_20 
REMARK   18  A    between atoms: C_20  and  C_21 
REMARK   19  A    between atoms: C_20  and  O_26 
REMARK   20  A    between atoms: C_21  and  O_22 
REMARK   21  A    between atoms: O_22  and  C_23 
REMARK   22  A    between atoms: O_26  and  C_27 
REMARK   23  A    between atoms: C_27  and  C_29 
REMARK   24  A    between atoms: C_29  and  C_30 
REMARK   25  A    between atoms: C_30  and  C_31 
REMARK   26  A    between atoms: C_31  and  C_32 
REMARK   27  A    between atoms: C_32  and  C_33 
REMARK   28  A    between atoms: C_33  and  C_34 
REMARK   29  A    between atoms: C_34  and  C_35 
REMARK   30  A    between atoms: C_35  and  C_36 
REMARK   31  A    between atoms: C_37  and  C_38 
REMARK   32  A    between atoms: C_38  and  C_39 
REMARK   33  A    between atoms: C_40  and  C_41 
REMARK   34  A    between atoms: C_41  and  C_42 
REMARK   35  A    between atoms: C_42  and  C_43 
REMARK   36  A    between atoms: C_43  and  C_44 
ROOT
HETATM    1  C   UNK N   1      20.083  17.442   3.045  0.00  0.00     0.180 C 
ENDROOT
BRANCH   1   2
HETATM    2  C   UNK N   1      20.125  18.970   3.059  0.00  0.00     0.213 C 
BRANCH   2   3
HETATM    3  O   UNK N   1      21.155  19.502   2.313  0.00  0.00    -0.319 OA
BRANCH   3   4
HETATM    4  C   UNK N   1      22.192  20.158   2.886  0.00  0.00     0.258 C 
HETATM    5  O   UNK N   1      22.297  21.363   2.725  0.00  0.00    -0.265 OA
BRANCH   4   6
HETATM    6  C   UNK N   1      23.234  19.416   3.678  0.00  0.00     0.111 C 
BRANCH   6   7
HETATM    7  C   UNK N   1      24.615  20.029   3.530  0.00  0.00     0.010 C 
BRANCH   7   8
HETATM    8  C   UNK N   1      25.689  19.097   4.066  0.00  0.00     0.000 C 
BRANCH   8   9
HETATM    9  C   UNK N   1      27.031  19.811   4.134  0.00  0.00     0.000 C 
BRANCH   9  10
HETATM   10  C   UNK N   1      27.640  19.815   5.532  0.00  0.00     0.000 C 
BRANCH  10  11
HETATM   11  C   UNK N   1      28.569  18.635   5.805  0.00  0.00     0.000 C 
BRANCH  11  12
HETATM   12  C   UNK N   1      28.135  17.833   7.031  0.00  0.00     0.000 C 
BRANCH  12  13
HETATM   13  C   UNK N   1      28.163  18.669   8.303  0.00  0.00     0.000 C 
BRANCH  13  14
HETATM   14  C   UNK N   1      29.593  18.867   8.778  0.00  0.00     0.000 C 
BRANCH  14  15
HETATM   15  C   UNK N   1      30.298  17.524   8.900  0.00  0.00     0.000 C 
BRANCH  15  16
HETATM   16  C   UNK N   1      31.753  17.634   8.480  0.00  0.00     0.000 C 
BRANCH  16  17
HETATM   17  C   UNK N   1      32.111  16.552   7.474  0.00  0.00     0.000 C 
BRANCH  17  18
HETATM   18  C   UNK N   1      31.910  17.067   6.063  0.00  0.00    -0.000 C 
BRANCH  18  19
HETATM   19  C   UNK N   1      31.519  15.928   5.139  0.00  0.00    -0.005 C 
HETATM   20  C   UNK N   1      30.381  15.147   5.758  0.00  0.00     0.005 C 
ENDBRANCH  18  19
ENDBRANCH  17  18
ENDBRANCH  16  17
ENDBRANCH  15  16
ENDBRANCH  14  15
ENDBRANCH  13  14
ENDBRANCH  12  13
ENDBRANCH  11  12
ENDBRANCH  10  11
ENDBRANCH   9  10
ENDBRANCH   8   9
ENDBRANCH   7   8
ENDBRANCH   6   7
ENDBRANCH   4   6
ENDBRANCH   3   4
ENDBRANCH   2   3
ENDBRANCH   1   2
BRANCH   1  21
HETATM   21  C   UNK N   1      19.943  16.879   4.457  0.00  0.00     0.213 C 
BRANCH  21  22
HETATM   22  O   UNK N   1      21.085  17.099   5.204  0.00  0.00    -0.319 OA
BRANCH  22  23
HETATM   23  C   UNK N   1      21.021  17.515   6.494  0.00  0.00     0.254 C 
HETATM   24  O   UNK N   1      21.069  18.705   6.771  0.00  0.00    -0.266 OA
HETATM   25  C   UNK N   1      20.878  16.515   7.588  0.00  0.00     0.126 C 
ENDBRANCH  22  23
ENDBRANCH  21  22
ENDBRANCH   1  21
BRANCH   1  26
HETATM   26  O   UNK N   1      21.147  16.851   2.396  0.00  0.00    -0.312 OA
BRANCH  26  27
HETATM   27  C   UNK N   1      20.973  16.023   1.340  0.00  0.00     0.259 C 
HETATM   28  O   UNK N   1      20.217  16.360   0.445  0.00  0.00    -0.265 OA
BRANCH  27  29
HETATM   29  C   UNK N   1      21.691  14.691   1.290  0.00  0.00     0.111 C 
BRANCH  29  30
HETATM   30  C   UNK N   1      22.328  14.215   2.593  0.00  0.00     0.010 C 
BRANCH  30  31
HETATM   31  C   UNK N   1      23.767  13.743   2.447  0.00  0.00     0.000 C 
BRANCH  31  32
HETATM   32  C   UNK N   1      24.374  14.316   1.174  0.00  0.00     0.000 C 
BRANCH  32  33
HETATM   33  C   UNK N   1      25.544  15.272   1.414  0.00  0.00     0.000 C 
BRANCH  33  34
HETATM   34  C   UNK N   1      26.796  14.678   2.080  0.00  0.00     0.004 C 
BRANCH  34  35
HETATM   35  C   UNK N   1      27.566  15.603   3.023  0.00  0.00     0.027 C 
BRANCH  35  36
HETATM   36  C   UNK N   1      27.095  15.526   4.435  0.00  0.00    -0.030 C 
HETATM   37  C   UNK N   1      25.806  15.705   4.703  0.00  0.00    -0.027 C 
BRANCH  37  38
HETATM   38  C   UNK N   1      25.324  15.633   6.114  0.00  0.00     0.053 C 
BRANCH  38  39
HETATM   39  C   UNK N   1      23.955  15.022   6.180  0.00  0.00    -0.027 C 
HETATM   40  C   UNK N   1      23.701  13.852   6.781  0.00  0.00    -0.030 C 
BRANCH  40  41
HETATM   41  C   UNK N   1      24.765  13.044   7.456  0.00  0.00     0.027 C 
BRANCH  41  42
HETATM   42  C   UNK N   1      24.165  12.322   8.648  0.00  0.00     0.004 C 
BRANCH  42  43
HETATM   43  C   UNK N   1      22.967  13.081   9.188  0.00  0.00    -0.000 C 
BRANCH  43  44
HETATM   44  C   UNK N   1      22.787  12.803  10.667  0.00  0.00    -0.005 C 
HETATM   45  C   UNK N   1      21.421  12.195  10.901  0.00  0.00     0.005 C 
ENDBRANCH  43  44
ENDBRANCH  42  43
ENDBRANCH  41  42
ENDBRANCH  40  41
ENDBRANCH  38  39
ENDBRANCH  37  38
ENDBRANCH  35  36
ENDBRANCH  34  35
ENDBRANCH  33  34
ENDBRANCH  32  33
ENDBRANCH  31  32
ENDBRANCH  30  31
ENDBRANCH  29  30
ENDBRANCH  27  29
ENDBRANCH  26  27
ENDBRANCH   1  26
TORSDOF 36
ENDMDL
MODEL 5
REMARK VINA RESULT:      -5.0      1.875      5.089
REMARK WARNING: 32 MAX_TORS EXCEEDED!!!
REMARK  36 active torsions:
REMARK  status: ('A' for Active; 'I' for Inactive)
REMARK    1  A    between atoms: C_2  and  C_3 
REMARK    2  A    between atoms: C_3  and  C_4 
REMARK    3  A    between atoms: C_4  and  C_5 
REMARK    4  A    between atoms: C_5  and  C_6 
REMARK    5  A    between atoms: C_6  and  C_7 
REMARK    6  A    between atoms: C_7  and  C_8 
REMARK    7  A    between atoms: C_8  and  C_9 
REMARK    8  A    between atoms: C_9  and  C_10 
REMARK    9  A    between atoms: C_10  and  C_11 
REMARK   10  A    between atoms: C_11  and  C_12 
REMARK   11  A    between atoms: C_12  and  C_13 
REMARK   12  A    between atoms: C_13  and  C_14 
REMARK   13  A    between atoms: C_14  and  C_15 
REMARK   14  A    between atoms: C_15  and  C_16 
REMARK   15  A    between atoms: C_16  and  O_18 
REMARK   16  A    between atoms: O_18  and  C_19 
REMARK   17  A    between atoms: C_19  and  C_20 
REMARK   18  A    between atoms: C_20  and  C_21 
REMARK   19  A    between atoms: C_20  and  O_26 
REMARK   20  A    between atoms: C_21  and  O_22 
REMARK   21  A    between atoms: O_22  and  C_23 
REMARK   22  A    between atoms: O_26  and  C_27 
REMARK   23  A    between atoms: C_27  and  C_29 
REMARK   24  A    between atoms: C_29  and  C_30 
REMARK   25  A    between atoms: C_30  and  C_31 
REMARK   26  A    between atoms: C_31  and  C_32 
REMARK   27  A    between atoms: C_32  and  C_33 
REMARK   28  A    between atoms: C_33  and  C_34 
REMARK   29  A    between atoms: C_34  and  C_35 
REMARK   30  A    between atoms: C_35  and  C_36 
REMARK   31  A    between atoms: C_37  and  C_38 
REMARK   32  A    between atoms: C_38  and  C_39 
REMARK   33  A    between atoms: C_40  and  C_41 
REMARK   34  A    between atoms: C_41  and  C_42 
REMARK   35  A    between atoms: C_42  and  C_43 
REMARK   36  A    between atoms: C_43  and  C_44 
ROOT
HETATM    1  C   UNK N   1      24.170  17.937   4.889  0.00  0.00     0.180 C 
ENDROOT
BRANCH   1   2
HETATM    2  C   UNK N   1      22.767  18.364   5.319  0.00  0.00     0.213 C 
BRANCH   2   3
HETATM    3  O   UNK N   1      22.082  17.390   6.013  0.00  0.00    -0.319 OA
BRANCH   3   4
HETATM    4  C   UNK N   1      21.041  17.687   6.827  0.00  0.00     0.258 C 
HETATM    5  O   UNK N   1      20.904  18.832   7.226  0.00  0.00    -0.265 OA
BRANCH   4   6
HETATM    6  C   UNK N   1      20.083  16.620   7.280  0.00  0.00     0.111 C 
BRANCH   6   7
HETATM    7  C   UNK N   1      20.782  15.303   7.572  0.00  0.00     0.010 C 
BRANCH   7   8
HETATM    8  C   UNK N   1      21.053  15.144   9.059  0.00  0.00     0.000 C 
BRANCH   8   9
HETATM    9  C   UNK N   1      20.283  13.959   9.620  0.00  0.00     0.000 C 
BRANCH   9  10
HETATM   10  C   UNK N   1      21.150  13.012  10.442  0.00  0.00     0.000 C 
BRANCH  10  11
HETATM   11  C   UNK N   1      22.623  13.018  10.040  0.00  0.00     0.000 C 
BRANCH  11  12
HETATM   12  C   UNK N   1      23.124  11.621   9.678  0.00  0.00     0.000 C 
BRANCH  12  13
HETATM   13  C   UNK N   1      23.546  11.524   8.218  0.00  0.00     0.000 C 
BRANCH  13  14
HETATM   14  C   UNK N   1      24.115  12.850   7.740  0.00  0.00     0.000 C 
BRANCH  14  15
HETATM   15  C   UNK N   1      23.543  13.207   6.376  0.00  0.00     0.000 C 
BRANCH  15  16
HETATM   16  C   UNK N   1      22.298  12.391   6.079  0.00  0.00     0.000 C 
BRANCH  16  17
HETATM   17  C   UNK N   1      22.341  11.828   4.668  0.00  0.00     0.000 C 
BRANCH  17  18
HETATM   18  C   UNK N   1      23.755  11.897   4.123  0.00  0.00    -0.000 C 
BRANCH  18  19
HETATM   19  C   UNK N   1      24.198  10.530   3.639  0.00  0.00    -0.005 C 
HETATM   20  C   UNK N   1      25.265  10.694   2.579  0.00  0.00     0.005 C 
ENDBRANCH  18  19
ENDBRANCH  17  18
ENDBRANCH  16  17
ENDBRANCH  15  16
ENDBRANCH  14  15
ENDBRANCH  13  14
ENDBRANCH  12  13
ENDBRANCH  11  12
ENDBRANCH  10  11
ENDBRANCH   9  10
ENDBRANCH   8   9
ENDBRANCH   7   8
ENDBRANCH   6   7
ENDBRANCH   4   6
ENDBRANCH   3   4
ENDBRANCH   2   3
ENDBRANCH   1   2
BRANCH   1  21
HETATM   21  C   UNK N   1      24.652  18.749   3.689  0.00  0.00     0.213 C 
BRANCH  21  22
HETATM   22  O   UNK N   1      24.980  20.041   4.053  0.00  0.00    -0.319 OA
BRANCH  22  23
HETATM   23  C   UNK N   1      26.157  20.331   4.664  0.00  0.00     0.254 C 
HETATM   24  O   UNK N   1      26.177  20.897   5.747  0.00  0.00    -0.266 OA
HETATM   25  C   UNK N   1      27.442  19.944   4.017  0.00  0.00     0.126 C 
ENDBRANCH  22  23
ENDBRANCH  21  22
ENDBRANCH   1  21
BRANCH   1  26
HETATM   26  O   UNK N   1      24.302  16.587   4.638  0.00  0.00    -0.312 OA
BRANCH  26  27
HETATM   27  C   UNK N   1      25.390  15.887   5.033  0.00  0.00     0.259 C 
HETATM   28  O   UNK N   1      25.787  16.009   6.179  0.00  0.00    -0.265 OA
BRANCH  27  29
HETATM   29  C   UNK N   1      26.113  14.985   4.054  0.00  0.00     0.111 C 
BRANCH  29  30
HETATM   30  C   UNK N   1      26.665  15.654   2.798  0.00  0.00     0.010 C 
BRANCH  30  31
HETATM   31  C   UNK N   1      25.755  15.545   1.583  0.00  0.00     0.000 C 
BRANCH  31  32
HETATM   32  C   UNK N   1      25.208  14.128   1.470  0.00  0.00     0.000 C 
BRANCH  32  33
HETATM   33  C   UNK N   1      23.757  14.053   0.992  0.00  0.00     0.000 C 
BRANCH  33  34
HETATM   34  C   UNK N   1      23.422  12.954  -0.029  0.00  0.00     0.004 C 
BRANCH  34  35
HETATM   35  C   UNK N   1      22.394  11.911   0.408  0.00  0.00     0.027 C 
BRANCH  35  36
HETATM   36  C   UNK N   1      21.083  12.505   0.796  0.00  0.00    -0.030 C 
HETATM   37  C   UNK N   1      20.380  11.952   1.778  0.00  0.00    -0.027 C 
BRANCH  37  38
HETATM   38  C   UNK N   1      19.065  12.537   2.172  0.00  0.00     0.053 C 
BRANCH  38  39
HETATM   39  C   UNK N   1      18.924  12.577   3.666  0.00  0.00    -0.027 C 
HETATM   40  C   UNK N   1      19.098  13.690   4.391  0.00  0.00    -0.030 C 
BRANCH  40  41
HETATM   41  C   UNK N   1      19.440  15.009   3.773  0.00  0.00     0.027 C 
BRANCH  41  42
HETATM   42  C   UNK N   1      20.949  15.156   3.709  0.00  0.00     0.004 C 
BRANCH  42  43
HETATM   43  C   UNK N   1      21.346  16.140   2.624  0.00  0.00    -0.000 C 
BRANCH  43  44
HETATM   44  C   UNK N   1      20.553  15.881   1.359  0.00  0.00    -0.005 C 
HETATM   45  C   UNK N   1      20.075  17.198   0.787  0.00  0.00     0.005 C 
ENDBRANCH  43  44
ENDBRANCH  42  43
ENDBRANCH  41  42
ENDBRANCH  40  41
ENDBRANCH  38  39
ENDBRANCH  37  38
ENDBRANCH  35  36
ENDBRANCH  34  35
ENDBRANCH  33  34
ENDBRANCH  32  33
ENDBRANCH  31  32
ENDBRANCH  30  31
ENDBRANCH  29  30
ENDBRANCH  27  29
ENDBRANCH  26  27
ENDBRANCH   1  26
TORSDOF 36
ENDMDL
MODEL 6
REMARK VINA RESULT:      -5.0      3.565      7.778
REMARK WARNING: 32 MAX_TORS EXCEEDED!!!
REMARK  36 active torsions:
REMARK  status: ('A' for Active; 'I' for Inactive)
REMARK    1  A    between atoms: C_2  and  C_3 
REMARK    2  A    between atoms: C_3  and  C_4 
REMARK    3  A    between atoms: C_4  and  C_5 
REMARK    4  A    between atoms: C_5  and  C_6 
REMARK    5  A    between atoms: C_6  and  C_7 
REMARK    6  A    between atoms: C_7  and  C_8 
REMARK    7  A    between atoms: C_8  and  C_9 
REMARK    8  A    between atoms: C_9  and  C_10 
REMARK    9  A    between atoms: C_10  and  C_11 
REMARK   10  A    between atoms: C_11  and  C_12 
REMARK   11  A    between atoms: C_12  and  C_13 
REMARK   12  A    between atoms: C_13  and  C_14 
REMARK   13  A    between atoms: C_14  and  C_15 
REMARK   14  A    between atoms: C_15  and  C_16 
REMARK   15  A    between atoms: C_16  and  O_18 
REMARK   16  A    between atoms: O_18  and  C_19 
REMARK   17  A    between atoms: C_19  and  C_20 
REMARK   18  A    between atoms: C_20  and  C_21 
REMARK   19  A    between atoms: C_20  and  O_26 
REMARK   20  A    between atoms: C_21  and  O_22 
REMARK   21  A    between atoms: O_22  and  C_23 
REMARK   22  A    between atoms: O_26  and  C_27 
REMARK   23  A    between atoms: C_27  and  C_29 
REMARK   24  A    between atoms: C_29  and  C_30 
REMARK   25  A    between atoms: C_30  and  C_31 
REMARK   26  A    between atoms: C_31  and  C_32 
REMARK   27  A    between atoms: C_32  and  C_33 
REMARK   28  A    between atoms: C_33  and  C_34 
REMARK   29  A    between atoms: C_34  and  C_35 
REMARK   30  A    between atoms: C_35  and  C_36 
REMARK   31  A    between atoms: C_37  and  C_38 
REMARK   32  A    between atoms: C_38  and  C_39 
REMARK   33  A    between atoms: C_40  and  C_41 
REMARK   34  A    between atoms: C_41  and  C_42 
REMARK   35  A    between atoms: C_42  and  C_43 
REMARK   36  A    between atoms: C_43  and  C_44 
ROOT
HETATM    1  C   UNK N   1      20.616  14.063   8.783  0.00  0.00     0.180 C 
ENDROOT
BRANCH   1   2
HETATM    2  C   UNK N   1      20.067  15.482   8.934  0.00  0.00     0.213 C 
BRANCH   2   3
HETATM    3  O   UNK N   1      20.945  16.462   8.523  0.00  0.00    -0.319 OA
BRANCH   3   4
HETATM    4  C   UNK N   1      20.647  17.314   7.514  0.00  0.00     0.258 C 
HETATM    5  O   UNK N   1      20.528  18.504   7.755  0.00  0.00    -0.265 OA
BRANCH   4   6
HETATM    6  C   UNK N   1      20.419  16.808   6.116  0.00  0.00     0.111 C 
BRANCH   6   7
HETATM    7  C   UNK N   1      21.720  16.568   5.370  0.00  0.00     0.010 C 
BRANCH   7   8
HETATM    8  C   UNK N   1      22.264  17.861   4.785  0.00  0.00     0.000 C 
BRANCH   8   9
HETATM    9  C   UNK N   1      23.628  17.630   4.152  0.00  0.00     0.000 C 
BRANCH   9  10
HETATM   10  C   UNK N   1      24.675  18.647   4.592  0.00  0.00     0.000 C 
BRANCH  10  11
HETATM   11  C   UNK N   1      25.808  18.841   3.587  0.00  0.00     0.000 C 
BRANCH  11  12
HETATM   12  C   UNK N   1      26.297  20.289   3.545  0.00  0.00     0.000 C 
BRANCH  12  13
HETATM   13  C   UNK N   1      26.935  20.716   4.860  0.00  0.00     0.000 C 
BRANCH  13  14
HETATM   14  C   UNK N   1      28.047  19.757   5.248  0.00  0.00     0.000 C 
BRANCH  14  15
HETATM   15  C   UNK N   1      27.869  19.297   6.687  0.00  0.00     0.000 C 
BRANCH  15  16
HETATM   16  C   UNK N   1      27.918  17.782   6.784  0.00  0.00     0.000 C 
BRANCH  16  17
HETATM   17  C   UNK N   1      28.621  17.342   8.058  0.00  0.00     0.000 C 
BRANCH  17  18
HETATM   18  C   UNK N   1      28.516  18.427   9.112  0.00  0.00    -0.000 C 
BRANCH  18  19
HETATM   19  C   UNK N   1      29.899  18.905   9.512  0.00  0.00    -0.005 C 
HETATM   20  C   UNK N   1      30.942  18.144   8.724  0.00  0.00     0.005 C 
ENDBRANCH  18  19
ENDBRANCH  17  18
ENDBRANCH  16  17
ENDBRANCH  15  16
ENDBRANCH  14  15
ENDBRANCH  13  14
ENDBRANCH  12  13
ENDBRANCH  11  12
ENDBRANCH  10  11
ENDBRANCH   9  10
ENDBRANCH   8   9
ENDBRANCH   7   8
ENDBRANCH   6   7
ENDBRANCH   4   6
ENDBRANCH   3   4
ENDBRANCH   2   3
ENDBRANCH   1   2
BRANCH   1  21
HETATM   21  C   UNK N   1      21.127  13.523  10.116  0.00  0.00     0.213 C 
BRANCH  21  22
HETATM   22  O   UNK N   1      22.508  13.481  10.148  0.00  0.00    -0.319 OA
BRANCH  22  23
HETATM   23  C   UNK N   1      23.178  12.329  10.402  0.00  0.00     0.254 C 
HETATM   24  O   UNK N   1      22.657  11.243  10.194  0.00  0.00    -0.266 OA
HETATM   25  C   UNK N   1      24.572  12.383  10.926  0.00  0.00     0.126 C 
ENDBRANCH  22  23
ENDBRANCH  21  22
ENDBRANCH   1  21
BRANCH   1  26
HETATM   26  O   UNK N   1      21.583  13.930   7.809  0.00  0.00    -0.312 OA
BRANCH  26  27
HETATM   27  C   UNK N   1      21.388  13.175   6.703  0.00  0.00     0.259 C 
HETATM   28  O   UNK N   1      20.303  12.646   6.533  0.00  0.00    -0.265 OA
BRANCH  27  29
HETATM   29  C   UNK N   1      22.513  12.975   5.709  0.00  0.00     0.111 C 
BRANCH  29  30
HETATM   30  C   UNK N   1      23.931  13.032   6.270  0.00  0.00     0.010 C 
BRANCH  30  31
HETATM   31  C   UNK N   1      24.573  14.410   6.202  0.00  0.00     0.000 C 
BRANCH  31  32
HETATM   32  C   UNK N   1      26.017  14.288   5.737  0.00  0.00     0.000 C 
BRANCH  32  33
HETATM   33  C   UNK N   1      26.456  15.381   4.761  0.00  0.00     0.000 C 
BRANCH  33  34
HETATM   34  C   UNK N   1      26.745  14.941   3.317  0.00  0.00     0.004 C 
BRANCH  34  35
HETATM   35  C   UNK N   1      27.911  15.639   2.615  0.00  0.00     0.027 C 
BRANCH  35  36
HETATM   36  C   UNK N   1      28.700  16.519   3.523  0.00  0.00    -0.030 C 
HETATM   37  C   UNK N   1      30.001  16.296   3.681  0.00  0.00    -0.027 C 
BRANCH  37  38
HETATM   38  C   UNK N   1      30.800  17.170   4.590  0.00  0.00     0.053 C 
BRANCH  38  39
HETATM   39  C   UNK N   1      32.081  17.593   3.932  0.00  0.00    -0.027 C 
HETATM   40  C   UNK N   1      33.254  17.650   4.578  0.00  0.00    -0.030 C 
BRANCH  40  41
HETATM   41  C   UNK N   1      33.398  17.284   6.022  0.00  0.00     0.027 C 
BRANCH  41  42
HETATM   42  C   UNK N   1      34.353  16.112   6.149  0.00  0.00     0.004 C 
BRANCH  42  43
HETATM   43  C   UNK N   1      33.594  14.833   6.450  0.00  0.00    -0.000 C 
BRANCH  43  44
HETATM   44  C   UNK N   1      32.290  15.145   7.158  0.00  0.00    -0.005 C 
HETATM   45  C   UNK N   1      32.398  14.738   8.612  0.00  0.00     0.005 C 
ENDBRANCH  43  44
ENDBRANCH  42  43
ENDBRANCH  41  42
ENDBRANCH  40  41
ENDBRANCH  38  39
ENDBRANCH  37  38
ENDBRANCH  35  36
ENDBRANCH  34  35
ENDBRANCH  33  34
ENDBRANCH  32  33
ENDBRANCH  31  32
ENDBRANCH  30  31
ENDBRANCH  29  30
ENDBRANCH  27  29
ENDBRANCH  26  27
ENDBRANCH   1  26
TORSDOF 36
ENDMDL
MODEL 7
REMARK VINA RESULT:      -5.0      3.082      6.765
REMARK WARNING: 32 MAX_TORS EXCEEDED!!!
REMARK  36 active torsions:
REMARK  status: ('A' for Active; 'I' for Inactive)
REMARK    1  A    between atoms: C_2  and  C_3 
REMARK    2  A    between atoms: C_3  and  C_4 
REMARK    3  A    between atoms: C_4  and  C_5 
REMARK    4  A    between atoms: C_5  and  C_6 
REMARK    5  A    between atoms: C_6  and  C_7 
REMARK    6  A    between atoms: C_7  and  C_8 
REMARK    7  A    between atoms: C_8  and  C_9 
REMARK    8  A    between atoms: C_9  and  C_10 
REMARK    9  A    between atoms: C_10  and  C_11 
REMARK   10  A    between atoms: C_11  and  C_12 
REMARK   11  A    between atoms: C_12  and  C_13 
REMARK   12  A    between atoms: C_13  and  C_14 
REMARK   13  A    between atoms: C_14  and  C_15 
REMARK   14  A    between atoms: C_15  and  C_16 
REMARK   15  A    between atoms: C_16  and  O_18 
REMARK   16  A    between atoms: O_18  and  C_19 
REMARK   17  A    between atoms: C_19  and  C_20 
REMARK   18  A    between atoms: C_20  and  C_21 
REMARK   19  A    between atoms: C_20  and  O_26 
REMARK   20  A    between atoms: C_21  and  O_22 
REMARK   21  A    between atoms: O_22  and  C_23 
REMARK   22  A    between atoms: O_26  and  C_27 
REMARK   23  A    between atoms: C_27  and  C_29 
REMARK   24  A    between atoms: C_29  and  C_30 
REMARK   25  A    between atoms: C_30  and  C_31 
REMARK   26  A    between atoms: C_31  and  C_32 
REMARK   27  A    between atoms: C_32  and  C_33 
REMARK   28  A    between atoms: C_33  and  C_34 
REMARK   29  A    between atoms: C_34  and  C_35 
REMARK   30  A    between atoms: C_35  and  C_36 
REMARK   31  A    between atoms: C_37  and  C_38 
REMARK   32  A    between atoms: C_38  and  C_39 
REMARK   33  A    between atoms: C_40  and  C_41 
REMARK   34  A    between atoms: C_41  and  C_42 
REMARK   35  A    between atoms: C_42  and  C_43 
REMARK   36  A    between atoms: C_43  and  C_44 
ROOT
HETATM    1  C   UNK N   1      21.142  13.690   8.547  0.00  0.00     0.180 C 
ENDROOT
BRANCH   1   2
HETATM    2  C   UNK N   1      21.571  12.559   7.613  0.00  0.00     0.213 C 
BRANCH   2   3
HETATM    3  O   UNK N   1      22.578  12.914   6.742  0.00  0.00    -0.319 OA
BRANCH   3   4
HETATM    4  C   UNK N   1      23.827  13.214   7.173  0.00  0.00     0.258 C 
HETATM    5  O   UNK N   1      24.372  12.476   7.977  0.00  0.00    -0.265 OA
BRANCH   4   6
HETATM    6  C   UNK N   1      24.527  14.461   6.708  0.00  0.00     0.111 C 
BRANCH   6   7
HETATM    7  C   UNK N   1      26.038  14.317   6.731  0.00  0.00     0.010 C 
BRANCH   7   8
HETATM    8  C   UNK N   1      26.581  14.013   5.345  0.00  0.00     0.000 C 
BRANCH   8   9
HETATM    9  C   UNK N   1      26.738  12.512   5.149  0.00  0.00     0.000 C 
BRANCH   9  10
HETATM   10  C   UNK N   1      27.659  12.150   3.990  0.00  0.00     0.000 C 
BRANCH  10  11
HETATM   11  C   UNK N   1      27.281  12.816   2.669  0.00  0.00     0.000 C 
BRANCH  11  12
HETATM   12  C   UNK N   1      28.406  13.696   2.126  0.00  0.00     0.000 C 
BRANCH  12  13
HETATM   13  C   UNK N   1      27.991  15.158   2.023  0.00  0.00     0.000 C 
BRANCH  13  14
HETATM   14  C   UNK N   1      26.497  15.270   1.772  0.00  0.00     0.000 C 
BRANCH  14  15
HETATM   15  C   UNK N   1      25.909  16.410   2.590  0.00  0.00     0.000 C 
BRANCH  15  16
HETATM   16  C   UNK N   1      24.694  15.946   3.375  0.00  0.00     0.000 C 
BRANCH  16  17
HETATM   17  C   UNK N   1      23.814  15.042   2.528  0.00  0.00     0.000 C 
BRANCH  17  18
HETATM   18  C   UNK N   1      23.265  13.909   3.373  0.00  0.00    -0.000 C 
BRANCH  18  19
HETATM   19  C   UNK N   1      23.634  12.571   2.762  0.00  0.00    -0.005 C 
HETATM   20  C   UNK N   1      23.513  11.488   3.812  0.00  0.00     0.005 C 
ENDBRANCH  18  19
ENDBRANCH  17  18
ENDBRANCH  16  17
ENDBRANCH  15  16
ENDBRANCH  14  15
ENDBRANCH  13  14
ENDBRANCH  12  13
ENDBRANCH  11  12
ENDBRANCH  10  11
ENDBRANCH   9  10
ENDBRANCH   8   9
ENDBRANCH   7   8
ENDBRANCH   6   7
ENDBRANCH   4   6
ENDBRANCH   3   4
ENDBRANCH   2   3
ENDBRANCH   1   2
BRANCH   1  21
HETATM   21  C   UNK N   1      21.030  13.203   9.990  0.00  0.00     0.213 C 
BRANCH  21  22
HETATM   22  O   UNK N   1      22.266  13.162  10.606  0.00  0.00    -0.319 OA
BRANCH  22  23
HETATM   23  C   UNK N   1      22.755  12.016  11.142  0.00  0.00     0.254 C 
HETATM   24  O   UNK N   1      22.967  11.037  10.441  0.00  0.00    -0.266 OA
HETATM   25  C   UNK N   1      23.053  11.948  12.600  0.00  0.00     0.126 C 
ENDBRANCH  22  23
ENDBRANCH  21  22
ENDBRANCH   1  21
BRANCH   1  26
HETATM   26  O   UNK N   1      19.982  14.332   8.167  0.00  0.00    -0.312 OA
BRANCH  26  27
HETATM   27  C   UNK N   1      19.978  15.620   7.750  0.00  0.00     0.259 C 
HETATM   28  O   UNK N   1      18.919  16.221   7.705  0.00  0.00    -0.265 OA
BRANCH  27  29
HETATM   29  C   UNK N   1      21.269  16.288   7.327  0.00  0.00     0.111 C 
BRANCH  29  30
HETATM   30  C   UNK N   1      21.182  17.235   6.134  0.00  0.00     0.010 C 
BRANCH  30  31
HETATM   31  C   UNK N   1      20.853  16.549   4.816  0.00  0.00     0.000 C 
BRANCH  31  32
HETATM   32  C   UNK N   1      21.260  17.439   3.651  0.00  0.00     0.000 C 
BRANCH  32  33
HETATM   33  C   UNK N   1      22.208  18.577   4.034  0.00  0.00     0.000 C 
BRANCH  33  34
HETATM   34  C   UNK N   1      22.210  19.812   3.119  0.00  0.00     0.004 C 
BRANCH  34  35
HETATM   35  C   UNK N   1      23.553  20.521   2.937  0.00  0.00     0.027 C 
BRANCH  35  36
HETATM   36  C   UNK N   1      24.687  19.804   3.585  0.00  0.00    -0.030 C 
HETATM   37  C   UNK N   1      25.932  20.200   3.344  0.00  0.00    -0.027 C 
BRANCH  37  38
HETATM   38  C   UNK N   1      27.076  19.487   3.986  0.00  0.00     0.053 C 
BRANCH  38  39
HETATM   39  C   UNK N   1      26.669  18.909   5.310  0.00  0.00    -0.027 C 
HETATM   40  C   UNK N   1      27.295  17.871   5.882  0.00  0.00    -0.030 C 
BRANCH  40  41
HETATM   41  C   UNK N   1      28.472  17.194   5.254  0.00  0.00     0.027 C 
BRANCH  41  42
HETATM   42  C   UNK N   1      29.256  16.457   6.324  0.00  0.00     0.004 C 
BRANCH  42  43
HETATM   43  C   UNK N   1      30.545  15.896   5.753  0.00  0.00    -0.000 C 
BRANCH  43  44
HETATM   44  C   UNK N   1      30.279  14.592   5.027  0.00  0.00    -0.005 C 
HETATM   45  C   UNK N   1      31.439  13.646   5.251  0.00  0.00     0.005 C 
ENDBRANCH  43  44
ENDBRANCH  42  43
ENDBRANCH  41  42
ENDBRANCH  40  41
ENDBRANCH  38  39
ENDBRANCH  37  38
ENDBRANCH  35  36
ENDBRANCH  34  35
ENDBRANCH  33  34
ENDBRANCH  32  33
ENDBRANCH  31  32
ENDBRANCH  30  31
ENDBRANCH  29  30
ENDBRANCH  27  29
ENDBRANCH  26  27
ENDBRANCH   1  26
TORSDOF 36
ENDMDL
MODEL 8
REMARK VINA RESULT:      -4.9      1.544      2.217
REMARK WARNING: 32 MAX_TORS EXCEEDED!!!
REMARK  36 active torsions:
REMARK  status: ('A' for Active; 'I' for Inactive)
REMARK    1  A    between atoms: C_2  and  C_3 
REMARK    2  A    between atoms: C_3  and  C_4 
REMARK    3  A    between atoms: C_4  and  C_5 
REMARK    4  A    between atoms: C_5  and  C_6 
REMARK    5  A    between atoms: C_6  and  C_7 
REMARK    6  A    between atoms: C_7  and  C_8 
REMARK    7  A    between atoms: C_8  and  C_9 
REMARK    8  A    between atoms: C_9  and  C_10 
REMARK    9  A    between atoms: C_10  and  C_11 
REMARK   10  A    between atoms: C_11  and  C_12 
REMARK   11  A    between atoms: C_12  and  C_13 
REMARK   12  A    between atoms: C_13  and  C_14 
REMARK   13  A    between atoms: C_14  and  C_15 
REMARK   14  A    between atoms: C_15  and  C_16 
REMARK   15  A    between atoms: C_16  and  O_18 
REMARK   16  A    between atoms: O_18  and  C_19 
REMARK   17  A    between atoms: C_19  and  C_20 
REMARK   18  A    between atoms: C_20  and  C_21 
REMARK   19  A    between atoms: C_20  and  O_26 
REMARK   20  A    between atoms: C_21  and  O_22 
REMARK   21  A    between atoms: O_22  and  C_23 
REMARK   22  A    between atoms: O_26  and  C_27 
REMARK   23  A    between atoms: C_27  and  C_29 
REMARK   24  A    between atoms: C_29  and  C_30 
REMARK   25  A    between atoms: C_30  and  C_31 
REMARK   26  A    between atoms: C_31  and  C_32 
REMARK   27  A    between atoms: C_32  and  C_33 
REMARK   28  A    between atoms: C_33  and  C_34 
REMARK   29  A    between atoms: C_34  and  C_35 
REMARK   30  A    between atoms: C_35  and  C_36 
REMARK   31  A    between atoms: C_37  and  C_38 
REMARK   32  A    between atoms: C_38  and  C_39 
REMARK   33  A    between atoms: C_40  and  C_41 
REMARK   34  A    between atoms: C_41  and  C_42 
REMARK   35  A    between atoms: C_42  and  C_43 
REMARK   36  A    between atoms: C_43  and  C_44 
ROOT
HETATM    1  C   UNK N   1      20.850  17.442   4.770  0.00  0.00     0.180 C 
ENDROOT
BRANCH   1   2
HETATM    2  C   UNK N   1      21.350  17.998   6.103  0.00  0.00     0.213 C 
BRANCH   2   3
HETATM    3  O   UNK N   1      21.357  17.069   7.122  0.00  0.00    -0.319 OA
BRANCH   3   4
HETATM    4  C   UNK N   1      20.458  17.108   8.133  0.00  0.00     0.258 C 
HETATM    5  O   UNK N   1      20.127  18.188   8.596  0.00  0.00    -0.265 OA
BRANCH   4   6
HETATM    6  C   UNK N   1      19.899  15.842   8.721  0.00  0.00     0.111 C 
BRANCH   6   7
HETATM    7  C   UNK N   1      20.870  14.679   8.615  0.00  0.00     0.010 C 
BRANCH   7   8
HETATM    8  C   UNK N   1      20.859  13.837   9.881  0.00  0.00     0.000 C 
BRANCH   8   9
HETATM    9  C   UNK N   1      21.571  12.513   9.649  0.00  0.00     0.000 C 
BRANCH   9  10
HETATM   10  C   UNK N   1      22.759  12.298  10.580  0.00  0.00     0.000 C 
BRANCH  10  11
HETATM   11  C   UNK N   1      24.081  12.073   9.851  0.00  0.00     0.000 C 
BRANCH  11  12
HETATM   12  C   UNK N   1      24.832  13.381   9.605  0.00  0.00     0.000 C 
BRANCH  12  13
HETATM   13  C   UNK N   1      25.246  13.540   8.149  0.00  0.00     0.000 C 
BRANCH  13  14
HETATM   14  C   UNK N   1      24.124  13.096   7.225  0.00  0.00     0.000 C 
BRANCH  14  15
HETATM   15  C   UNK N   1      24.687  12.670   5.878  0.00  0.00     0.000 C 
BRANCH  15  16
HETATM   16  C   UNK N   1      24.323  11.229   5.568  0.00  0.00     0.000 C 
BRANCH  16  17
HETATM   17  C   UNK N   1      23.328  10.690   6.583  0.00  0.00     0.000 C 
BRANCH  17  18
HETATM   18  C   UNK N   1      22.371   9.725   5.912  0.00  0.00    -0.000 C 
BRANCH  18  19
HETATM   19  C   UNK N   1      21.279  10.487   5.186  0.00  0.00    -0.005 C 
HETATM   20  C   UNK N   1      20.756  11.589   6.080  0.00  0.00     0.005 C 
ENDBRANCH  18  19
ENDBRANCH  17  18
ENDBRANCH  16  17
ENDBRANCH  15  16
ENDBRANCH  14  15
ENDBRANCH  13  14
ENDBRANCH  12  13
ENDBRANCH  11  12
ENDBRANCH  10  11
ENDBRANCH   9  10
ENDBRANCH   8   9
ENDBRANCH   7   8
ENDBRANCH   6   7
ENDBRANCH   4   6
ENDBRANCH   3   4
ENDBRANCH   2   3
ENDBRANCH   1   2
BRANCH   1  21
HETATM   21  C   UNK N   1      20.627  18.559   3.753  0.00  0.00     0.213 C 
BRANCH  21  22
HETATM   22  O   UNK N   1      21.795  19.249   3.496  0.00  0.00    -0.319 OA
BRANCH  22  23
HETATM   23  C   UNK N   1      21.821  20.316   2.659  0.00  0.00     0.254 C 
HETATM   24  O   UNK N   1      22.534  21.281   2.897  0.00  0.00    -0.266 OA
HETATM   25  C   UNK N   1      20.986  20.312   1.426  0.00  0.00     0.126 C 
ENDBRANCH  22  23
ENDBRANCH  21  22
ENDBRANCH   1  21
BRANCH   1  26
HETATM   26  O   UNK N   1      19.724  16.652   4.870  0.00  0.00    -0.312 OA
BRANCH  26  27
HETATM   27  C   UNK N   1      19.767  15.313   4.685  0.00  0.00     0.259 C 
HETATM   28  O   UNK N   1      19.178  14.589   5.469  0.00  0.00    -0.265 OA
BRANCH  27  29
HETATM   29  C   UNK N   1      20.558  14.728   3.533  0.00  0.00     0.111 C 
BRANCH  29  30
HETATM   30  C   UNK N   1      20.092  15.108   2.130  0.00  0.00     0.010 C 
BRANCH  30  31
HETATM   31  C   UNK N   1      21.121  14.847   1.040  0.00  0.00     0.000 C 
BRANCH  31  32
HETATM   32  C   UNK N   1      21.698  13.447   1.196  0.00  0.00     0.000 C 
BRANCH  32  33
HETATM   33  C   UNK N   1      22.856  13.138   0.244  0.00  0.00     0.000 C 
BRANCH  33  34
HETATM   34  C   UNK N   1      24.262  13.080   0.863  0.00  0.00     0.004 C 
BRANCH  34  35
HETATM   35  C   UNK N   1      24.364  13.425   2.350  0.00  0.00     0.027 C 
BRANCH  35  36
HETATM   36  C   UNK N   1      24.671  14.862   2.599  0.00  0.00    -0.030 C 
HETATM   37  C   UNK N   1      24.106  15.481   3.630  0.00  0.00    -0.027 C 
BRANCH  37  38
HETATM   38  C   UNK N   1      24.405  16.921   3.887  0.00  0.00     0.053 C 
BRANCH  38  39
HETATM   39  C   UNK N   1      25.734  17.302   3.303  0.00  0.00    -0.027 C 
HETATM   40  C   UNK N   1      26.833  17.499   4.044  0.00  0.00    -0.030 C 
BRANCH  40  41
HETATM   41  C   UNK N   1      26.839  17.346   5.532  0.00  0.00     0.027 C 
BRANCH  41  42
HETATM   42  C   UNK N   1      28.179  16.785   5.972  0.00  0.00     0.004 C 
BRANCH  42  43
HETATM   43  C   UNK N   1      28.657  15.717   5.006  0.00  0.00    -0.000 C 
BRANCH  43  44
HETATM   44  C   UNK N   1      27.964  14.399   5.289  0.00  0.00    -0.005 C 
HETATM   45  C   UNK N   1      27.800  13.629   3.997  0.00  0.00     0.005 C 
ENDBRANCH  43  44
ENDBRANCH  42  43
ENDBRANCH  41  42
ENDBRANCH  40  41
ENDBRANCH  38  39
ENDBRANCH  37  38
ENDBRANCH  35  36
ENDBRANCH  34  35
ENDBRANCH  33  34
ENDBRANCH  32  33
ENDBRANCH  31  32
ENDBRANCH  30  31
ENDBRANCH  29  30
ENDBRANCH  27  29
ENDBRANCH  26  27
ENDBRANCH   1  26
TORSDOF 36
ENDMDL
MODEL 9
REMARK VINA RESULT:      -4.8      3.294      7.455
REMARK WARNING: 32 MAX_TORS EXCEEDED!!!
REMARK  36 active torsions:
REMARK  status: ('A' for Active; 'I' for Inactive)
REMARK    1  A    between atoms: C_2  and  C_3 
REMARK    2  A    between atoms: C_3  and  C_4 
REMARK    3  A    between atoms: C_4  and  C_5 
REMARK    4  A    between atoms: C_5  and  C_6 
REMARK    5  A    between atoms: C_6  and  C_7 
REMARK    6  A    between atoms: C_7  and  C_8 
REMARK    7  A    between atoms: C_8  and  C_9 
REMARK    8  A    between atoms: C_9  and  C_10 
REMARK    9  A    between atoms: C_10  and  C_11 
REMARK   10  A    between atoms: C_11  and  C_12 
REMARK   11  A    between atoms: C_12  and  C_13 
REMARK   12  A    between atoms: C_13  and  C_14 
REMARK   13  A    between atoms: C_14  and  C_15 
REMARK   14  A    between atoms: C_15  and  C_16 
REMARK   15  A    between atoms: C_16  and  O_18 
REMARK   16  A    between atoms: O_18  and  C_19 
REMARK   17  A    between atoms: C_19  and  C_20 
REMARK   18  A    between atoms: C_20  and  C_21 
REMARK   19  A    between atoms: C_20  and  O_26 
REMARK   20  A    between atoms: C_21  and  O_22 
REMARK   21  A    between atoms: O_22  and  C_23 
REMARK   22  A    between atoms: O_26  and  C_27 
REMARK   23  A    between atoms: C_27  and  C_29 
REMARK   24  A    between atoms: C_29  and  C_30 
REMARK   25  A    between atoms: C_30  and  C_31 
REMARK   26  A    between atoms: C_31  and  C_32 
REMARK   27  A    between atoms: C_32  and  C_33 
REMARK   28  A    between atoms: C_33  and  C_34 
REMARK   29  A    between atoms: C_34  and  C_35 
REMARK   30  A    between atoms: C_35  and  C_36 
REMARK   31  A    between atoms: C_37  and  C_38 
REMARK   32  A    between atoms: C_38  and  C_39 
REMARK   33  A    between atoms: C_40  and  C_41 
REMARK   34  A    between atoms: C_41  and  C_42 
REMARK   35  A    between atoms: C_42  and  C_43 
REMARK   36  A    between atoms: C_43  and  C_44 
ROOT
HETATM    1  C   UNK N   1      21.174  15.960   7.942  0.00  0.00     0.180 C 
ENDROOT
BRANCH   1   2
HETATM    2  C   UNK N   1      21.772  14.553   7.972  0.00  0.00     0.213 C 
BRANCH   2   3
HETATM    3  O   UNK N   1      21.968  14.010   6.720  0.00  0.00    -0.319 OA
BRANCH   3   4
HETATM    4  C   UNK N   1      21.029  13.244   6.116  0.00  0.00     0.258 C 
HETATM    5  O   UNK N   1      20.655  12.218   6.662  0.00  0.00    -0.265 OA
BRANCH   4   6
HETATM    6  C   UNK N   1      20.478  13.615   4.767  0.00  0.00     0.111 C 
BRANCH   6   7
HETATM    7  C   UNK N   1      21.567  13.761   3.719  0.00  0.00     0.010 C 
BRANCH   7   8
HETATM    8  C   UNK N   1      20.975  13.875   2.324  0.00  0.00     0.000 C 
BRANCH   8   9
HETATM    9  C   UNK N   1      22.046  14.269   1.318  0.00  0.00     0.000 C 
BRANCH   9  10
HETATM   10  C   UNK N   1      23.305  14.830   1.970  0.00  0.00     0.000 C 
BRANCH  10  11
HETATM   11  C   UNK N   1      24.594  14.155   1.506  0.00  0.00     0.000 C 
BRANCH  11  12
HETATM   12  C   UNK N   1      25.771  14.470   2.429  0.00  0.00     0.000 C 
BRANCH  12  13
HETATM   13  C   UNK N   1      25.791  15.932   2.854  0.00  0.00     0.000 C 
BRANCH  13  14
HETATM   14  C   UNK N   1      26.337  16.067   4.266  0.00  0.00     0.000 C 
BRANCH  14  15
HETATM   15  C   UNK N   1      27.826  15.757   4.286  0.00  0.00     0.000 C 
BRANCH  15  16
HETATM   16  C   UNK N   1      28.602  16.762   3.452  0.00  0.00     0.000 C 
BRANCH  16  17
HETATM   17  C   UNK N   1      29.931  17.100   4.106  0.00  0.00     0.000 C 
BRANCH  17  18
HETATM   18  C   UNK N   1      30.672  15.828   4.467  0.00  0.00    -0.000 C 
BRANCH  18  19
HETATM   19  C   UNK N   1      32.059  15.834   3.851  0.00  0.00    -0.005 C 
HETATM   20  C   UNK N   1      32.513  17.264   3.653  0.00  0.00     0.005 C 
ENDBRANCH  18  19
ENDBRANCH  17  18
ENDBRANCH  16  17
ENDBRANCH  15  16
ENDBRANCH  14  15
ENDBRANCH  13  14
ENDBRANCH  12  13
ENDBRANCH  11  12
ENDBRANCH  10  11
ENDBRANCH   9  10
ENDBRANCH   8   9
ENDBRANCH   7   8
ENDBRANCH   6   7
ENDBRANCH   4   6
ENDBRANCH   3   4
ENDBRANCH   2   3
ENDBRANCH   1   2
BRANCH   1  21
HETATM   21  C   UNK N   1      19.844  16.012   8.690  0.00  0.00     0.213 C 
BRANCH  21  22
HETATM   22  O   UNK N   1      19.081  17.092   8.291  0.00  0.00    -0.319 OA
BRANCH  22  23
HETATM   23  C   UNK N   1      17.749  17.154   8.540  0.00  0.00     0.254 C 
HETATM   24  O   UNK N   1      16.938  16.795   7.699  0.00  0.00    -0.266 OA
HETATM   25  C   UNK N   1      17.264  17.649   9.858  0.00  0.00     0.126 C 
ENDBRANCH  22  23
ENDBRANCH  21  22
ENDBRANCH   1  21
BRANCH   1  26
HETATM   26  O   UNK N   1      21.034  16.492   6.678  0.00  0.00    -0.312 OA
BRANCH  26  27
HETATM   27  C   UNK N   1      21.763  17.553   6.260  0.00  0.00     0.259 C 
HETATM   28  O   UNK N   1      21.463  18.666   6.655  0.00  0.00    -0.265 OA
BRANCH  27  29
HETATM   29  C   UNK N   1      22.916  17.354   5.299  0.00  0.00     0.111 C 
BRANCH  29  30
HETATM   30  C   UNK N   1      22.726  17.910   3.890  0.00  0.00     0.010 C 
BRANCH  30  31
HETATM   31  C   UNK N   1      23.333  19.289   3.678  0.00  0.00     0.000 C 
BRANCH  31  32
HETATM   32  C   UNK N   1      24.676  19.380   4.389  0.00  0.00     0.000 C 
BRANCH  32  33
HETATM   33  C   UNK N   1      25.858  19.668   3.461  0.00  0.00     0.000 C 
BRANCH  33  34
HETATM   34  C   UNK N   1      27.177  20.082   4.132  0.00  0.00     0.004 C 
BRANCH  34  35
HETATM   35  C   UNK N   1      27.058  20.846   5.450  0.00  0.00     0.027 C 
BRANCH  35  36
HETATM   36  C   UNK N   1      27.443  20.033   6.638  0.00  0.00    -0.030 C 
HETATM   37  C   UNK N   1      27.819  18.769   6.470  0.00  0.00    -0.027 C 
BRANCH  37  38
HETATM   38  C   UNK N   1      28.203  17.945   7.654  0.00  0.00     0.053 C 
BRANCH  38  39
HETATM   39  C   UNK N   1      29.101  18.719   8.575  0.00  0.00    -0.027 C 
HETATM   40  C   UNK N   1      30.341  18.326   8.894  0.00  0.00    -0.030 C 
BRANCH  40  41
HETATM   41  C   UNK N   1      30.955  17.074   8.351  0.00  0.00     0.027 C 
BRANCH  41  42
HETATM   42  C   UNK N   1      32.120  17.437   7.449  0.00  0.00     0.004 C 
BRANCH  42  43
HETATM   43  C   UNK N   1      33.381  16.714   7.885  0.00  0.00    -0.000 C 
BRANCH  43  44
HETATM   44  C   UNK N   1      34.318  16.530   6.707  0.00  0.00    -0.005 C 
HETATM   45  C   UNK N   1      35.144  15.279   6.914  0.00  0.00     0.005 C 
ENDBRANCH  43  44
ENDBRANCH  42  43
ENDBRANCH  41  42
ENDBRANCH  40  41
ENDBRANCH  38  39
ENDBRANCH  37  38
ENDBRANCH  35  36
ENDBRANCH  34  35
ENDBRANCH  33  34
ENDBRANCH  32  33
ENDBRANCH  31  32
ENDBRANCH  30  31
ENDBRANCH  29  30
ENDBRANCH  27  29
ENDBRANCH  26  27
ENDBRANCH   1  26
TORSDOF 36
ENDMDL
