REMARK  5 active torsions:
REMARK  status: ('A' for Active; 'I' for Inactive)
REMARK    1  A    between atoms: C_2  and  O_3 
REMARK    2  A    between atoms: C_2  and  C_4 
REMARK    3  A    between atoms: C_8  and  C_11 
REMARK    4  A    between atoms: C_24  and  N_23 
REMARK    5  A    between atoms: C_27  and  O_30 
ROOT
HETATM    1  C   UNK N   1      -1.039  -0.551   0.161  0.00  0.00     0.061 A 
HETATM    2  N   UNK N   1       0.175  -1.147   0.077  0.00  0.00    -0.337 N 
ATOM      3  HN  UNK N   1       0.227  -2.164   0.131  1.00  0.00     0.167 HD
HETATM    4  C   UNK N   1       1.324  -0.442  -0.076  0.00  0.00     0.155 A 
HETATM    5  C   UNK N   1       1.251   0.950  -0.133  0.00  0.00     0.146 A 
HETATM    6  N   UNK N   1       0.042   1.567  -0.019  0.00  0.00    -0.347 N 
ATOM      7  HN  UNK N   1      -0.005   2.586  -0.038  1.00  0.00     0.167 HD
HETATM    8  C   UNK N   1      -1.107   0.847   0.119  0.00  0.00     0.120 A 
HETATM    9  N   UNK N   1       2.421   1.712  -0.325  0.00  0.00    -0.364 N 
HETATM   10  C   UNK N   1       3.719   1.105  -0.521  0.00  0.00     0.224 A 
HETATM   11  C   UNK N   1       3.725  -0.407  -0.429  0.00  0.00     0.243 A 
HETATM   12  O   UNK N   1       4.801  -0.967  -0.561  0.00  0.00    -0.271 OA
HETATM   13  N   UNK N   1       2.573  -1.129  -0.203  0.00  0.00    -0.294 N 
HETATM   14  H   UNK N   1       2.352   2.694  -0.327  0.00  0.00     0.161 HD
ENDROOT
BRANCH   1  15
HETATM   15  C   UNK N   1      -2.243  -1.403   0.202  0.00  0.00     0.007 A 
HETATM   16  C   UNK N   1      -3.537  -0.868   0.187  0.00  0.00     0.102 A 
HETATM   17  N   UNK N   1      -4.618  -1.696   0.143  0.00  0.00    -0.366 N 
HETATM   18  C   UNK N   1      -4.483  -3.056   0.105  0.00  0.00     0.043 A 
ATOM     19  HN  UNK N   1      -5.554  -1.290   0.137  1.00  0.00     0.165 HD
HETATM   20  C   UNK N   1      -3.205  -3.621   0.134  0.00  0.00     0.029 A 
HETATM   21  C   UNK N   1      -2.091  -2.793   0.179  0.00  0.00     0.017 A 
BRANCH  18  22
HETATM   22  C   UNK N   1      -5.690  -3.959   0.024  0.00  0.00     0.092 C 
HETATM   23  C   UNK N   1      -5.625  -4.790  -1.246  0.00  0.00     0.052 C 
HETATM   24  C   UNK N   1      -6.991  -3.173   0.006  0.00  0.00     0.052 C 
BRANCH  22  25
HETATM   25  O   UNK N   1      -5.702  -4.816   1.125  0.00  0.00    -0.384 OA
HETATM   26  H   UNK N   1      -6.222  -5.107   1.890  0.00  0.00     0.211 HD
ENDBRANCH  22  25
ENDBRANCH  18  22
ENDBRANCH   1  15
BRANCH  13  27
HETATM   27  C   UNK N   1       2.549  -2.595  -0.035  0.00  0.00     0.095 C 
HETATM   28  C   UNK N   1       3.878  -3.348   0.037  0.00  0.00     0.028 C 
HETATM   29  C   UNK N   1       3.615  -4.756   0.569  0.00  0.00     0.034 C 
HETATM   30  C   UNK N   1       2.592  -5.508  -0.290  0.00  0.00     0.120 C 
HETATM   31  C   UNK N   1       1.316  -4.689  -0.502  0.00  0.00     0.034 C 
HETATM   32  C   UNK N   1       1.644  -3.301  -1.045  0.00  0.00     0.028 C 
BRANCH  30  33
HETATM   33  O   UNK N   1       2.263  -6.711   0.340  0.00  0.00    -0.391 OA
HETATM   34  C   UNK N   1       2.764  -7.711  -0.493  0.00  0.00     0.202 C 
ENDBRANCH  30  33
ENDBRANCH  13  27
TORSDOF 5
