MODEL 1
REMARK VINA RESULT:      -7.6      0.000      0.000
REMARK  12 active torsions:
REMARK  status: ('A' for Active; 'I' for Inactive)
REMARK    1  A    between atoms: C_1  and  O_32 
REMARK    2  A    between atoms: C_2  and  O_10 
REMARK    3  A    between atoms: C_4  and  C_5 
REMARK    4  A    between atoms: C_5  and  O_6 
REMARK    5  A    between atoms: C_7  and  O_33 
REMARK    6  A    between atoms: C_8  and  O_9 
REMARK    7  A    between atoms: O_10  and  C_11 
REMARK    8  A    between atoms: C_15  and  C_16 
REMARK    9  A    between atoms: C_19  and  O_20 
REMARK   10  A    between atoms: C_22  and  O_28 
REMARK   11  A    between atoms: C_26  and  O_27 
REMARK   12  A    between atoms: C_30  and  O_31 
ROOT
HETATM    1  C   UNK N   1      22.664  16.597   4.989  0.00  0.00     0.157 A 
HETATM    2  C   UNK N   1      22.754  15.724   6.104  0.00  0.00     0.223 A 
HETATM    3  O   UNK N   1      23.749  15.048   6.286  0.00  0.00    -0.284 OA
HETATM    4  O   UNK N   1      20.466  17.198   5.690  0.00  0.00    -0.306 OA
HETATM    5  C   UNK N   1      21.455  17.323   4.806  0.00  0.00     0.124 A 
HETATM    6  C   UNK N   1      20.630  14.787   9.039  0.00  0.00     0.074 A 
HETATM    7  C   UNK N   1      21.721  14.814   8.167  0.00  0.00     0.085 A 
HETATM    8  C   UNK N   1      21.685  15.640   7.012  0.00  0.00     0.084 A 
HETATM    9  C   UNK N   1      20.535  16.419   6.763  0.00  0.00     0.096 A 
HETATM   10  C   UNK N   1      19.453  16.375   7.647  0.00  0.00     0.075 A 
HETATM   11  C   UNK N   1      19.501  15.564   8.782  0.00  0.00     0.071 A 
ENDROOT
BRANCH   1  12
HETATM   12  O   UNK N   1      23.680  16.776   4.092  0.00  0.00    -0.311 OA
BRANCH  12  13
HETATM   13  C   UNK N   1      24.825  17.537   4.211  0.00  0.00     0.298 C 
HETATM   14  C   UNK N   1      26.069  16.686   3.926  0.00  0.00     0.205 C 
HETATM   15  C   UNK N   1      27.305  17.562   4.183  0.00  0.00     0.183 C 
HETATM   16  C   UNK N   1      27.181  18.943   3.516  0.00  0.00     0.180 C 
HETATM   17  C   UNK N   1      25.779  19.488   3.811  0.00  0.00     0.179 C 
HETATM   18  O   UNK N   1      24.839  18.591   3.286  0.00  0.00    -0.348 OA
BRANCH  14  19
HETATM   19  O   UNK N   1      26.104  15.564   4.753  0.00  0.00    -0.388 OA
HETATM   20  H   UNK N   1      26.599  14.730   4.724  0.00  0.00     0.210 HD
ENDBRANCH  14  19
BRANCH  15  21
HETATM   21  O   UNK N   1      28.460  16.915   3.743  0.00  0.00    -0.390 OA
HETATM   22  H   UNK N   1      28.641  15.986   3.953  0.00  0.00     0.210 HD
ENDBRANCH  15  21
BRANCH  16  23
HETATM   23  O   UNK N   1      28.158  19.795   4.034  0.00  0.00    -0.390 OA
HETATM   24  H   UNK N   1      28.129  20.764   4.017  0.00  0.00     0.210 HD
ENDBRANCH  16  23
BRANCH  17  25
HETATM   25  C   UNK N   1      25.536  20.877   3.254  0.00  0.00     0.198 C 
BRANCH  25  26
HETATM   26  O   UNK N   1      24.830  20.774   2.056  0.00  0.00    -0.398 OA
HETATM   27  H   UNK N   1      24.817  21.170   1.170  0.00  0.00     0.209 HD
ENDBRANCH  25  26
ENDBRANCH  17  25
ENDBRANCH  12  13
ENDBRANCH   1  12
BRANCH   5  28
HETATM   28  C   UNK N   1      21.225  18.211   3.626  0.00  0.00     0.004 A 
HETATM   29  C   UNK N   1      20.625  17.680   2.472  0.00  0.00     0.017 A 
HETATM   30  C   UNK N   1      20.435  18.476   1.338  0.00  0.00     0.040 A 
HETATM   31  C   UNK N   1      20.845  19.812   1.340  0.00  0.00     0.098 A 
HETATM   32  C   UNK N   1      21.443  20.354   2.483  0.00  0.00     0.099 A 
HETATM   33  C   UNK N   1      21.631  19.557   3.612  0.00  0.00     0.053 A 
BRANCH  31  34
HETATM   34  O   UNK N   1      20.665  20.570   0.244  0.00  0.00    -0.358 OA
HETATM   35  H   UNK N   1      20.417  20.170  -0.566  0.00  0.00     0.217 HD
ENDBRANCH  31  34
BRANCH  32  36
HETATM   36  O   UNK N   1      21.843  21.637   2.500  0.00  0.00    -0.358 OA
HETATM   37  H   UNK N   1      22.357  21.958   3.215  0.00  0.00     0.217 HD
ENDBRANCH  32  36
ENDBRANCH   5  28
BRANCH   7  38
HETATM   38  O   UNK N   1      22.794  14.054   8.453  0.00  0.00    -0.360 OA
HETATM   39  H   UNK N   1      23.351  13.748   7.765  0.00  0.00     0.217 HD
ENDBRANCH   7  38
BRANCH  11  40
HETATM   40  O   UNK N   1      18.462  15.533   9.630  0.00  0.00    -0.361 OA
HETATM   41  H   UNK N   1      17.933  14.762   9.697  0.00  0.00     0.217 HD
ENDBRANCH  11  40
TORSDOF 12
ENDMDL
MODEL 2
REMARK VINA RESULT:      -7.2      2.009      5.713
REMARK  12 active torsions:
REMARK  status: ('A' for Active; 'I' for Inactive)
REMARK    1  A    between atoms: C_1  and  O_32 
REMARK    2  A    between atoms: C_2  and  O_10 
REMARK    3  A    between atoms: C_4  and  C_5 
REMARK    4  A    between atoms: C_5  and  O_6 
REMARK    5  A    between atoms: C_7  and  O_33 
REMARK    6  A    between atoms: C_8  and  O_9 
REMARK    7  A    between atoms: O_10  and  C_11 
REMARK    8  A    between atoms: C_15  and  C_16 
REMARK    9  A    between atoms: C_19  and  O_20 
REMARK   10  A    between atoms: C_22  and  O_28 
REMARK   11  A    between atoms: C_26  and  O_27 
REMARK   12  A    between atoms: C_30  and  O_31 
ROOT
HETATM    1  C   UNK N   1      21.981  16.191   6.367  0.00  0.00     0.157 A 
HETATM    2  C   UNK N   1      21.017  15.945   7.379  0.00  0.00     0.223 A 
HETATM    3  O   UNK N   1      20.026  16.644   7.477  0.00  0.00    -0.284 OA
HETATM    4  O   UNK N   1      23.276  14.380   7.220  0.00  0.00    -0.306 OA
HETATM    5  C   UNK N   1      23.141  15.369   6.337  0.00  0.00     0.124 A 
HETATM    6  C   UNK N   1      20.505  13.477  10.145  0.00  0.00     0.074 A 
HETATM    7  C   UNK N   1      20.266  14.557   9.292  0.00  0.00     0.085 A 
HETATM    8  C   UNK N   1      21.206  14.881   8.278  0.00  0.00     0.084 A 
HETATM    9  C   UNK N   1      22.375  14.102   8.154  0.00  0.00     0.096 A 
HETATM   10  C   UNK N   1      22.597  13.027   9.019  0.00  0.00     0.075 A 
HETATM   11  C   UNK N   1      21.664  12.713  10.009  0.00  0.00     0.071 A 
ENDROOT
BRANCH   1  12
HETATM   12  O   UNK N   1      21.845  17.170   5.423  0.00  0.00    -0.311 OA
BRANCH  12  13
HETATM   13  C   UNK N   1      20.983  17.230   4.346  0.00  0.00     0.298 C 
HETATM   14  C   UNK N   1      21.102  18.584   3.636  0.00  0.00     0.205 C 
HETATM   15  C   UNK N   1      20.044  18.623   2.523  0.00  0.00     0.183 C 
HETATM   16  C   UNK N   1      20.049  17.339   1.676  0.00  0.00     0.180 C 
HETATM   17  C   UNK N   1      20.113  16.142   2.632  0.00  0.00     0.179 C 
HETATM   18  O   UNK N   1      21.286  16.248   3.392  0.00  0.00    -0.348 OA
BRANCH  14  19
HETATM   19  O   UNK N   1      20.889  19.634   4.529  0.00  0.00    -0.388 OA
HETATM   20  H   UNK N   1      21.382  19.967   5.295  0.00  0.00     0.210 HD
ENDBRANCH  14  19
BRANCH  15  21
HETATM   21  O   UNK N   1      20.237  19.739   1.708  0.00  0.00    -0.390 OA
HETATM   22  H   UNK N   1      19.560  20.426   1.605  0.00  0.00     0.210 HD
ENDBRANCH  15  21
BRANCH  16  23
HETATM   23  O   UNK N   1      18.887  17.289   0.906  0.00  0.00    -0.390 OA
HETATM   24  H   UNK N   1      18.851  17.200  -0.060  0.00  0.00     0.210 HD
ENDBRANCH  16  23
BRANCH  17  25
HETATM   25  C   UNK N   1      20.071  14.799   1.930  0.00  0.00     0.198 C 
BRANCH  25  26
HETATM   26  O   UNK N   1      18.744  14.392   1.796  0.00  0.00    -0.398 OA
HETATM   27  H   UNK N   1      18.003  14.096   2.347  0.00  0.00     0.209 HD
ENDBRANCH  25  26
ENDBRANCH  17  25
ENDBRANCH  12  13
ENDBRANCH   1  12
BRANCH   5  28
HETATM   28  C   UNK N   1      24.253  15.588   5.362  0.00  0.00     0.004 A 
HETATM   29  C   UNK N   1      24.304  14.813   4.192  0.00  0.00     0.017 A 
HETATM   30  C   UNK N   1      25.357  14.966   3.283  0.00  0.00     0.040 A 
HETATM   31  C   UNK N   1      26.372  15.894   3.532  0.00  0.00     0.098 A 
HETATM   32  C   UNK N   1      26.332  16.673   4.693  0.00  0.00     0.099 A 
HETATM   33  C   UNK N   1      25.282  16.517   5.598  0.00  0.00     0.053 A 
BRANCH  31  34
HETATM   34  O   UNK N   1      27.382  16.032   2.656  0.00  0.00    -0.358 OA
HETATM   35  H   UNK N   1      28.012  16.716   2.771  0.00  0.00     0.217 HD
ENDBRANCH  31  34
BRANCH  32  36
HETATM   36  O   UNK N   1      27.301  17.569   4.946  0.00  0.00    -0.358 OA
HETATM   37  H   UNK N   1      27.679  17.621   5.803  0.00  0.00     0.217 HD
ENDBRANCH  32  36
ENDBRANCH   5  28
BRANCH   7  38
HETATM   38  O   UNK N   1      19.133  15.265   9.452  0.00  0.00    -0.360 OA
HETATM   39  H   UNK N   1      18.317  14.824   9.581  0.00  0.00     0.217 HD
ENDBRANCH   7  38
BRANCH  11  40
HETATM   40  O   UNK N   1      21.880  11.675  10.831  0.00  0.00    -0.361 OA
HETATM   41  H   UNK N   1      21.888  11.805  11.759  0.00  0.00     0.217 HD
ENDBRANCH  11  40
TORSDOF 12
ENDMDL
MODEL 3
REMARK VINA RESULT:      -7.1      5.973     10.016
REMARK  12 active torsions:
REMARK  status: ('A' for Active; 'I' for Inactive)
REMARK    1  A    between atoms: C_1  and  O_32 
REMARK    2  A    between atoms: C_2  and  O_10 
REMARK    3  A    between atoms: C_4  and  C_5 
REMARK    4  A    between atoms: C_5  and  O_6 
REMARK    5  A    between atoms: C_7  and  O_33 
REMARK    6  A    between atoms: C_8  and  O_9 
REMARK    7  A    between atoms: O_10  and  C_11 
REMARK    8  A    between atoms: C_15  and  C_16 
REMARK    9  A    between atoms: C_19  and  O_20 
REMARK   10  A    between atoms: C_22  and  O_28 
REMARK   11  A    between atoms: C_26  and  O_27 
REMARK   12  A    between atoms: C_30  and  O_31 
ROOT
HETATM    1  C   UNK N   1      30.409  16.734   6.658  0.00  0.00     0.157 A 
HETATM    2  C   UNK N   1      29.450  17.507   7.362  0.00  0.00     0.223 A 
HETATM    3  O   UNK N   1      29.345  17.417   8.571  0.00  0.00    -0.284 OA
HETATM    4  O   UNK N   1      29.624  17.694   4.622  0.00  0.00    -0.306 OA
HETATM    5  C   UNK N   1      30.448  16.850   5.241  0.00  0.00     0.124 A 
HETATM    6  C   UNK N   1      26.865  20.087   6.549  0.00  0.00     0.074 A 
HETATM    7  C   UNK N   1      27.657  19.219   7.304  0.00  0.00     0.085 A 
HETATM    8  C   UNK N   1      28.613  18.391   6.659  0.00  0.00     0.084 A 
HETATM    9  C   UNK N   1      28.743  18.458   5.256  0.00  0.00     0.096 A 
HETATM   10  C   UNK N   1      27.939  19.332   4.519  0.00  0.00     0.075 A 
HETATM   11  C   UNK N   1      27.005  20.146   5.162  0.00  0.00     0.071 A 
ENDROOT
BRANCH   1  12
HETATM   12  O   UNK N   1      31.294  15.894   7.273  0.00  0.00    -0.311 OA
BRANCH  12  13
HETATM   13  C   UNK N   1      32.317  16.194   8.150  0.00  0.00     0.298 C 
HETATM   14  C   UNK N   1      32.978  14.910   8.667  0.00  0.00     0.205 C 
HETATM   15  C   UNK N   1      34.026  15.312   9.716  0.00  0.00     0.183 C 
HETATM   16  C   UNK N   1      34.922  16.462   9.224  0.00  0.00     0.180 C 
HETATM   17  C   UNK N   1      34.020  17.529   8.593  0.00  0.00     0.179 C 
HETATM   18  O   UNK N   1      33.325  16.942   7.526  0.00  0.00    -0.348 OA
BRANCH  14  19
HETATM   19  O   UNK N   1      32.033  14.061   9.243  0.00  0.00    -0.388 OA
HETATM   20  H   UNK N   1      31.778  13.873  10.159  0.00  0.00     0.210 HD
ENDBRANCH  14  19
BRANCH  15  21
HETATM   21  O   UNK N   1      34.806  14.211  10.071  0.00  0.00    -0.390 OA
HETATM   22  H   UNK N   1      35.759  14.285  10.229  0.00  0.00     0.210 HD
ENDBRANCH  15  21
BRANCH  16  23
HETATM   23  O   UNK N   1      35.626  16.993  10.306  0.00  0.00    -0.390 OA
HETATM   24  H   UNK N   1      35.247  17.232  11.165  0.00  0.00     0.210 HD
ENDBRANCH  16  23
BRANCH  17  25
HETATM   25  C   UNK N   1      34.771  18.753   8.109  0.00  0.00     0.198 C 
BRANCH  25  26
HETATM   26  O   UNK N   1      35.652  19.175   9.104  0.00  0.00    -0.398 OA
HETATM   27  H   UNK N   1      35.926  18.926  10.001  0.00  0.00     0.209 HD
ENDBRANCH  25  26
ENDBRANCH  17  25
ENDBRANCH  12  13
ENDBRANCH   1  12
BRANCH   5  28
HETATM   28  C   UNK N   1      31.365  16.027   4.395  0.00  0.00     0.004 A 
HETATM   29  C   UNK N   1      32.589  16.574   3.975  0.00  0.00     0.017 A 
HETATM   30  C   UNK N   1      33.448  15.843   3.148  0.00  0.00     0.040 A 
HETATM   31  C   UNK N   1      33.095  14.558   2.727  0.00  0.00     0.098 A 
HETATM   32  C   UNK N   1      31.880  14.001   3.139  0.00  0.00     0.099 A 
HETATM   33  C   UNK N   1      31.025  14.732   3.964  0.00  0.00     0.053 A 
BRANCH  31  34
HETATM   34  O   UNK N   1      33.924  13.864   1.928  0.00  0.00    -0.358 OA
HETATM   35  H   UNK N   1      33.624  13.082   1.508  0.00  0.00     0.217 HD
ENDBRANCH  31  34
BRANCH  32  36
HETATM   36  O   UNK N   1      31.527  12.766   2.743  0.00  0.00    -0.358 OA
HETATM   37  H   UNK N   1      30.659  12.606   2.425  0.00  0.00     0.217 HD
ENDBRANCH  32  36
ENDBRANCH   5  28
BRANCH   7  38
HETATM   38  O   UNK N   1      27.495  19.197   8.639  0.00  0.00    -0.360 OA
HETATM   39  H   UNK N   1      26.988  19.861   9.063  0.00  0.00     0.217 HD
ENDBRANCH   7  38
BRANCH  11  40
HETATM   40  O   UNK N   1      26.243  20.988   4.448  0.00  0.00    -0.361 OA
HETATM   41  H   UNK N   1      26.641  21.585   3.845  0.00  0.00     0.217 HD
ENDBRANCH  11  40
TORSDOF 12
ENDMDL
MODEL 4
REMARK VINA RESULT:      -7.0      2.179      7.482
REMARK  12 active torsions:
REMARK  status: ('A' for Active; 'I' for Inactive)
REMARK    1  A    between atoms: C_1  and  O_32 
REMARK    2  A    between atoms: C_2  and  O_10 
REMARK    3  A    between atoms: C_4  and  C_5 
REMARK    4  A    between atoms: C_5  and  O_6 
REMARK    5  A    between atoms: C_7  and  O_33 
REMARK    6  A    between atoms: C_8  and  O_9 
REMARK    7  A    between atoms: O_10  and  C_11 
REMARK    8  A    between atoms: C_15  and  C_16 
REMARK    9  A    between atoms: C_19  and  O_20 
REMARK   10  A    between atoms: C_22  and  O_28 
REMARK   11  A    between atoms: C_26  and  O_27 
REMARK   12  A    between atoms: C_30  and  O_31 
ROOT
HETATM    1  C   UNK N   1      22.253  18.462   4.309  0.00  0.00     0.157 A 
HETATM    2  C   UNK N   1      23.034  19.330   3.504  0.00  0.00     0.223 A 
HETATM    3  O   UNK N   1      22.529  19.953   2.589  0.00  0.00    -0.284 OA
HETATM    4  O   UNK N   1      24.220  17.892   5.530  0.00  0.00    -0.306 OA
HETATM    5  C   UNK N   1      22.912  17.725   5.331  0.00  0.00     0.124 A 
HETATM    6  C   UNK N   1      26.597  20.463   3.341  0.00  0.00     0.074 A 
HETATM    7  C   UNK N   1      25.242  20.352   3.022  0.00  0.00     0.085 A 
HETATM    8  C   UNK N   1      24.408  19.476   3.765  0.00  0.00     0.084 A 
HETATM    9  C   UNK N   1      24.970  18.724   4.818  0.00  0.00     0.096 A 
HETATM   10  C   UNK N   1      26.329  18.847   5.120  0.00  0.00     0.075 A 
HETATM   11  C   UNK N   1      27.140  19.715   4.386  0.00  0.00     0.071 A 
ENDROOT
BRANCH   1  12
HETATM   12  O   UNK N   1      20.904  18.306   4.155  0.00  0.00    -0.311 OA
BRANCH  12  13
HETATM   13  C   UNK N   1      20.214  17.428   3.343  0.00  0.00     0.298 C 
HETATM   14  C   UNK N   1      20.395  17.802   1.867  0.00  0.00     0.205 C 
HETATM   15  C   UNK N   1      19.518  16.857   1.032  0.00  0.00     0.183 C 
HETATM   16  C   UNK N   1      19.693  15.388   1.451  0.00  0.00     0.180 C 
HETATM   17  C   UNK N   1      19.650  15.323   2.983  0.00  0.00     0.179 C 
HETATM   18  O   UNK N   1      20.690  16.117   3.486  0.00  0.00    -0.348 OA
BRANCH  14  19
HETATM   19  O   UNK N   1      20.016  19.125   1.639  0.00  0.00    -0.388 OA
HETATM   20  H   UNK N   1      20.509  19.957   1.571  0.00  0.00     0.210 HD
ENDBRANCH  14  19
BRANCH  15  21
HETATM   21  O   UNK N   1      19.796  17.008  -0.327  0.00  0.00    -0.390 OA
HETATM   22  H   UNK N   1      20.322  17.749  -0.666  0.00  0.00     0.210 HD
ENDBRANCH  15  21
BRANCH  16  23
HETATM   23  O   UNK N   1      18.664  14.624   0.899  0.00  0.00    -0.390 OA
HETATM   24  H   UNK N   1      18.778  13.835   0.347  0.00  0.00     0.210 HD
ENDBRANCH  16  23
BRANCH  17  25
HETATM   25  C   UNK N   1      19.758  13.917   3.537  0.00  0.00     0.198 C 
BRANCH  25  26
HETATM   26  O   UNK N   1      18.491  13.335   3.566  0.00  0.00    -0.398 OA
HETATM   27  H   UNK N   1      17.689  13.286   3.022  0.00  0.00     0.209 HD
ENDBRANCH  25  26
ENDBRANCH  17  25
ENDBRANCH  12  13
ENDBRANCH   1  12
BRANCH   5  28
HETATM   28  C   UNK N   1      22.200  16.728   6.187  0.00  0.00     0.004 A 
HETATM   29  C   UNK N   1      22.610  15.385   6.164  0.00  0.00     0.017 A 
HETATM   30  C   UNK N   1      21.936  14.422   6.922  0.00  0.00     0.040 A 
HETATM   31  C   UNK N   1      20.841  14.788   7.710  0.00  0.00     0.098 A 
HETATM   32  C   UNK N   1      20.423  16.123   7.743  0.00  0.00     0.099 A 
HETATM   33  C   UNK N   1      21.098  17.080   6.986  0.00  0.00     0.053 A 
BRANCH  31  34
HETATM   34  O   UNK N   1      20.195  13.856   8.431  0.00  0.00    -0.358 OA
HETATM   35  H   UNK N   1      19.263  13.893   8.517  0.00  0.00     0.217 HD
ENDBRANCH  31  34
BRANCH  32  36
HETATM   36  O   UNK N   1      19.372  16.489   8.496  0.00  0.00    -0.358 OA
HETATM   37  H   UNK N   1      19.491  17.087   9.207  0.00  0.00     0.217 HD
ENDBRANCH  32  36
ENDBRANCH   5  28
BRANCH   7  38
HETATM   38  O   UNK N   1      24.756  21.095   2.010  0.00  0.00    -0.360 OA
HETATM   39  H   UNK N   1      23.952  21.563   2.114  0.00  0.00     0.217 HD
ENDBRANCH   7  38
BRANCH  11  40
HETATM   40  O   UNK N   1      28.442  19.834   4.687  0.00  0.00    -0.361 OA
HETATM   41  H   UNK N   1      28.737  20.548   5.218  0.00  0.00     0.217 HD
ENDBRANCH  11  40
TORSDOF 12
ENDMDL
MODEL 5
REMARK VINA RESULT:      -6.8      5.983      8.109
REMARK  12 active torsions:
REMARK  status: ('A' for Active; 'I' for Inactive)
REMARK    1  A    between atoms: C_1  and  O_32 
REMARK    2  A    between atoms: C_2  and  O_10 
REMARK    3  A    between atoms: C_4  and  C_5 
REMARK    4  A    between atoms: C_5  and  O_6 
REMARK    5  A    between atoms: C_7  and  O_33 
REMARK    6  A    between atoms: C_8  and  O_9 
REMARK    7  A    between atoms: O_10  and  C_11 
REMARK    8  A    between atoms: C_15  and  C_16 
REMARK    9  A    between atoms: C_19  and  O_20 
REMARK   10  A    between atoms: C_22  and  O_28 
REMARK   11  A    between atoms: C_26  and  O_27 
REMARK   12  A    between atoms: C_30  and  O_31 
ROOT
HETATM    1  C   UNK N   1      29.634  16.302   4.006  0.00  0.00     0.157 A 
HETATM    2  C   UNK N   1      29.880  15.106   3.284  0.00  0.00     0.223 A 
HETATM    3  O   UNK N   1      31.018  14.737   3.063  0.00  0.00    -0.284 OA
HETATM    4  O   UNK N   1      27.294  15.944   3.718  0.00  0.00    -0.306 OA
HETATM    5  C   UNK N   1      28.282  16.705   4.188  0.00  0.00     0.124 A 
HETATM    6  C   UNK N   1      27.858  12.386   1.699  0.00  0.00     0.074 A 
HETATM    7  C   UNK N   1      28.974  13.112   2.121  0.00  0.00     0.085 A 
HETATM    8  C   UNK N   1      28.800  14.336   2.820  0.00  0.00     0.084 A 
HETATM    9  C   UNK N   1      27.493  14.802   3.071  0.00  0.00     0.096 A 
HETATM   10  C   UNK N   1      26.389  14.061   2.638  0.00  0.00     0.075 A 
HETATM   11  C   UNK N   1      26.571  12.856   1.956  0.00  0.00     0.071 A 
ENDROOT
BRANCH   1  12
HETATM   12  O   UNK N   1      30.627  17.077   4.537  0.00  0.00    -0.311 OA
BRANCH  12  13
HETATM   13  C   UNK N   1      31.306  16.929   5.729  0.00  0.00     0.298 C 
HETATM   14  C   UNK N   1      32.713  17.531   5.626  0.00  0.00     0.205 C 
HETATM   15  C   UNK N   1      33.447  17.234   6.942  0.00  0.00     0.183 C 
HETATM   16  C   UNK N   1      32.586  17.570   8.171  0.00  0.00     0.180 C 
HETATM   17  C   UNK N   1      31.180  17.006   7.933  0.00  0.00     0.179 C 
HETATM   18  O   UNK N   1      30.658  17.601   6.775  0.00  0.00    -0.348 OA
BRANCH  14  19
HETATM   19  O   UNK N   1      33.415  16.974   4.556  0.00  0.00    -0.388 OA
HETATM   20  H   UNK N   1      33.328  16.144   4.063  0.00  0.00     0.210 HD
ENDBRANCH  14  19
BRANCH  15  21
HETATM   21  O   UNK N   1      34.655  17.932   6.994  0.00  0.00    -0.390 OA
HETATM   22  H   UNK N   1      35.132  18.195   6.192  0.00  0.00     0.210 HD
ENDBRANCH  15  21
BRANCH  16  23
HETATM   23  O   UNK N   1      33.158  16.996   9.307  0.00  0.00    -0.390 OA
HETATM   24  H   UNK N   1      32.672  16.598  10.046  0.00  0.00     0.210 HD
ENDBRANCH  16  23
BRANCH  17  25
HETATM   25  C   UNK N   1      30.232  17.220   9.096  0.00  0.00     0.198 C 
BRANCH  25  26
HETATM   26  O   UNK N   1      30.326  18.543   9.528  0.00  0.00    -0.398 OA
HETATM   27  H   UNK N   1      30.572  19.416   9.184  0.00  0.00     0.209 HD
ENDBRANCH  25  26
ENDBRANCH  17  25
ENDBRANCH  12  13
ENDBRANCH   1  12
BRANCH   5  28
HETATM   28  C   UNK N   1      27.911  17.984   4.867  0.00  0.00     0.004 A 
HETATM   29  C   UNK N   1      27.672  19.130   4.091  0.00  0.00     0.017 A 
HETATM   30  C   UNK N   1      27.365  20.351   4.701  0.00  0.00     0.040 A 
HETATM   31  C   UNK N   1      27.296  20.443   6.094  0.00  0.00     0.098 A 
HETATM   32  C   UNK N   1      27.531  19.309   6.878  0.00  0.00     0.099 A 
HETATM   33  C   UNK N   1      27.837  18.093   6.267  0.00  0.00     0.053 A 
BRANCH  31  34
HETATM   34  O   UNK N   1      27.006  21.621   6.673  0.00  0.00    -0.358 OA
HETATM   35  H   UNK N   1      26.674  21.644   7.548  0.00  0.00     0.217 HD
ENDBRANCH  31  34
BRANCH  32  36
HETATM   36  O   UNK N   1      27.469  19.383   8.219  0.00  0.00    -0.358 OA
HETATM   37  H   UNK N   1      27.740  20.165   8.658  0.00  0.00     0.217 HD
ENDBRANCH  32  36
ENDBRANCH   5  28
BRANCH   7  38
HETATM   38  O   UNK N   1      30.199  12.622   1.857  0.00  0.00    -0.360 OA
HETATM   39  H   UNK N   1      30.342  11.696   1.843  0.00  0.00     0.217 HD
ENDBRANCH   7  38
BRANCH  11  40
HETATM   40  O   UNK N   1      25.506  12.147   1.551  0.00  0.00    -0.361 OA
HETATM   41  H   UNK N   1      25.153  11.475   2.100  0.00  0.00     0.217 HD
ENDBRANCH  11  40
TORSDOF 12
ENDMDL
MODEL 6
REMARK VINA RESULT:      -6.7      2.356      4.438
REMARK  12 active torsions:
REMARK  status: ('A' for Active; 'I' for Inactive)
REMARK    1  A    between atoms: C_1  and  O_32 
REMARK    2  A    between atoms: C_2  and  O_10 
REMARK    3  A    between atoms: C_4  and  C_5 
REMARK    4  A    between atoms: C_5  and  O_6 
REMARK    5  A    between atoms: C_7  and  O_33 
REMARK    6  A    between atoms: C_8  and  O_9 
REMARK    7  A    between atoms: O_10  and  C_11 
REMARK    8  A    between atoms: C_15  and  C_16 
REMARK    9  A    between atoms: C_19  and  O_20 
REMARK   10  A    between atoms: C_22  and  O_28 
REMARK   11  A    between atoms: C_26  and  O_27 
REMARK   12  A    between atoms: C_30  and  O_31 
ROOT
HETATM    1  C   UNK N   1      21.260  16.216   5.035  0.00  0.00     0.157 A 
HETATM    2  C   UNK N   1      20.876  16.414   6.386  0.00  0.00     0.223 A 
HETATM    3  O   UNK N   1      20.374  17.463   6.743  0.00  0.00    -0.284 OA
HETATM    4  O   UNK N   1      22.062  14.049   5.623  0.00  0.00    -0.306 OA
HETATM    5  C   UNK N   1      21.887  14.986   4.692  0.00  0.00     0.124 A 
HETATM    6  C   UNK N   1      20.895  14.439   9.565  0.00  0.00     0.074 A 
HETATM    7  C   UNK N   1      20.683  15.503   8.685  0.00  0.00     0.085 A 
HETATM    8  C   UNK N   1      21.075  15.386   7.325  0.00  0.00     0.084 A 
HETATM    9  C   UNK N   1      21.680  14.190   6.886  0.00  0.00     0.096 A 
HETATM   10  C   UNK N   1      21.885  13.138   7.784  0.00  0.00     0.075 A 
HETATM   11  C   UNK N   1      21.492  13.261   9.118  0.00  0.00     0.071 A 
ENDROOT
BRANCH   1  12
HETATM   12  O   UNK N   1      21.052  17.143   4.052  0.00  0.00    -0.311 OA
BRANCH  12  13
HETATM   13  C   UNK N   1      21.934  18.060   3.517  0.00  0.00     0.298 C 
HETATM   14  C   UNK N   1      21.257  19.426   3.352  0.00  0.00     0.205 C 
HETATM   15  C   UNK N   1      22.254  20.363   2.653  0.00  0.00     0.183 C 
HETATM   16  C   UNK N   1      23.650  20.300   3.296  0.00  0.00     0.180 C 
HETATM   17  C   UNK N   1      24.006  18.824   3.514  0.00  0.00     0.179 C 
HETATM   18  O   UNK N   1      23.039  18.259   4.357  0.00  0.00    -0.348 OA
BRANCH  14  19
HETATM   19  O   UNK N   1      20.095  19.316   2.586  0.00  0.00    -0.388 OA
HETATM   20  H   UNK N   1      19.932  19.161   1.643  0.00  0.00     0.210 HD
ENDBRANCH  14  19
BRANCH  15  21
HETATM   21  O   UNK N   1      21.778  21.674   2.661  0.00  0.00    -0.390 OA
HETATM   22  H   UNK N   1      22.368  22.436   2.767  0.00  0.00     0.210 HD
ENDBRANCH  15  21
BRANCH  16  23
HETATM   23  O   UNK N   1      24.577  20.908   2.448  0.00  0.00    -0.390 OA
HETATM   24  H   UNK N   1      25.198  20.445   1.864  0.00  0.00     0.210 HD
ENDBRANCH  16  23
BRANCH  17  25
HETATM   25  C   UNK N   1      25.389  18.611   4.097  0.00  0.00     0.198 C 
BRANCH  25  26
HETATM   26  O   UNK N   1      25.662  19.624   5.015  0.00  0.00    -0.398 OA
HETATM   27  H   UNK N   1      26.403  20.182   5.301  0.00  0.00     0.209 HD
ENDBRANCH  25  26
ENDBRANCH  17  25
ENDBRANCH  12  13
ENDBRANCH   1  12
BRANCH   5  28
HETATM   28  C   UNK N   1      22.398  14.704   3.316  0.00  0.00     0.004 A 
HETATM   29  C   UNK N   1      21.525  14.169   2.355  0.00  0.00     0.017 A 
HETATM   30  C   UNK N   1      21.986  13.855   1.072  0.00  0.00     0.040 A 
HETATM   31  C   UNK N   1      23.326  14.068   0.734  0.00  0.00     0.098 A 
HETATM   32  C   UNK N   1      24.205  14.601   1.682  0.00  0.00     0.099 A 
HETATM   33  C   UNK N   1      23.742  14.913   2.960  0.00  0.00     0.053 A 
BRANCH  31  34
HETATM   34  O   UNK N   1      23.762  13.759  -0.499  0.00  0.00    -0.358 OA
HETATM   35  H   UNK N   1      24.335  14.344  -0.954  0.00  0.00     0.217 HD
ENDBRANCH  31  34
BRANCH  32  36
HETATM   36  O   UNK N   1      25.496  14.812   1.372  0.00  0.00    -0.358 OA
HETATM   37  H   UNK N   1      26.124  14.126   1.492  0.00  0.00     0.217 HD
ENDBRANCH  32  36
ENDBRANCH   5  28
BRANCH   7  38
HETATM   38  O   UNK N   1      20.099  16.621   9.154  0.00  0.00    -0.360 OA
HETATM   39  H   UNK N   1      19.695  16.621   9.999  0.00  0.00     0.217 HD
ENDBRANCH   7  38
BRANCH  11  40
HETATM   40  O   UNK N   1      21.685  12.244   9.972  0.00  0.00    -0.361 OA
HETATM   41  H   UNK N   1      22.555  11.986  10.205  0.00  0.00     0.217 HD
ENDBRANCH  11  40
TORSDOF 12
ENDMDL
MODEL 7
REMARK VINA RESULT:      -6.7      6.913     11.192
REMARK  12 active torsions:
REMARK  status: ('A' for Active; 'I' for Inactive)
REMARK    1  A    between atoms: C_1  and  O_32 
REMARK    2  A    between atoms: C_2  and  O_10 
REMARK    3  A    between atoms: C_4  and  C_5 
REMARK    4  A    between atoms: C_5  and  O_6 
REMARK    5  A    between atoms: C_7  and  O_33 
REMARK    6  A    between atoms: C_8  and  O_9 
REMARK    7  A    between atoms: O_10  and  C_11 
REMARK    8  A    between atoms: C_15  and  C_16 
REMARK    9  A    between atoms: C_19  and  O_20 
REMARK   10  A    between atoms: C_22  and  O_28 
REMARK   11  A    between atoms: C_26  and  O_27 
REMARK   12  A    between atoms: C_30  and  O_31 
ROOT
HETATM    1  C   UNK N   1      33.080  16.275   7.375  0.00  0.00     0.157 A 
HETATM    2  C   UNK N   1      33.682  16.605   8.617  0.00  0.00     0.223 A 
HETATM    3  O   UNK N   1      33.702  17.755   9.013  0.00  0.00    -0.284 OA
HETATM    4  O   UNK N   1      33.703  14.001   7.725  0.00  0.00    -0.306 OA
HETATM    5  C   UNK N   1      33.133  14.920   6.947  0.00  0.00     0.124 A 
HETATM    6  C   UNK N   1      35.391  14.792  11.410  0.00  0.00     0.074 A 
HETATM    7  C   UNK N   1      34.847  15.845  10.671  0.00  0.00     0.085 A 
HETATM    8  C   UNK N   1      34.259  15.592   9.403  0.00  0.00     0.084 A 
HETATM    9  C   UNK N   1      34.240  14.272   8.908  0.00  0.00     0.096 A 
HETATM   10  C   UNK N   1      34.792  13.232   9.662  0.00  0.00     0.075 A 
HETATM   11  C   UNK N   1      35.363  13.491  10.910  0.00  0.00     0.071 A 
ENDROOT
BRANCH   1  12
HETATM   12  O   UNK N   1      32.451  17.191   6.580  0.00  0.00    -0.311 OA
BRANCH  12  13
HETATM   13  C   UNK N   1      31.129  17.588   6.583  0.00  0.00     0.298 C 
HETATM   14  C   UNK N   1      30.481  17.317   5.220  0.00  0.00     0.205 C 
HETATM   15  C   UNK N   1      29.053  17.881   5.259  0.00  0.00     0.183 C 
HETATM   16  C   UNK N   1      28.302  17.459   6.534  0.00  0.00     0.180 C 
HETATM   17  C   UNK N   1      29.242  17.667   7.728  0.00  0.00     0.179 C 
HETATM   18  O   UNK N   1      30.382  16.875   7.532  0.00  0.00    -0.348 OA
BRANCH  14  19
HETATM   19  O   UNK N   1      31.203  17.929   4.195  0.00  0.00    -0.388 OA
HETATM   20  H   UNK N   1      32.036  18.426   4.172  0.00  0.00     0.210 HD
ENDBRANCH  14  19
BRANCH  15  21
HETATM   21  O   UNK N   1      28.341  17.483   4.127  0.00  0.00    -0.390 OA
HETATM   22  H   UNK N   1      28.027  16.573   4.008  0.00  0.00     0.210 HD
ENDBRANCH  15  21
BRANCH  16  23
HETATM   23  O   UNK N   1      27.153  18.241   6.673  0.00  0.00    -0.390 OA
HETATM   24  H   UNK N   1      26.253  17.905   6.806  0.00  0.00     0.210 HD
ENDBRANCH  16  23
BRANCH  17  25
HETATM   25  C   UNK N   1      28.608  17.339   9.065  0.00  0.00     0.198 C 
BRANCH  25  26
HETATM   26  O   UNK N   1      27.607  18.269   9.340  0.00  0.00    -0.398 OA
HETATM   27  H   UNK N   1      27.145  18.653  10.102  0.00  0.00     0.209 HD
ENDBRANCH  25  26
ENDBRANCH  17  25
ENDBRANCH  12  13
ENDBRANCH   1  12
BRANCH   5  28
HETATM   28  C   UNK N   1      32.598  14.477   5.624  0.00  0.00     0.004 A 
HETATM   29  C   UNK N   1      31.370  13.798   5.571  0.00  0.00     0.017 A 
HETATM   30  C   UNK N   1      30.865  13.334   4.351  0.00  0.00     0.040 A 
HETATM   31  C   UNK N   1      31.583  13.539   3.170  0.00  0.00     0.098 A 
HETATM   32  C   UNK N   1      32.807  14.215   3.208  0.00  0.00     0.099 A 
HETATM   33  C   UNK N   1      33.307  14.676   4.426  0.00  0.00     0.053 A 
BRANCH  31  34
HETATM   34  O   UNK N   1      31.094  13.085   2.002  0.00  0.00    -0.358 OA
HETATM   35  H   UNK N   1      31.000  13.669   1.276  0.00  0.00     0.217 HD
ENDBRANCH  31  34
BRANCH  32  36
HETATM   36  O   UNK N   1      33.508  14.419   2.080  0.00  0.00    -0.358 OA
HETATM   37  H   UNK N   1      34.404  14.692   2.128  0.00  0.00     0.217 HD
ENDBRANCH  32  36
ENDBRANCH   5  28
BRANCH   7  38
HETATM   38  O   UNK N   1      34.888  17.086  11.191  0.00  0.00    -0.360 OA
HETATM   39  H   UNK N   1      35.708  17.527  11.292  0.00  0.00     0.217 HD
ENDBRANCH   7  38
BRANCH  11  40
HETATM   40  O   UNK N   1      35.884  12.487  11.631  0.00  0.00    -0.361 OA
HETATM   41  H   UNK N   1      35.401  11.692  11.748  0.00  0.00     0.217 HD
ENDBRANCH  11  40
TORSDOF 12
ENDMDL
MODEL 8
REMARK VINA RESULT:      -6.7      8.397     12.962
REMARK  12 active torsions:
REMARK  status: ('A' for Active; 'I' for Inactive)
REMARK    1  A    between atoms: C_1  and  O_32 
REMARK    2  A    between atoms: C_2  and  O_10 
REMARK    3  A    between atoms: C_4  and  C_5 
REMARK    4  A    between atoms: C_5  and  O_6 
REMARK    5  A    between atoms: C_7  and  O_33 
REMARK    6  A    between atoms: C_8  and  O_9 
REMARK    7  A    between atoms: O_10  and  C_11 
REMARK    8  A    between atoms: C_15  and  C_16 
REMARK    9  A    between atoms: C_19  and  O_20 
REMARK   10  A    between atoms: C_22  and  O_28 
REMARK   11  A    between atoms: C_26  and  O_27 
REMARK   12  A    between atoms: C_30  and  O_31 
ROOT
HETATM    1  C   UNK N   1      33.560  16.316   6.797  0.00  0.00     0.157 A 
HETATM    2  C   UNK N   1      32.721  16.701   5.720  0.00  0.00     0.223 A 
HETATM    3  O   UNK N   1      33.134  16.691   4.576  0.00  0.00    -0.284 OA
HETATM    4  O   UNK N   1      31.773  16.788   8.303  0.00  0.00    -0.306 OA
HETATM    5  C   UNK N   1      33.033  16.396   8.116  0.00  0.00     0.124 A 
HETATM    6  C   UNK N   1      29.183  17.829   5.261  0.00  0.00     0.074 A 
HETATM    7  C   UNK N   1      30.492  17.460   4.943  0.00  0.00     0.085 A 
HETATM    8  C   UNK N   1      31.396  17.096   5.975  0.00  0.00     0.084 A 
HETATM    9  C   UNK N   1      30.953  17.118   7.314  0.00  0.00     0.096 A 
HETATM   10  C   UNK N   1      29.639  17.493   7.611  0.00  0.00     0.075 A 
HETATM   11  C   UNK N   1      28.756  17.845   6.589  0.00  0.00     0.071 A 
ENDROOT
BRANCH   1  12
HETATM   12  O   UNK N   1      34.841  15.868   6.628  0.00  0.00    -0.311 OA
BRANCH  12  13
HETATM   13  C   UNK N   1      35.333  14.581   6.710  0.00  0.00     0.298 C 
HETATM   14  C   UNK N   1      35.972  14.163   5.380  0.00  0.00     0.205 C 
HETATM   15  C   UNK N   1      36.397  12.692   5.506  0.00  0.00     0.183 C 
HETATM   16  C   UNK N   1      37.163  12.424   6.813  0.00  0.00     0.180 C 
HETATM   17  C   UNK N   1      36.400  13.103   7.957  0.00  0.00     0.179 C 
HETATM   18  O   UNK N   1      36.334  14.477   7.687  0.00  0.00    -0.348 OA
BRANCH  14  19
HETATM   19  O   UNK N   1      35.067  14.306   4.327  0.00  0.00    -0.388 OA
HETATM   20  H   UNK N   1      34.348  14.931   4.147  0.00  0.00     0.210 HD
ENDBRANCH  14  19
BRANCH  15  21
HETATM   21  O   UNK N   1      37.169  12.313   4.408  0.00  0.00    -0.390 OA
HETATM   22  H   UNK N   1      37.090  11.437   4.000  0.00  0.00     0.210 HD
ENDBRANCH  15  21
BRANCH  16  23
HETATM   23  O   UNK N   1      37.242  11.047   7.027  0.00  0.00    -0.390 OA
HETATM   24  H   UNK N   1      37.990  10.579   7.431  0.00  0.00     0.210 HD
ENDBRANCH  16  23
BRANCH  17  25
HETATM   25  C   UNK N   1      37.019  12.874   9.322  0.00  0.00     0.198 C 
BRANCH  25  26
HETATM   26  O   UNK N   1      36.295  11.891   9.995  0.00  0.00    -0.398 OA
HETATM   27  H   UNK N   1      35.712  11.802  10.766  0.00  0.00     0.209 HD
ENDBRANCH  25  26
ENDBRANCH  17  25
ENDBRANCH  12  13
ENDBRANCH   1  12
BRANCH   5  28
HETATM   28  C   UNK N   1      33.853  16.087   9.326  0.00  0.00     0.004 A 
HETATM   29  C   UNK N   1      34.874  16.972   9.709  0.00  0.00     0.017 A 
HETATM   30  C   UNK N   1      35.686  16.687  10.813  0.00  0.00     0.040 A 
HETATM   31  C   UNK N   1      35.489  15.514  11.547  0.00  0.00     0.098 A 
HETATM   32  C   UNK N   1      34.474  14.624  11.176  0.00  0.00     0.099 A 
HETATM   33  C   UNK N   1      33.668  14.911  10.075  0.00  0.00     0.053 A 
BRANCH  31  34
HETATM   34  O   UNK N   1      36.276  15.245  12.603  0.00  0.00    -0.358 OA
HETATM   35  H   UNK N   1      37.079  14.778  12.481  0.00  0.00     0.217 HD
ENDBRANCH  31  34
BRANCH  32  36
HETATM   36  O   UNK N   1      34.274  13.492  11.872  0.00  0.00    -0.358 OA
HETATM   37  H   UNK N   1      34.901  12.797  11.827  0.00  0.00     0.217 HD
ENDBRANCH  32  36
ENDBRANCH   5  28
BRANCH   7  38
HETATM   38  O   UNK N   1      30.862  17.453   3.649  0.00  0.00    -0.360 OA
HETATM   39  H   UNK N   1      30.426  16.893   3.038  0.00  0.00     0.217 HD
ENDBRANCH   7  38
BRANCH  11  40
HETATM   40  O   UNK N   1      27.495  18.196   6.881  0.00  0.00    -0.361 OA
HETATM   41  H   UNK N   1      27.264  19.101   6.952  0.00  0.00     0.217 HD
ENDBRANCH  11  40
TORSDOF 12
ENDMDL
MODEL 9
REMARK VINA RESULT:      -6.7     12.610     14.966
REMARK  12 active torsions:
REMARK  status: ('A' for Active; 'I' for Inactive)
REMARK    1  A    between atoms: C_1  and  O_32 
REMARK    2  A    between atoms: C_2  and  O_10 
REMARK    3  A    between atoms: C_4  and  C_5 
REMARK    4  A    between atoms: C_5  and  O_6 
REMARK    5  A    between atoms: C_7  and  O_33 
REMARK    6  A    between atoms: C_8  and  O_9 
REMARK    7  A    between atoms: O_10  and  C_11 
REMARK    8  A    between atoms: C_15  and  C_16 
REMARK    9  A    between atoms: C_19  and  O_20 
REMARK   10  A    between atoms: C_22  and  O_28 
REMARK   11  A    between atoms: C_26  and  O_27 
REMARK   12  A    between atoms: C_30  and  O_31 
ROOT
HETATM    1  C   UNK N   1      27.997  24.166  -5.531  0.00  0.00     0.157 A 
HETATM    2  C   UNK N   1      28.598  22.893  -5.710  0.00  0.00     0.223 A 
HETATM    3  O   UNK N   1      28.254  22.165  -6.622  0.00  0.00    -0.284 OA
HETATM    4  O   UNK N   1      29.359  24.490  -3.601  0.00  0.00    -0.306 OA
HETATM    5  C   UNK N   1      28.408  24.947  -4.417  0.00  0.00     0.124 A 
HETATM    6  C   UNK N   1      31.273  20.861  -4.062  0.00  0.00     0.074 A 
HETATM    7  C   UNK N   1      30.271  21.220  -4.966  0.00  0.00     0.085 A 
HETATM    8  C   UNK N   1      29.604  22.466  -4.826  0.00  0.00     0.084 A 
HETATM    9  C   UNK N   1      29.965  23.321  -3.764  0.00  0.00     0.096 A 
HETATM   10  C   UNK N   1      30.969  22.942  -2.868  0.00  0.00     0.075 A 
HETATM   11  C   UNK N   1      31.623  21.717  -3.018  0.00  0.00     0.071 A 
ENDROOT
BRANCH   1  12
HETATM   12  O   UNK N   1      27.052  24.675  -6.377  0.00  0.00    -0.311 OA
BRANCH  12  13
HETATM   13  C   UNK N   1      27.098  24.821  -7.749  0.00  0.00     0.298 C 
HETATM   14  C   UNK N   1      25.689  24.720  -8.349  0.00  0.00     0.205 C 
HETATM   15  C   UNK N   1      25.825  24.779  -9.878  0.00  0.00     0.183 C 
HETATM   16  C   UNK N   1      26.743  25.928 -10.330  0.00  0.00     0.180 C 
HETATM   17  C   UNK N   1      27.998  25.907  -9.448  0.00  0.00     0.179 C 
HETATM   18  O   UNK N   1      27.601  26.078  -8.115  0.00  0.00    -0.348 OA
BRANCH  14  19
HETATM   19  O   UNK N   1      25.074  23.525  -7.974  0.00  0.00    -0.388 OA
HETATM   20  H   UNK N   1      24.148  23.261  -7.860  0.00  0.00     0.210 HD
ENDBRANCH  14  19
BRANCH  15  21
HETATM   21  O   UNK N   1      24.570  24.902 -10.473  0.00  0.00    -0.390 OA
HETATM   22  H   UNK N   1      24.458  25.249 -11.372  0.00  0.00     0.210 HD
ENDBRANCH  15  21
BRANCH  16  23
HETATM   23  O   UNK N   1      27.084  25.745 -11.671  0.00  0.00    -0.390 OA
HETATM   24  H   UNK N   1      27.976  25.570 -12.010  0.00  0.00     0.210 HD
ENDBRANCH  16  23
BRANCH  17  25
HETATM   25  C   UNK N   1      29.022  26.961  -9.822  0.00  0.00     0.198 C 
BRANCH  25  26
HETATM   26  O   UNK N   1      28.388  27.993 -10.512  0.00  0.00    -0.398 OA
HETATM   27  H   UNK N   1      28.040  28.884 -10.351  0.00  0.00     0.209 HD
ENDBRANCH  25  26
ENDBRANCH  17  25
ENDBRANCH  12  13
ENDBRANCH   1  12
BRANCH   5  28
HETATM   28  C   UNK N   1      27.788  26.267  -4.091  0.00  0.00     0.004 A 
HETATM   29  C   UNK N   1      26.521  26.302  -3.487  0.00  0.00     0.017 A 
HETATM   30  C   UNK N   1      25.898  27.523  -3.209  0.00  0.00     0.040 A 
HETATM   31  C   UNK N   1      26.531  28.726  -3.536  0.00  0.00     0.098 A 
HETATM   32  C   UNK N   1      27.794  28.705  -4.137  0.00  0.00     0.099 A 
HETATM   33  C   UNK N   1      28.412  27.486  -4.412  0.00  0.00     0.053 A 
BRANCH  31  34
HETATM   34  O   UNK N   1      25.923  29.895  -3.271  0.00  0.00    -0.358 OA
HETATM   35  H   UNK N   1      25.196  29.922  -2.682  0.00  0.00     0.217 HD
ENDBRANCH  31  34
BRANCH  32  36
HETATM   36  O   UNK N   1      28.415  29.854  -4.457  0.00  0.00    -0.358 OA
HETATM   37  H   UNK N   1      27.954  30.520  -4.929  0.00  0.00     0.217 HD
ENDBRANCH  32  36
ENDBRANCH   5  28
BRANCH   7  38
HETATM   38  O   UNK N   1      29.967  20.369  -5.962  0.00  0.00    -0.360 OA
HETATM   39  H   UNK N   1      29.396  19.644  -5.804  0.00  0.00     0.217 HD
ENDBRANCH   7  38
BRANCH  11  40
HETATM   40  O   UNK N   1      32.591  21.363  -2.159  0.00  0.00    -0.361 OA
HETATM   41  H   UNK N   1      32.380  21.172  -1.266  0.00  0.00     0.217 HD
ENDBRANCH  11  40
TORSDOF 12
ENDMDL
