MODEL 1
REMARK VINA RESULT:      -8.0      0.000      0.000
REMARK  0 active torsions:
REMARK  status: ('A' for Active; 'I' for Inactive)
ROOT
HETATM    1  C   UNK N   1      26.425  24.557  -6.182  0.00  0.00     0.312 C 
HETATM    2  N   UNK N   1      27.404  24.124  -5.183  0.00  0.00     0.114 N 
HETATM    3  C   UNK N   1      28.704  24.805  -5.414  0.00  0.00     0.295 C 
HETATM    4  C   UNK N   1      29.696  24.008  -4.589  0.00  0.00    -0.006 A 
HETATM    5  C   UNK N   1      30.939  23.636  -5.108  0.00  0.00     0.011 A 
HETATM    6  C   UNK N   1      31.792  22.820  -4.355  0.00  0.00     0.001 A 
HETATM    7  C   UNK N   1      31.399  22.367  -3.089  0.00  0.00     0.001 A 
HETATM    8  C   UNK N   1      30.149  22.723  -2.570  0.00  0.00     0.016 A 
HETATM    9  C   UNK N   1      29.294  23.542  -3.316  0.00  0.00     0.021 A 
HETATM   10  C   UNK N   1      27.911  23.865  -2.867  0.00  0.00     0.198 C 
HETATM   11  O   UNK N   1      27.468  23.430  -1.815  0.00  0.00    -0.290 OA
HETATM   12  C   UNK N   1      27.018  24.622  -3.835  0.00  0.00     0.335 C 
HETATM   13  C   UNK N   1      27.468  26.044  -3.918  0.00  0.00     0.046 A 
HETATM   14  C   UNK N   1      28.436  26.150  -4.800  0.00  0.00     0.043 A 
HETATM   15  C   UNK N   1      28.905  27.470  -5.287  0.00  0.00     0.192 A 
HETATM   16  O   UNK N   1      29.805  27.544  -6.106  0.00  0.00    -0.287 OA
HETATM   17  C   UNK N   1      28.169  28.687  -4.842  0.00  0.00     0.029 A 
HETATM   18  C   UNK N   1      28.456  29.941  -5.401  0.00  0.00     0.016 A 
HETATM   19  C   UNK N   1      27.708  31.062  -5.031  0.00  0.00     0.001 A 
HETATM   20  C   UNK N   1      26.674  30.942  -4.097  0.00  0.00     0.001 A 
HETATM   21  C   UNK N   1      26.385  29.698  -3.527  0.00  0.00     0.016 A 
HETATM   22  C   UNK N   1      27.126  28.565  -3.897  0.00  0.00     0.029 A 
HETATM   23  C   UNK N   1      26.778  27.226  -3.356  0.00  0.00     0.192 A 
HETATM   24  O   UNK N   1      25.878  27.089  -2.544  0.00  0.00    -0.287 OA
ENDROOT
TORSDOF 0
ENDMDL
MODEL 2
REMARK VINA RESULT:      -7.9     18.283     22.162
REMARK  0 active torsions:
REMARK  status: ('A' for Active; 'I' for Inactive)
ROOT
HETATM    1  C   UNK N   1      37.899  13.051  10.513  0.00  0.00     0.312 C 
HETATM    2  N   UNK N   1      36.743  13.876  10.161  0.00  0.00     0.114 N 
HETATM    3  C   UNK N   1      35.499  13.067  10.230  0.00  0.00     0.295 C 
HETATM    4  C   UNK N   1      34.468  13.902   9.495  0.00  0.00    -0.006 A 
HETATM    5  C   UNK N   1      33.599  13.328   8.563  0.00  0.00     0.011 A 
HETATM    6  C   UNK N   1      32.724  14.141   7.834  0.00  0.00     0.001 A 
HETATM    7  C   UNK N   1      32.726  15.529   8.026  0.00  0.00     0.001 A 
HETATM    8  C   UNK N   1      33.605  16.112   8.946  0.00  0.00     0.016 A 
HETATM    9  C   UNK N   1      34.478  15.303   9.682  0.00  0.00     0.021 A 
HETATM   10  C   UNK N   1      35.510  15.872  10.593  0.00  0.00     0.198 C 
HETATM   11  O   UNK N   1      35.630  17.078  10.742  0.00  0.00    -0.290 OA
HETATM   12  C   UNK N   1      36.510  14.908  11.208  0.00  0.00     0.335 C 
HETATM   13  C   UNK N   1      35.833  14.095  12.263  0.00  0.00     0.046 A 
HETATM   14  C   UNK N   1      35.244  13.058  11.711  0.00  0.00     0.043 A 
HETATM   15  C   UNK N   1      34.714  11.938  12.525  0.00  0.00     0.192 A 
HETATM   16  O   UNK N   1      34.170  10.986  11.991  0.00  0.00    -0.287 OA
HETATM   17  C   UNK N   1      34.971  11.951  13.993  0.00  0.00     0.029 A 
HETATM   18  C   UNK N   1      34.647  10.841  14.786  0.00  0.00     0.016 A 
HETATM   19  C   UNK N   1      34.962  10.835  16.148  0.00  0.00     0.001 A 
HETATM   20  C   UNK N   1      35.596  11.938  16.728  0.00  0.00     0.001 A 
HETATM   21  C   UNK N   1      35.916  13.053  15.949  0.00  0.00     0.016 A 
HETATM   22  C   UNK N   1      35.610  13.067  14.579  0.00  0.00     0.029 A 
HETATM   23  C   UNK N   1      36.013  14.214  13.726  0.00  0.00     0.192 A 
HETATM   24  O   UNK N   1      36.573  15.187  14.203  0.00  0.00    -0.287 OA
ENDROOT
TORSDOF 0
ENDMDL
MODEL 3
REMARK VINA RESULT:      -7.8     17.034     20.393
REMARK  0 active torsions:
REMARK  status: ('A' for Active; 'I' for Inactive)
ROOT
HETATM    1  C   UNK N   1      37.275  13.144   9.469  0.00  0.00     0.312 C 
HETATM    2  N   UNK N   1      36.589  12.878  10.734  0.00  0.00     0.114 N 
HETATM    3  C   UNK N   1      36.302  14.155  11.438  0.00  0.00     0.295 C 
HETATM    4  C   UNK N   1      35.956  13.734  12.853  0.00  0.00    -0.006 A 
HETATM    5  C   UNK N   1      36.485  14.404  13.960  0.00  0.00     0.011 A 
HETATM    6  C   UNK N   1      36.222  13.931  15.251  0.00  0.00     0.001 A 
HETATM    7  C   UNK N   1      35.441  12.783  15.436  0.00  0.00     0.001 A 
HETATM    8  C   UNK N   1      34.923  12.097  14.331  0.00  0.00     0.016 A 
HETATM    9  C   UNK N   1      35.178  12.568  13.038  0.00  0.00     0.021 A 
HETATM   10  C   UNK N   1      34.747  11.824  11.822  0.00  0.00     0.198 C 
HETATM   11  O   UNK N   1      34.140  10.767  11.906  0.00  0.00    -0.290 OA
HETATM   12  C   UNK N   1      35.225  12.342  10.477  0.00  0.00     0.335 C 
HETATM   13  C   UNK N   1      34.487  13.595  10.136  0.00  0.00     0.046 A 
HETATM   14  C   UNK N   1      35.084  14.625  10.693  0.00  0.00     0.043 A 
HETATM   15  C   UNK N   1      34.738  16.018  10.325  0.00  0.00     0.192 A 
HETATM   16  O   UNK N   1      35.305  16.959  10.855  0.00  0.00    -0.287 OA
HETATM   17  C   UNK N   1      33.771  16.234   9.212  0.00  0.00     0.029 A 
HETATM   18  C   UNK N   1      33.536  17.522   8.707  0.00  0.00     0.016 A 
HETATM   19  C   UNK N   1      32.685  17.702   7.612  0.00  0.00     0.001 A 
HETATM   20  C   UNK N   1      32.058  16.602   7.020  0.00  0.00     0.001 A 
HETATM   21  C   UNK N   1      32.279  15.316   7.520  0.00  0.00     0.016 A 
HETATM   22  C   UNK N   1      33.136  15.123   8.614  0.00  0.00     0.029 A 
HETATM   23  C   UNK N   1      33.437  13.753   9.105  0.00  0.00     0.192 A 
HETATM   24  O   UNK N   1      32.910  12.774   8.604  0.00  0.00    -0.287 OA
ENDROOT
TORSDOF 0
ENDMDL
MODEL 4
REMARK VINA RESULT:      -7.8     10.892     13.903
REMARK  0 active torsions:
REMARK  status: ('A' for Active; 'I' for Inactive)
ROOT
HETATM    1  C   UNK N   1      21.331  17.495   5.957  0.00  0.00     0.312 C 
HETATM    2  N   UNK N   1      22.217  18.312   5.129  0.00  0.00     0.114 N 
HETATM    3  C   UNK N   1      23.311  17.475   4.571  0.00  0.00     0.295 C 
HETATM    4  C   UNK N   1      24.334  18.477   4.074  0.00  0.00    -0.006 A 
HETATM    5  C   UNK N   1      25.698  18.313   4.334  0.00  0.00     0.011 A 
HETATM    6  C   UNK N   1      26.605  19.304   3.943  0.00  0.00     0.001 A 
HETATM    7  C   UNK N   1      26.150  20.464   3.303  0.00  0.00     0.001 A 
HETATM    8  C   UNK N   1      24.784  20.643   3.054  0.00  0.00     0.016 A 
HETATM    9  C   UNK N   1      23.873  19.652   3.438  0.00  0.00     0.021 A 
HETATM   10  C   UNK N   1      22.401  19.831   3.299  0.00  0.00     0.198 C 
HETATM   11  O   UNK N   1      21.927  20.856   2.832  0.00  0.00    -0.290 OA
HETATM   12  C   UNK N   1      21.505  18.764   3.903  0.00  0.00     0.335 C 
HETATM   13  C   UNK N   1      21.569  17.529   3.065  0.00  0.00     0.046 A 
HETATM   14  C   UNK N   1      22.602  16.802   3.429  0.00  0.00     0.043 A 
HETATM   15  C   UNK N   1      22.776  15.406   2.961  0.00  0.00     0.192 A 
HETATM   16  O   UNK N   1      23.743  14.750   3.311  0.00  0.00    -0.287 OA
HETATM   17  C   UNK N   1      21.684  14.792   2.154  0.00  0.00     0.029 A 
HETATM   18  C   UNK N   1      21.714  13.428   1.830  0.00  0.00     0.016 A 
HETATM   19  C   UNK N   1      20.646  12.847   1.138  0.00  0.00     0.001 A 
HETATM   20  C   UNK N   1      19.547  13.624   0.761  0.00  0.00     0.001 A 
HETATM   21  C   UNK N   1      19.511  14.986   1.071  0.00  0.00     0.016 A 
HETATM   22  C   UNK N   1      20.573  15.578   1.771  0.00  0.00     0.029 A 
HETATM   23  C   UNK N   1      20.512  17.006   2.172  0.00  0.00     0.192 A 
HETATM   24  O   UNK N   1      19.562  17.707   1.862  0.00  0.00    -0.287 OA
ENDROOT
TORSDOF 0
ENDMDL
MODEL 5
REMARK VINA RESULT:      -7.5     14.842     18.016
REMARK  0 active torsions:
REMARK  status: ('A' for Active; 'I' for Inactive)
ROOT
HETATM    1  C   UNK N   1      22.526  12.475   4.856  0.00  0.00     0.312 C 
HETATM    2  N   UNK N   1      22.802  13.911   4.886  0.00  0.00     0.114 N 
HETATM    3  C   UNK N   1      21.705  14.627   5.586  0.00  0.00     0.295 C 
HETATM    4  C   UNK N   1      21.913  16.084   5.219  0.00  0.00    -0.006 A 
HETATM    5  C   UNK N   1      20.843  16.895   4.831  0.00  0.00     0.011 A 
HETATM    6  C   UNK N   1      21.083  18.208   4.408  0.00  0.00     0.001 A 
HETATM    7  C   UNK N   1      22.392  18.706   4.362  0.00  0.00     0.001 A 
HETATM    8  C   UNK N   1      23.469  17.893   4.734  0.00  0.00     0.016 A 
HETATM    9  C   UNK N   1      23.235  16.582   5.163  0.00  0.00     0.021 A 
HETATM   10  C   UNK N   1      24.344  15.636   5.466  0.00  0.00     0.198 C 
HETATM   11  O   UNK N   1      25.513  15.973   5.362  0.00  0.00    -0.290 OA
HETATM   12  C   UNK N   1      23.974  14.192   5.760  0.00  0.00     0.335 C 
HETATM   13  C   UNK N   1      23.347  14.104   7.112  0.00  0.00     0.046 A 
HETATM   14  C   UNK N   1      22.063  14.366   7.022  0.00  0.00     0.043 A 
HETATM   15  C   UNK N   1      21.134  14.105   8.147  0.00  0.00     0.192 A 
HETATM   16  O   UNK N   1      19.945  14.357   8.041  0.00  0.00    -0.287 OA
HETATM   17  C   UNK N   1      21.667  13.418   9.357  0.00  0.00     0.029 A 
HETATM   18  C   UNK N   1      20.805  12.992  10.378  0.00  0.00     0.016 A 
HETATM   19  C   UNK N   1      21.308  12.281  11.471  0.00  0.00     0.001 A 
HETATM   20  C   UNK N   1      22.674  11.998  11.558  0.00  0.00     0.001 A 
HETATM   21  C   UNK N   1      23.544  12.426  10.551  0.00  0.00     0.016 A 
HETATM   22  C   UNK N   1      23.049  13.134   9.446  0.00  0.00     0.029 A 
HETATM   23  C   UNK N   1      23.952  13.527   8.333  0.00  0.00     0.192 A 
HETATM   24  O   UNK N   1      25.147  13.288   8.379  0.00  0.00    -0.287 OA
ENDROOT
TORSDOF 0
ENDMDL
MODEL 6
REMARK VINA RESULT:      -7.5     14.762     17.216
REMARK  0 active torsions:
REMARK  status: ('A' for Active; 'I' for Inactive)
ROOT
HETATM    1  C   UNK N   1      20.800  13.067   5.103  0.00  0.00     0.312 C 
HETATM    2  N   UNK N   1      20.934  13.134   6.559  0.00  0.00     0.114 N 
HETATM    3  C   UNK N   1      22.366  13.035   6.945  0.00  0.00     0.295 C 
HETATM    4  C   UNK N   1      22.334  12.736   8.431  0.00  0.00    -0.006 A 
HETATM    5  C   UNK N   1      23.151  11.750   8.991  0.00  0.00     0.011 A 
HETATM    6  C   UNK N   1      23.029  11.434  10.349  0.00  0.00     0.001 A 
HETATM    7  C   UNK N   1      22.083  12.094  11.145  0.00  0.00     0.001 A 
HETATM    8  C   UNK N   1      21.250  13.070  10.586  0.00  0.00     0.016 A 
HETATM    9  C   UNK N   1      21.372  13.395   9.230  0.00  0.00     0.021 A 
HETATM   10  C   UNK N   1      20.444  14.344   8.555  0.00  0.00     0.198 C 
HETATM   11  O   UNK N   1      19.538  14.889   9.166  0.00  0.00    -0.290 OA
HETATM   12  C   UNK N   1      20.565  14.490   7.048  0.00  0.00     0.335 C 
HETATM   13  C   UNK N   1      21.804  15.257   6.721  0.00  0.00     0.046 A 
HETATM   14  C   UNK N   1      22.832  14.439   6.677  0.00  0.00     0.043 A 
HETATM   15  C   UNK N   1      24.141  14.862   6.126  0.00  0.00     0.192 A 
HETATM   16  O   UNK N   1      25.081  14.085   6.096  0.00  0.00    -0.287 OA
HETATM   17  C   UNK N   1      24.241  16.212   5.504  0.00  0.00     0.029 A 
HETATM   18  C   UNK N   1      25.400  16.599   4.815  0.00  0.00     0.016 A 
HETATM   19  C   UNK N   1      25.453  17.838   4.170  0.00  0.00     0.001 A 
HETATM   20  C   UNK N   1      24.354  18.701   4.214  0.00  0.00     0.001 A 
HETATM   21  C   UNK N   1      23.197  18.329   4.904  0.00  0.00     0.016 A 
HETATM   22  C   UNK N   1      23.131  17.085   5.549  0.00  0.00     0.029 A 
HETATM   23  C   UNK N   1      21.880  16.647   6.220  0.00  0.00     0.192 A 
HETATM   24  O   UNK N   1      20.903  17.376   6.269  0.00  0.00    -0.287 OA
ENDROOT
TORSDOF 0
ENDMDL
MODEL 7
REMARK VINA RESULT:      -7.4     12.264     15.110
REMARK  0 active torsions:
REMARK  status: ('A' for Active; 'I' for Inactive)
ROOT
HETATM    1  C   UNK N   1      22.270  15.637   2.927  0.00  0.00     0.312 C 
HETATM    2  N   UNK N   1      23.490  16.322   3.359  0.00  0.00     0.114 N 
HETATM    3  C   UNK N   1      23.147  17.621   3.995  0.00  0.00     0.295 C 
HETATM    4  C   UNK N   1      24.463  18.373   4.042  0.00  0.00    -0.006 A 
HETATM    5  C   UNK N   1      24.545  19.718   3.670  0.00  0.00     0.011 A 
HETATM    6  C   UNK N   1      25.790  20.356   3.634  0.00  0.00     0.001 A 
HETATM    7  C   UNK N   1      26.955  19.648   3.958  0.00  0.00     0.001 A 
HETATM    8  C   UNK N   1      26.882  18.297   4.315  0.00  0.00     0.016 A 
HETATM    9  C   UNK N   1      25.639  17.655   4.358  0.00  0.00     0.021 A 
HETATM   10  C   UNK N   1      25.508  16.196   4.623  0.00  0.00     0.198 C 
HETATM   11  O   UNK N   1      26.489  15.496   4.825  0.00  0.00    -0.290 OA
HETATM   12  C   UNK N   1      24.128  15.578   4.479  0.00  0.00     0.335 C 
HETATM   13  C   UNK N   1      23.271  16.001   5.627  0.00  0.00     0.046 A 
HETATM   14  C   UNK N   1      22.725  17.168   5.364  0.00  0.00     0.043 A 
HETATM   15  C   UNK N   1      21.630  17.720   6.195  0.00  0.00     0.192 A 
HETATM   16  O   UNK N   1      21.138  18.805   5.933  0.00  0.00    -0.287 OA
HETATM   17  C   UNK N   1      21.067  16.865   7.279  0.00  0.00     0.029 A 
HETATM   18  C   UNK N   1      19.921  17.263   7.983  0.00  0.00     0.016 A 
HETATM   19  C   UNK N   1      19.359  16.417   8.944  0.00  0.00     0.001 A 
HETATM   20  C   UNK N   1      19.939  15.174   9.213  0.00  0.00     0.001 A 
HETATM   21  C   UNK N   1      21.086  14.772   8.524  0.00  0.00     0.016 A 
HETATM   22  C   UNK N   1      21.655  15.609   7.552  0.00  0.00     0.029 A 
HETATM   23  C   UNK N   1      22.828  15.160   6.760  0.00  0.00     0.192 A 
HETATM   24  O   UNK N   1      23.352  14.078   6.969  0.00  0.00    -0.287 OA
ENDROOT
TORSDOF 0
ENDMDL
MODEL 8
REMARK VINA RESULT:      -7.4     11.011     13.550
REMARK  0 active torsions:
REMARK  status: ('A' for Active; 'I' for Inactive)
ROOT
HETATM    1  C   UNK N   1      21.350  17.889   6.375  0.00  0.00     0.312 C 
HETATM    2  N   UNK N   1      21.263  17.163   5.107  0.00  0.00     0.114 N 
HETATM    3  C   UNK N   1      21.525  18.085   3.972  0.00  0.00     0.295 C 
HETATM    4  C   UNK N   1      21.039  17.326   2.753  0.00  0.00    -0.006 A 
HETATM    5  C   UNK N   1      20.261  17.948   1.772  0.00  0.00     0.011 A 
HETATM    6  C   UNK N   1      19.750  17.195   0.708  0.00  0.00     0.001 A 
HETATM    7  C   UNK N   1      20.006  15.820   0.630  0.00  0.00     0.001 A 
HETATM    8  C   UNK N   1      20.771  15.188   1.617  0.00  0.00     0.016 A 
HETATM    9  C   UNK N   1      21.289  15.936   2.680  0.00  0.00     0.021 A 
HETATM   10  C   UNK N   1      22.015  15.304   3.816  0.00  0.00     0.198 C 
HETATM   11  O   UNK N   1      22.198  14.097   3.860  0.00  0.00    -0.290 OA
HETATM   12  C   UNK N   1      22.384  16.190   4.993  0.00  0.00     0.335 C 
HETATM   13  C   UNK N   1      23.507  17.095   4.602  0.00  0.00     0.046 A 
HETATM   14  C   UNK N   1      23.026  18.164   4.007  0.00  0.00     0.043 A 
HETATM   15  C   UNK N   1      23.870  19.353   3.741  0.00  0.00     0.192 A 
HETATM   16  O   UNK N   1      23.402  20.334   3.187  0.00  0.00    -0.287 OA
HETATM   17  C   UNK N   1      25.262  19.363   4.272  0.00  0.00     0.029 A 
HETATM   18  C   UNK N   1      26.047  20.523   4.201  0.00  0.00     0.016 A 
HETATM   19  C   UNK N   1      27.323  20.543   4.772  0.00  0.00     0.001 A 
HETATM   20  C   UNK N   1      27.827  19.405   5.410  0.00  0.00     0.001 A 
HETATM   21  C   UNK N   1      27.056  18.241   5.479  0.00  0.00     0.016 A 
HETATM   22  C   UNK N   1      25.771  18.212   4.916  0.00  0.00     0.029 A 
HETATM   23  C   UNK N   1      24.914  17.006   5.049  0.00  0.00     0.192 A 
HETATM   24  O   UNK N   1      25.324  16.002   5.606  0.00  0.00    -0.287 OA
ENDROOT
TORSDOF 0
ENDMDL
MODEL 9
REMARK VINA RESULT:      -7.3      3.889      6.985
REMARK  0 active torsions:
REMARK  status: ('A' for Active; 'I' for Inactive)
ROOT
HETATM    1  C   UNK N   1      30.311  24.429  -7.656  0.00  0.00     0.312 C 
HETATM    2  N   UNK N   1      28.999  23.871  -7.327  0.00  0.00     0.114 N 
HETATM    3  C   UNK N   1      29.000  22.402  -7.549  0.00  0.00     0.295 C 
HETATM    4  C   UNK N   1      27.532  22.021  -7.546  0.00  0.00    -0.006 A 
HETATM    5  C   UNK N   1      27.003  21.158  -8.510  0.00  0.00     0.011 A 
HETATM    6  C   UNK N   1      25.627  20.903  -8.536  0.00  0.00     0.001 A 
HETATM    7  C   UNK N   1      24.778  21.519  -7.607  0.00  0.00     0.001 A 
HETATM    8  C   UNK N   1      25.298  22.397  -6.650  0.00  0.00     0.016 A 
HETATM    9  C   UNK N   1      26.674  22.652  -6.616  0.00  0.00     0.021 A 
HETATM   10  C   UNK N   1      27.272  23.658  -5.696  0.00  0.00     0.198 C 
HETATM   11  O   UNK N   1      26.581  24.300  -4.920  0.00  0.00    -0.290 OA
HETATM   12  C   UNK N   1      28.749  23.971  -5.863  0.00  0.00     0.335 C 
HETATM   13  C   UNK N   1      29.562  22.825  -5.357  0.00  0.00     0.046 A 
HETATM   14  C   UNK N   1      29.693  21.924  -6.304  0.00  0.00     0.043 A 
HETATM   15  C   UNK N   1      30.656  20.803  -6.186  0.00  0.00     0.192 A 
HETATM   16  O   UNK N   1      30.760  19.978  -7.077  0.00  0.00    -0.287 OA
HETATM   17  C   UNK N   1      31.571  20.782  -5.010  0.00  0.00     0.029 A 
HETATM   18  C   UNK N   1      32.614  19.848  -4.931  0.00  0.00     0.016 A 
HETATM   19  C   UNK N   1      33.513  19.887  -3.861  0.00  0.00     0.001 A 
HETATM   20  C   UNK N   1      33.373  20.853  -2.860  0.00  0.00     0.001 A 
HETATM   21  C   UNK N   1      32.332  21.783  -2.924  0.00  0.00     0.016 A 
HETATM   22  C   UNK N   1      31.429  21.758  -3.997  0.00  0.00     0.029 A 
HETATM   23  C   UNK N   1      30.365  22.788  -4.115  0.00  0.00     0.192 A 
HETATM   24  O   UNK N   1      30.223  23.647  -3.261  0.00  0.00    -0.287 OA
ENDROOT
TORSDOF 0
ENDMDL
