MODEL 1
REMARK VINA RESULT:      -7.4      0.000      0.000
REMARK  11 active torsions:
REMARK  status: ('A' for Active; 'I' for Inactive)
REMARK    1  A    between atoms: C_3  and  C_12 
REMARK    2  A    between atoms: C_5  and  O_7 
REMARK    3  A    between atoms: O_7  and  C_8 
REMARK    4  A    between atoms: C_8  and  C_9 
REMARK    5  A    between atoms: C_9  and  O_11 
REMARK    6  A    between atoms: C_12  and  N_13 
REMARK    7  A    between atoms: N_13  and  C_14 
REMARK    8  A    between atoms: N_13  and  S_27 
REMARK    9  A    between atoms: C_14  and  C_15 
REMARK   10  A    between atoms: C_18  and  N_21 
REMARK   11  A    between atoms: S_27  and  C_30 
ROOT
HETATM    1  N   UNK N   1      26.391  24.107  -7.719  0.00  0.00    -0.298 N 
ENDROOT
BRANCH   1   2
HETATM    2  C   UNK N   1      25.945  23.355  -6.554  0.00  0.00     0.174 C 
BRANCH   2   3
HETATM    3  C   UNK N   1      26.867  23.646  -5.419  0.00  0.00    -0.037 A 
HETATM    4  C   UNK N   1      26.393  24.171  -4.211  0.00  0.00     0.009 A 
HETATM    5  C   UNK N   1      27.277  24.359  -3.140  0.00  0.00     0.003 A 
HETATM    6  C   UNK N   1      28.625  24.005  -3.272  0.00  0.00     0.037 A 
HETATM    7  C   UNK N   1      29.095  23.466  -4.476  0.00  0.00     0.070 A 
HETATM    8  C   UNK N   1      28.206  23.295  -5.545  0.00  0.00     0.045 A 
BRANCH   7   9
HETATM    9  O   UNK N   1      30.393  23.098  -4.592  0.00  0.00    -0.341 OA
BRANCH   9  10
HETATM   10  C   UNK N   1      31.232  23.041  -3.496  0.00  0.00     0.285 C 
BRANCH  10  11
HETATM   11  C   UNK N   1      31.547  21.636  -3.103  0.00  0.00     0.164 C 
HETATM   12  O   UNK N   1      31.056  20.694  -3.701  0.00  0.00    -0.648 OA
BRANCH  11  13
HETATM   13  O   UNK N   1      32.390  21.412  -2.077  0.00  0.00    -0.775 OA
HETATM   14  H   UNK N   1      32.300  20.643  -1.550  0.00  0.00     0.167 HD
ENDBRANCH  11  13
ENDBRANCH  10  11
ENDBRANCH   9  10
ENDBRANCH   7   9
ENDBRANCH   2   3
ENDBRANCH   1   2
BRANCH   1  15
HETATM   15  C   UNK N   1      25.651  25.358  -7.977  0.00  0.00     0.174 C 
BRANCH  15  16
HETATM   16  C   UNK N   1      25.888  26.521  -7.043  0.00  0.00    -0.040 A 
HETATM   17  C   UNK N   1      24.936  26.800  -6.054  0.00  0.00     0.011 A 
HETATM   18  C   UNK N   1      25.205  27.751  -5.059  0.00  0.00     0.032 A 
HETATM   19  C   UNK N   1      26.441  28.418  -5.038  0.00  0.00     0.056 A 
HETATM   20  C   UNK N   1      27.374  28.156  -6.044  0.00  0.00     0.032 A 
HETATM   21  C   UNK N   1      27.098  27.213  -7.030  0.00  0.00     0.011 A 
BRANCH  19  22
HETATM   22  N   UNK N   1      26.791  29.293  -3.956  0.00  0.00    -0.268 N 
HETATM   23  C   UNK N   1      27.756  29.087  -3.043  0.00  0.00     0.118 A 
HETATM   24  C   UNK N   1      27.815  30.202  -2.226  0.00  0.00     0.038 A 
HETATM   25  C   UNK N   1      26.842  31.062  -2.713  0.00  0.00     0.109 A 
HETATM   26  N   UNK N   1      26.240  30.479  -3.765  0.00  0.00    -0.305 N 
ATOM     27  HN  UNK N   1      25.487  30.884  -4.321  1.00  0.00     0.186 HD
ENDBRANCH  19  22
ENDBRANCH  15  16
ENDBRANCH   1  15
BRANCH   1  28
HETATM   28  S   UNK N   1      26.792  23.074  -9.110  0.00  0.00     0.262 S 
HETATM   29  O   UNK N   1      25.502  22.349  -9.517  0.00  0.00    -0.200 OA
HETATM   30  O   UNK N   1      27.057  24.017 -10.295  0.00  0.00    -0.200 OA
BRANCH  28  31
HETATM   31  C   UNK N   1      28.092  21.892  -8.828  0.00  0.00     0.095 A 
HETATM   32  C   UNK N   1      27.795  20.652  -8.263  0.00  0.00     0.028 A 
HETATM   33  C   UNK N   1      28.826  19.757  -7.983  0.00  0.00     0.019 A 
HETATM   34  C   UNK N   1      30.144  20.124  -8.268  0.00  0.00     0.087 A 
HETATM   35  N   UNK N   1      30.413  21.340  -8.815  0.00  0.00    -0.374 N 
HETATM   36  C   UNK N   1      29.419  22.227  -9.095  0.00  0.00     0.112 A 
ATOM     37  HN  UNK N   1      31.380  21.592  -9.020  1.00  0.00     0.164 HD
ENDBRANCH  28  31
ENDBRANCH   1  28
TORSDOF 11
ENDMDL
MODEL 2
REMARK VINA RESULT:      -7.3     14.740     17.229
REMARK  11 active torsions:
REMARK  status: ('A' for Active; 'I' for Inactive)
REMARK    1  A    between atoms: C_3  and  C_12 
REMARK    2  A    between atoms: C_5  and  O_7 
REMARK    3  A    between atoms: O_7  and  C_8 
REMARK    4  A    between atoms: C_8  and  C_9 
REMARK    5  A    between atoms: C_9  and  O_11 
REMARK    6  A    between atoms: C_12  and  N_13 
REMARK    7  A    between atoms: N_13  and  C_14 
REMARK    8  A    between atoms: N_13  and  S_27 
REMARK    9  A    between atoms: C_14  and  C_15 
REMARK   10  A    between atoms: C_18  and  N_21 
REMARK   11  A    between atoms: S_27  and  C_30 
ROOT
HETATM    1  N   UNK N   1      21.932  15.118   7.645  0.00  0.00    -0.298 N 
ENDROOT
BRANCH   1   2
HETATM    2  C   UNK N   1      21.093  16.307   7.581  0.00  0.00     0.174 C 
BRANCH   2   3
HETATM    3  C   UNK N   1      20.647  16.497   6.172  0.00  0.00    -0.037 A 
HETATM    4  C   UNK N   1      19.724  15.630   5.575  0.00  0.00     0.009 A 
HETATM    5  C   UNK N   1      19.269  15.886   4.274  0.00  0.00     0.003 A 
HETATM    6  C   UNK N   1      19.721  17.017   3.582  0.00  0.00     0.037 A 
HETATM    7  C   UNK N   1      20.632  17.893   4.186  0.00  0.00     0.070 A 
HETATM    8  C   UNK N   1      21.091  17.619   5.481  0.00  0.00     0.045 A 
BRANCH   7   9
HETATM    9  O   UNK N   1      21.045  19.000   3.526  0.00  0.00    -0.341 OA
BRANCH   9  10
HETATM   10  C   UNK N   1      20.657  19.256   2.225  0.00  0.00     0.285 C 
BRANCH  10  11
HETATM   11  C   UNK N   1      21.221  20.541   1.714  0.00  0.00     0.164 C 
HETATM   12  O   UNK N   1      21.346  20.737   0.517  0.00  0.00    -0.648 OA
BRANCH  11  13
HETATM   13  O   UNK N   1      21.586  21.495   2.591  0.00  0.00    -0.775 OA
HETATM   14  H   UNK N   1      20.958  21.860   3.183  0.00  0.00     0.167 HD
ENDBRANCH  11  13
ENDBRANCH  10  11
ENDBRANCH   9  10
ENDBRANCH   7   9
ENDBRANCH   2   3
ENDBRANCH   1   2
BRANCH   1  15
HETATM   15  C   UNK N   1      22.724  14.844   6.429  0.00  0.00     0.174 C 
BRANCH  15  16
HETATM   16  C   UNK N   1      24.094  15.471   6.325  0.00  0.00    -0.040 A 
HETATM   17  C   UNK N   1      25.137  14.950   7.103  0.00  0.00     0.011 A 
HETATM   18  C   UNK N   1      26.455  15.382   6.901  0.00  0.00     0.032 A 
HETATM   19  C   UNK N   1      26.741  16.331   5.905  0.00  0.00     0.056 A 
HETATM   20  C   UNK N   1      25.693  16.868   5.154  0.00  0.00     0.032 A 
HETATM   21  C   UNK N   1      24.387  16.435   5.363  0.00  0.00     0.011 A 
BRANCH  19  22
HETATM   22  N   UNK N   1      28.095  16.688   5.590  0.00  0.00    -0.268 N 
HETATM   23  C   UNK N   1      28.526  17.259   4.452  0.00  0.00     0.118 A 
HETATM   24  C   UNK N   1      29.881  17.503   4.585  0.00  0.00     0.038 A 
HETATM   25  C   UNK N   1      30.210  17.051   5.854  0.00  0.00     0.109 A 
HETATM   26  N   UNK N   1      29.102  16.563   6.437  0.00  0.00    -0.305 N 
ATOM     27  HN  UNK N   1      29.047  16.165   7.375  1.00  0.00     0.186 HD
ENDBRANCH  19  22
ENDBRANCH  15  16
ENDBRANCH   1  15
BRANCH   1  28
HETATM   28  S   UNK N   1      21.144  13.744   8.453  0.00  0.00     0.262 S 
HETATM   29  O   UNK N   1      19.787  14.244   8.965  0.00  0.00    -0.200 OA
HETATM   30  O   UNK N   1      20.761  12.746   7.349  0.00  0.00    -0.200 OA
BRANCH  28  31
HETATM   31  C   UNK N   1      22.067  13.018   9.789  0.00  0.00     0.095 A 
HETATM   32  C   UNK N   1      23.460  12.971   9.729  0.00  0.00     0.028 A 
HETATM   33  C   UNK N   1      24.174  12.341  10.747  0.00  0.00     0.019 A 
HETATM   34  C   UNK N   1      23.477  11.758  11.810  0.00  0.00     0.087 A 
HETATM   35  N   UNK N   1      22.117  11.811  11.847  0.00  0.00    -0.374 N 
HETATM   36  C   UNK N   1      21.404  12.422  10.861  0.00  0.00     0.112 A 
ATOM     37  HN  UNK N   1      21.623  11.384  12.630  1.00  0.00     0.164 HD
ENDBRANCH  28  31
ENDBRANCH   1  28
TORSDOF 11
ENDMDL
MODEL 3
REMARK VINA RESULT:      -7.3     13.006     15.989
REMARK  11 active torsions:
REMARK  status: ('A' for Active; 'I' for Inactive)
REMARK    1  A    between atoms: C_3  and  C_12 
REMARK    2  A    between atoms: C_5  and  O_7 
REMARK    3  A    between atoms: O_7  and  C_8 
REMARK    4  A    between atoms: C_8  and  C_9 
REMARK    5  A    between atoms: C_9  and  O_11 
REMARK    6  A    between atoms: C_12  and  N_13 
REMARK    7  A    between atoms: N_13  and  C_14 
REMARK    8  A    between atoms: N_13  and  S_27 
REMARK    9  A    between atoms: C_14  and  C_15 
REMARK   10  A    between atoms: C_18  and  N_21 
REMARK   11  A    between atoms: S_27  and  C_30 
ROOT
HETATM    1  N   UNK N   1      27.964  15.734   5.314  0.00  0.00    -0.298 N 
ENDROOT
BRANCH   1   2
HETATM    2  C   UNK N   1      29.318  15.678   5.847  0.00  0.00     0.174 C 
BRANCH   2   3
HETATM    3  C   UNK N   1      29.438  16.678   6.945  0.00  0.00    -0.037 A 
HETATM    4  C   UNK N   1      28.324  17.074   7.695  0.00  0.00     0.009 A 
HETATM    5  C   UNK N   1      28.488  17.958   8.771  0.00  0.00     0.003 A 
HETATM    6  C   UNK N   1      29.765  18.425   9.106  0.00  0.00     0.037 A 
HETATM    7  C   UNK N   1      30.880  18.016   8.365  0.00  0.00     0.070 A 
HETATM    8  C   UNK N   1      30.703  17.144   7.283  0.00  0.00     0.045 A 
BRANCH   7   9
HETATM    9  O   UNK N   1      32.117  18.447   8.709  0.00  0.00    -0.341 OA
BRANCH   9  10
HETATM   10  C   UNK N   1      33.219  17.618   8.641  0.00  0.00     0.285 C 
BRANCH  10  11
HETATM   11  C   UNK N   1      34.340  18.235   7.870  0.00  0.00     0.164 C 
HETATM   12  O   UNK N   1      35.106  19.020   8.402  0.00  0.00    -0.648 OA
BRANCH  11  13
HETATM   13  O   UNK N   1      34.504  17.912   6.574  0.00  0.00    -0.775 OA
HETATM   14  H   UNK N   1      33.760  17.820   6.011  0.00  0.00     0.167 HD
ENDBRANCH  11  13
ENDBRANCH  10  11
ENDBRANCH   9  10
ENDBRANCH   7   9
ENDBRANCH   2   3
ENDBRANCH   1   2
BRANCH   1  15
HETATM   15  C   UNK N   1      27.272  14.433   5.225  0.00  0.00     0.174 C 
BRANCH  15  16
HETATM   16  C   UNK N   1      25.901  14.322   5.849  0.00  0.00    -0.040 A 
HETATM   17  C   UNK N   1      25.574  13.161   6.562  0.00  0.00     0.011 A 
HETATM   18  C   UNK N   1      24.387  13.097   7.306  0.00  0.00     0.032 A 
HETATM   19  C   UNK N   1      23.523  14.203   7.352  0.00  0.00     0.056 A 
HETATM   20  C   UNK N   1      23.841  15.347   6.616  0.00  0.00     0.032 A 
HETATM   21  C   UNK N   1      25.020  15.402   5.878  0.00  0.00     0.011 A 
BRANCH  19  22
HETATM   22  N   UNK N   1      22.374  14.210   8.212  0.00  0.00    -0.268 N 
HETATM   23  C   UNK N   1      22.110  13.337   9.199  0.00  0.00     0.118 A 
HETATM   24  C   UNK N   1      20.946  13.744   9.827  0.00  0.00     0.038 A 
HETATM   25  C   UNK N   1      20.555  14.895   9.159  0.00  0.00     0.109 A 
HETATM   26  N   UNK N   1      21.445  15.150   8.184  0.00  0.00    -0.305 N 
ATOM     27  HN  UNK N   1      21.410  15.936   7.536  1.00  0.00     0.186 HD
ENDBRANCH  19  22
ENDBRANCH  15  16
ENDBRANCH   1  15
BRANCH   1  28
HETATM   28  S   UNK N   1      27.791  16.864   3.951  0.00  0.00     0.262 S 
HETATM   29  O   UNK N   1      29.156  16.934   3.252  0.00  0.00    -0.200 OA
HETATM   30  O   UNK N   1      26.897  16.167   2.913  0.00  0.00    -0.200 OA
BRANCH  28  31
HETATM   31  C   UNK N   1      27.246  18.500   4.387  0.00  0.00     0.095 A 
HETATM   32  C   UNK N   1      28.110  19.368   5.054  0.00  0.00     0.028 A 
HETATM   33  C   UNK N   1      27.655  20.624   5.452  0.00  0.00     0.019 A 
HETATM   34  C   UNK N   1      26.333  20.989   5.180  0.00  0.00     0.087 A 
HETATM   35  N   UNK N   1      25.505  20.125   4.532  0.00  0.00    -0.374 N 
HETATM   36  C   UNK N   1      25.932  18.895   4.136  0.00  0.00     0.112 A 
ATOM     37  HN  UNK N   1      24.544  20.407   4.338  1.00  0.00     0.164 HD
ENDBRANCH  28  31
ENDBRANCH   1  28
TORSDOF 11
ENDMDL
MODEL 4
REMARK VINA RESULT:      -7.2     14.102     16.322
REMARK  11 active torsions:
REMARK  status: ('A' for Active; 'I' for Inactive)
REMARK    1  A    between atoms: C_3  and  C_12 
REMARK    2  A    between atoms: C_5  and  O_7 
REMARK    3  A    between atoms: O_7  and  C_8 
REMARK    4  A    between atoms: C_8  and  C_9 
REMARK    5  A    between atoms: C_9  and  O_11 
REMARK    6  A    between atoms: C_12  and  N_13 
REMARK    7  A    between atoms: N_13  and  C_14 
REMARK    8  A    between atoms: N_13  and  S_27 
REMARK    9  A    between atoms: C_14  and  C_15 
REMARK   10  A    between atoms: C_18  and  N_21 
REMARK   11  A    between atoms: S_27  and  C_30 
ROOT
HETATM    1  N   UNK N   1      22.030  13.621   5.490  0.00  0.00    -0.298 N 
ENDROOT
BRANCH   1   2
HETATM    2  C   UNK N   1      20.788  14.250   5.062  0.00  0.00     0.174 C 
BRANCH   2   3
HETATM    3  C   UNK N   1      20.993  15.725   5.020  0.00  0.00    -0.037 A 
HETATM    4  C   UNK N   1      21.444  16.431   6.141  0.00  0.00     0.009 A 
HETATM    5  C   UNK N   1      21.699  17.806   6.042  0.00  0.00     0.003 A 
HETATM    6  C   UNK N   1      21.524  18.466   4.819  0.00  0.00     0.037 A 
HETATM    7  C   UNK N   1      21.088  17.755   3.694  0.00  0.00     0.070 A 
HETATM    8  C   UNK N   1      20.822  16.385   3.808  0.00  0.00     0.045 A 
BRANCH   7   9
HETATM    9  O   UNK N   1      20.946  18.390   2.506  0.00  0.00    -0.341 OA
BRANCH   9  10
HETATM   10  C   UNK N   1      20.244  19.574   2.396  0.00  0.00     0.285 C 
BRANCH  10  11
HETATM   11  C   UNK N   1      21.073  20.664   1.799  0.00  0.00     0.164 C 
HETATM   12  O   UNK N   1      21.268  20.713   0.597  0.00  0.00    -0.648 OA
BRANCH  11  13
HETATM   13  O   UNK N   1      21.603  21.604   2.604  0.00  0.00    -0.775 OA
HETATM   14  H   UNK N   1      21.364  21.642   3.509  0.00  0.00     0.167 HD
ENDBRANCH  11  13
ENDBRANCH  10  11
ENDBRANCH   9  10
ENDBRANCH   7   9
ENDBRANCH   2   3
ENDBRANCH   1   2
BRANCH   1  15
HETATM   15  C   UNK N   1      23.108  13.613   4.482  0.00  0.00     0.174 C 
BRANCH  15  16
HETATM   16  C   UNK N   1      24.178  14.674   4.588  0.00  0.00    -0.040 A 
HETATM   17  C   UNK N   1      24.382  15.540   3.506  0.00  0.00     0.011 A 
HETATM   18  C   UNK N   1      25.233  16.646   3.635  0.00  0.00     0.032 A 
HETATM   19  C   UNK N   1      25.878  16.902   4.856  0.00  0.00     0.056 A 
HETATM   20  C   UNK N   1      25.693  16.018   5.922  0.00  0.00     0.032 A 
HETATM   21  C   UNK N   1      24.848  14.920   5.785  0.00  0.00     0.011 A 
BRANCH  19  22
HETATM   22  N   UNK N   1      26.645  18.099   5.053  0.00  0.00    -0.268 N 
HETATM   23  C   UNK N   1      27.079  18.936   4.094  0.00  0.00     0.118 A 
HETATM   24  C   UNK N   1      27.711  20.000   4.713  0.00  0.00     0.038 A 
HETATM   25  C   UNK N   1      27.617  19.739   6.072  0.00  0.00     0.109 A 
HETATM   26  N   UNK N   1      26.963  18.578   6.243  0.00  0.00    -0.305 N 
ATOM     27  HN  UNK N   1      26.748  18.141   7.139  1.00  0.00     0.186 HD
ENDBRANCH  19  22
ENDBRANCH  15  16
ENDBRANCH   1  15
BRANCH   1  28
HETATM   28  S   UNK N   1      21.776  12.145   6.450  0.00  0.00     0.262 S 
HETATM   29  O   UNK N   1      20.327  11.700   6.211  0.00  0.00    -0.200 OA
HETATM   30  O   UNK N   1      22.603  11.037   5.779  0.00  0.00    -0.200 OA
BRANCH  28  31
HETATM   31  C   UNK N   1      22.081  12.312   8.194  0.00  0.00     0.095 A 
HETATM   32  C   UNK N   1      23.086  11.559   8.801  0.00  0.00     0.028 A 
HETATM   33  C   UNK N   1      23.275  11.645  10.180  0.00  0.00     0.019 A 
HETATM   34  C   UNK N   1      22.445  12.480  10.932  0.00  0.00     0.087 A 
HETATM   35  N   UNK N   1      21.467  13.203  10.321  0.00  0.00    -0.374 N 
HETATM   36  C   UNK N   1      21.268  13.132   8.976  0.00  0.00     0.112 A 
ATOM     37  HN  UNK N   1      20.871  13.811  10.883  1.00  0.00     0.164 HD
ENDBRANCH  28  31
ENDBRANCH   1  28
TORSDOF 11
ENDMDL
MODEL 5
REMARK VINA RESULT:      -7.1      2.195      3.409
REMARK  11 active torsions:
REMARK  status: ('A' for Active; 'I' for Inactive)
REMARK    1  A    between atoms: C_3  and  C_12 
REMARK    2  A    between atoms: C_5  and  O_7 
REMARK    3  A    between atoms: O_7  and  C_8 
REMARK    4  A    between atoms: C_8  and  C_9 
REMARK    5  A    between atoms: C_9  and  O_11 
REMARK    6  A    between atoms: C_12  and  N_13 
REMARK    7  A    between atoms: N_13  and  C_14 
REMARK    8  A    between atoms: N_13  and  S_27 
REMARK    9  A    between atoms: C_14  and  C_15 
REMARK   10  A    between atoms: C_18  and  N_21 
REMARK   11  A    between atoms: S_27  and  C_30 
ROOT
HETATM    1  N   UNK N   1      26.078  25.141  -7.310  0.00  0.00    -0.298 N 
ENDROOT
BRANCH   1   2
HETATM    2  C   UNK N   1      25.636  24.162  -6.326  0.00  0.00     0.174 C 
BRANCH   2   3
HETATM    3  C   UNK N   1      26.676  24.055  -5.264  0.00  0.00    -0.037 A 
HETATM    4  C   UNK N   1      26.392  24.376  -3.931  0.00  0.00     0.009 A 
HETATM    5  C   UNK N   1      27.372  24.188  -2.947  0.00  0.00     0.003 A 
HETATM    6  C   UNK N   1      28.623  23.662  -3.293  0.00  0.00     0.037 A 
HETATM    7  C   UNK N   1      28.901  23.327  -4.624  0.00  0.00     0.070 A 
HETATM    8  C   UNK N   1      27.918  23.532  -5.602  0.00  0.00     0.045 A 
BRANCH   7   9
HETATM    9  O   UNK N   1      30.100  22.792  -4.952  0.00  0.00    -0.341 OA
BRANCH   9  10
HETATM   10  C   UNK N   1      31.214  22.967  -4.154  0.00  0.00     0.285 C 
BRANCH  10  11
HETATM   11  C   UNK N   1      31.457  21.793  -3.263  0.00  0.00     0.164 C 
HETATM   12  O   UNK N   1      31.923  21.942  -2.146  0.00  0.00    -0.648 OA
BRANCH  11  13
HETATM   13  O   UNK N   1      31.148  20.559  -3.701  0.00  0.00    -0.775 OA
HETATM   14  H   UNK N   1      30.414  20.099  -3.343  0.00  0.00     0.167 HD
ENDBRANCH  11  13
ENDBRANCH  10  11
ENDBRANCH   9  10
ENDBRANCH   7   9
ENDBRANCH   2   3
ENDBRANCH   1   2
BRANCH   1  15
HETATM   15  C   UNK N   1      25.576  26.513  -7.097  0.00  0.00     0.174 C 
BRANCH  15  16
HETATM   16  C   UNK N   1      26.243  27.349  -6.031  0.00  0.00    -0.040 A 
HETATM   17  C   UNK N   1      25.499  27.731  -4.906  0.00  0.00     0.011 A 
HETATM   18  C   UNK N   1      26.128  28.347  -3.816  0.00  0.00     0.032 A 
HETATM   19  C   UNK N   1      27.515  28.571  -3.836  0.00  0.00     0.056 A 
HETATM   20  C   UNK N   1      28.246  28.214  -4.972  0.00  0.00     0.032 A 
HETATM   21  C   UNK N   1      27.613  27.606  -6.052  0.00  0.00     0.011 A 
BRANCH  19  22
HETATM   22  N   UNK N   1      28.201  29.074  -2.681  0.00  0.00    -0.268 N 
HETATM   23  C   UNK N   1      29.521  29.301  -2.571  0.00  0.00     0.118 A 
HETATM   24  C   UNK N   1      29.756  29.855  -1.325  0.00  0.00     0.038 A 
HETATM   25  C   UNK N   1      28.509  29.941  -0.724  0.00  0.00     0.109 A 
HETATM   26  N   UNK N   1      27.587  29.459  -1.575  0.00  0.00    -0.305 N 
ATOM     27  HN  UNK N   1      26.584  29.402  -1.398  1.00  0.00     0.186 HD
ENDBRANCH  19  22
ENDBRANCH  15  16
ENDBRANCH   1  15
BRANCH   1  28
HETATM   28  S   UNK N   1      26.094  24.509  -8.972  0.00  0.00     0.262 S 
HETATM   29  O   UNK N   1      27.420  23.758  -9.153  0.00  0.00    -0.200 OA
HETATM   30  O   UNK N   1      25.042  23.389  -9.027  0.00  0.00    -0.200 OA
BRANCH  28  31
HETATM   31  C   UNK N   1      25.908  25.731 -10.251  0.00  0.00     0.095 A 
HETATM   32  C   UNK N   1      24.640  26.041 -10.741  0.00  0.00     0.028 A 
HETATM   33  C   UNK N   1      24.507  26.950 -11.789  0.00  0.00     0.019 A 
HETATM   34  C   UNK N   1      25.654  27.531 -12.338  0.00  0.00     0.087 A 
HETATM   35  N   UNK N   1      26.883  27.212 -11.848  0.00  0.00    -0.374 N 
HETATM   36  C   UNK N   1      27.032  26.326 -10.826  0.00  0.00     0.112 A 
ATOM     37  HN  UNK N   1      27.711  27.646 -12.257  1.00  0.00     0.164 HD
ENDBRANCH  28  31
ENDBRANCH   1  28
TORSDOF 11
ENDMDL
MODEL 6
REMARK VINA RESULT:      -7.1     11.904     14.721
REMARK  11 active torsions:
REMARK  status: ('A' for Active; 'I' for Inactive)
REMARK    1  A    between atoms: C_3  and  C_12 
REMARK    2  A    between atoms: C_5  and  O_7 
REMARK    3  A    between atoms: O_7  and  C_8 
REMARK    4  A    between atoms: C_8  and  C_9 
REMARK    5  A    between atoms: C_9  and  O_11 
REMARK    6  A    between atoms: C_12  and  N_13 
REMARK    7  A    between atoms: N_13  and  C_14 
REMARK    8  A    between atoms: N_13  and  S_27 
REMARK    9  A    between atoms: C_14  and  C_15 
REMARK   10  A    between atoms: C_18  and  N_21 
REMARK   11  A    between atoms: S_27  and  C_30 
ROOT
HETATM    1  N   UNK N   1      24.839  16.564   5.358  0.00  0.00    -0.298 N 
ENDROOT
BRANCH   1   2
HETATM    2  C   UNK N   1      25.185  16.792   3.962  0.00  0.00     0.174 C 
BRANCH   2   3
HETATM    3  C   UNK N   1      25.270  18.261   3.728  0.00  0.00    -0.037 A 
HETATM    4  C   UNK N   1      26.500  18.928   3.723  0.00  0.00     0.009 A 
HETATM    5  C   UNK N   1      26.549  20.297   3.422  0.00  0.00     0.003 A 
HETATM    6  C   UNK N   1      25.372  20.988   3.107  0.00  0.00     0.037 A 
HETATM    7  C   UNK N   1      24.143  20.316   3.097  0.00  0.00     0.070 A 
HETATM    8  C   UNK N   1      24.105  18.951   3.413  0.00  0.00     0.045 A 
BRANCH   7   9
HETATM    9  O   UNK N   1      23.011  20.980   2.765  0.00  0.00    -0.341 OA
BRANCH   9  10
HETATM   10  C   UNK N   1      21.772  20.372   2.820  0.00  0.00     0.285 C 
BRANCH  10  11
HETATM   11  C   UNK N   1      21.198  20.144   1.461  0.00  0.00     0.164 C 
HETATM   12  O   UNK N   1      21.532  20.839   0.516  0.00  0.00    -0.648 OA
BRANCH  11  13
HETATM   13  O   UNK N   1      20.304  19.153   1.281  0.00  0.00    -0.775 OA
HETATM   14  H   UNK N   1      19.507  19.140   1.773  0.00  0.00     0.167 HD
ENDBRANCH  11  13
ENDBRANCH  10  11
ENDBRANCH   9  10
ENDBRANCH   7   9
ENDBRANCH   2   3
ENDBRANCH   1   2
BRANCH   1  15
HETATM   15  C   UNK N   1      25.817  15.766   6.123  0.00  0.00     0.174 C 
BRANCH  15  16
HETATM   16  C   UNK N   1      27.237  16.276   6.196  0.00  0.00    -0.040 A 
HETATM   17  C   UNK N   1      27.515  17.391   6.998  0.00  0.00     0.011 A 
HETATM   18  C   UNK N   1      28.841  17.781   7.235  0.00  0.00     0.032 A 
HETATM   19  C   UNK N   1      29.902  17.045   6.682  0.00  0.00     0.056 A 
HETATM   20  C   UNK N   1      29.617  15.952   5.860  0.00  0.00     0.032 A 
HETATM   21  C   UNK N   1      28.298  15.573   5.627  0.00  0.00     0.011 A 
BRANCH  19  22
HETATM   22  N   UNK N   1      31.265  17.342   7.019  0.00  0.00    -0.268 N 
HETATM   23  C   UNK N   1      31.734  17.662   8.237  0.00  0.00     0.118 A 
HETATM   24  C   UNK N   1      33.108  17.796   8.142  0.00  0.00     0.038 A 
HETATM   25  C   UNK N   1      33.408  17.535   6.814  0.00  0.00     0.109 A 
HETATM   26  N   UNK N   1      32.266  17.262   6.160  0.00  0.00    -0.305 N 
ATOM     27  HN  UNK N   1      32.186  17.030   5.170  1.00  0.00     0.186 HD
ENDBRANCH  19  22
ENDBRANCH  15  16
ENDBRANCH   1  15
BRANCH   1  28
HETATM   28  S   UNK N   1      23.111  16.224   5.607  0.00  0.00     0.262 S 
HETATM   29  O   UNK N   1      23.008  15.301   6.829  0.00  0.00    -0.200 OA
HETATM   30  O   UNK N   1      22.472  17.533   6.098  0.00  0.00    -0.200 OA
BRANCH  28  31
HETATM   31  C   UNK N   1      22.273  15.492   4.219  0.00  0.00     0.095 A 
HETATM   32  C   UNK N   1      21.520  16.292   3.359  0.00  0.00     0.028 A 
HETATM   33  C   UNK N   1      20.812  15.703   2.312  0.00  0.00     0.019 A 
HETATM   34  C   UNK N   1      20.863  14.315   2.150  0.00  0.00     0.087 A 
HETATM   35  N   UNK N   1      21.599  13.553   3.003  0.00  0.00    -0.374 N 
HETATM   36  C   UNK N   1      22.297  14.111   4.030  0.00  0.00     0.112 A 
ATOM     37  HN  UNK N   1      21.629  12.542   2.870  1.00  0.00     0.164 HD
ENDBRANCH  28  31
ENDBRANCH   1  28
TORSDOF 11
ENDMDL
MODEL 7
REMARK VINA RESULT:      -7.1     14.088     16.294
REMARK  11 active torsions:
REMARK  status: ('A' for Active; 'I' for Inactive)
REMARK    1  A    between atoms: C_3  and  C_12 
REMARK    2  A    between atoms: C_5  and  O_7 
REMARK    3  A    between atoms: O_7  and  C_8 
REMARK    4  A    between atoms: C_8  and  C_9 
REMARK    5  A    between atoms: C_9  and  O_11 
REMARK    6  A    between atoms: C_12  and  N_13 
REMARK    7  A    between atoms: N_13  and  C_14 
REMARK    8  A    between atoms: N_13  and  S_27 
REMARK    9  A    between atoms: C_14  and  C_15 
REMARK   10  A    between atoms: C_18  and  N_21 
REMARK   11  A    between atoms: S_27  and  C_30 
ROOT
HETATM    1  N   UNK N   1      22.913  14.099   7.018  0.00  0.00    -0.298 N 
ENDROOT
BRANCH   1   2
HETATM    2  C   UNK N   1      24.306  14.523   7.032  0.00  0.00     0.174 C 
BRANCH   2   3
HETATM    3  C   UNK N   1      24.668  15.011   5.671  0.00  0.00    -0.037 A 
HETATM    4  C   UNK N   1      24.533  14.193   4.544  0.00  0.00     0.009 A 
HETATM    5  C   UNK N   1      24.810  14.711   3.271  0.00  0.00     0.003 A 
HETATM    6  C   UNK N   1      25.199  16.049   3.127  0.00  0.00     0.037 A 
HETATM    7  C   UNK N   1      25.319  16.870   4.255  0.00  0.00     0.070 A 
HETATM    8  C   UNK N   1      25.054  16.338   5.523  0.00  0.00     0.045 A 
BRANCH   7   9
HETATM    9  O   UNK N   1      25.668  18.170   4.111  0.00  0.00    -0.341 OA
BRANCH   9  10
HETATM   10  C   UNK N   1      24.725  19.154   3.884  0.00  0.00     0.285 C 
BRANCH  10  11
HETATM   11  C   UNK N   1      25.266  20.268   3.048  0.00  0.00     0.164 C 
HETATM   12  O   UNK N   1      26.442  20.583   3.113  0.00  0.00    -0.648 OA
BRANCH  11  13
HETATM   13  O   UNK N   1      24.441  20.924   2.211  0.00  0.00    -0.775 OA
HETATM   14  H   UNK N   1      23.570  20.611   2.064  0.00  0.00     0.167 HD
ENDBRANCH  11  13
ENDBRANCH  10  11
ENDBRANCH   9  10
ENDBRANCH   7   9
ENDBRANCH   2   3
ENDBRANCH   1   2
BRANCH   1  15
HETATM   15  C   UNK N   1      21.936  15.146   7.377  0.00  0.00     0.174 C 
BRANCH  15  16
HETATM   16  C   UNK N   1      21.510  16.111   6.296  0.00  0.00    -0.040 A 
HETATM   17  C   UNK N   1      21.608  17.488   6.541  0.00  0.00     0.011 A 
HETATM   18  C   UNK N   1      21.396  18.408   5.505  0.00  0.00     0.032 A 
HETATM   19  C   UNK N   1      21.100  17.956   4.209  0.00  0.00     0.056 A 
HETATM   20  C   UNK N   1      20.975  16.583   3.978  0.00  0.00     0.032 A 
HETATM   21  C   UNK N   1      21.184  15.676   5.013  0.00  0.00     0.011 A 
BRANCH  19  22
HETATM   22  N   UNK N   1      21.013  18.871   3.107  0.00  0.00    -0.268 N 
HETATM   23  C   UNK N   1      20.471  18.621   1.903  0.00  0.00     0.118 A 
HETATM   24  C   UNK N   1      20.524  19.789   1.162  0.00  0.00     0.038 A 
HETATM   25  C   UNK N   1      21.118  20.724   1.997  0.00  0.00     0.109 A 
HETATM   26  N   UNK N   1      21.401  20.132   3.171  0.00  0.00    -0.305 N 
ATOM     27  HN  UNK N   1      21.840  20.583   3.974  1.00  0.00     0.186 HD
ENDBRANCH  19  22
ENDBRANCH  15  16
ENDBRANCH   1  15
BRANCH   1  28
HETATM   28  S   UNK N   1      22.667  12.468   7.682  0.00  0.00     0.262 S 
HETATM   29  O   UNK N   1      21.187  12.118   7.475  0.00  0.00    -0.200 OA
HETATM   30  O   UNK N   1      23.397  11.496   6.742  0.00  0.00    -0.200 OA
BRANCH  28  31
HETATM   31  C   UNK N   1      23.103  12.273   9.396  0.00  0.00     0.095 A 
HETATM   32  C   UNK N   1      22.102  12.145  10.359  0.00  0.00     0.028 A 
HETATM   33  C   UNK N   1      22.449  12.060  11.707  0.00  0.00     0.019 A 
HETATM   34  C   UNK N   1      23.797  12.113  12.070  0.00  0.00     0.087 A 
HETATM   35  N   UNK N   1      24.758  12.244  11.115  0.00  0.00    -0.374 N 
HETATM   36  C   UNK N   1      24.439  12.328   9.794  0.00  0.00     0.112 A 
ATOM     37  HN  UNK N   1      25.738  12.278  11.394  1.00  0.00     0.164 HD
ENDBRANCH  28  31
ENDBRANCH   1  28
TORSDOF 11
ENDMDL
MODEL 8
REMARK VINA RESULT:      -6.9     13.216     14.701
REMARK  11 active torsions:
REMARK  status: ('A' for Active; 'I' for Inactive)
REMARK    1  A    between atoms: C_3  and  C_12 
REMARK    2  A    between atoms: C_5  and  O_7 
REMARK    3  A    between atoms: O_7  and  C_8 
REMARK    4  A    between atoms: C_8  and  C_9 
REMARK    5  A    between atoms: C_9  and  O_11 
REMARK    6  A    between atoms: C_12  and  N_13 
REMARK    7  A    between atoms: N_13  and  C_14 
REMARK    8  A    between atoms: N_13  and  S_27 
REMARK    9  A    between atoms: C_14  and  C_15 
REMARK   10  A    between atoms: C_18  and  N_21 
REMARK   11  A    between atoms: S_27  and  C_30 
ROOT
HETATM    1  N   UNK N   1      20.630  16.218   3.024  0.00  0.00    -0.298 N 
ENDROOT
BRANCH   1   2
HETATM    2  C   UNK N   1      19.613  15.699   3.928  0.00  0.00     0.174 C 
BRANCH   2   3
HETATM    3  C   UNK N   1      20.280  15.243   5.181  0.00  0.00    -0.037 A 
HETATM    4  C   UNK N   1      21.297  14.283   5.157  0.00  0.00     0.009 A 
HETATM    5  C   UNK N   1      21.954  13.935   6.346  0.00  0.00     0.003 A 
HETATM    6  C   UNK N   1      21.607  14.564   7.549  0.00  0.00     0.037 A 
HETATM    7  C   UNK N   1      20.600  15.537   7.568  0.00  0.00     0.070 A 
HETATM    8  C   UNK N   1      19.940  15.865   6.377  0.00  0.00     0.045 A 
BRANCH   7   9
HETATM    9  O   UNK N   1      20.286  16.163   8.727  0.00  0.00    -0.341 OA
BRANCH   9  10
HETATM   10  C   UNK N   1      19.204  17.017   8.819  0.00  0.00     0.285 C 
BRANCH  10  11
HETATM   11  C   UNK N   1      19.625  18.433   9.041  0.00  0.00     0.164 C 
HETATM   12  O   UNK N   1      20.403  18.981   8.279  0.00  0.00    -0.648 OA
BRANCH  11  13
HETATM   13  O   UNK N   1      19.131  19.109  10.095  0.00  0.00    -0.775 OA
HETATM   14  H   UNK N   1      19.572  19.085  10.922  0.00  0.00     0.167 HD
ENDBRANCH  11  13
ENDBRANCH  10  11
ENDBRANCH   9  10
ENDBRANCH   7   9
ENDBRANCH   2   3
ENDBRANCH   1   2
BRANCH   1  15
HETATM   15  C   UNK N   1      20.868  17.672   3.116  0.00  0.00     0.174 C 
BRANCH  15  16
HETATM   16  C   UNK N   1      22.265  18.136   3.451  0.00  0.00    -0.040 A 
HETATM   17  C   UNK N   1      22.616  19.468   3.192  0.00  0.00     0.011 A 
HETATM   18  C   UNK N   1      23.836  19.982   3.653  0.00  0.00     0.032 A 
HETATM   19  C   UNK N   1      24.709  19.168   4.393  0.00  0.00     0.056 A 
HETATM   20  C   UNK N   1      24.367  17.833   4.623  0.00  0.00     0.032 A 
HETATM   21  C   UNK N   1      23.155  17.330   4.158  0.00  0.00     0.011 A 
BRANCH  19  22
HETATM   22  N   UNK N   1      25.898  19.707   4.990  0.00  0.00    -0.268 N 
HETATM   23  C   UNK N   1      27.051  19.990   4.359  0.00  0.00     0.118 A 
HETATM   24  C   UNK N   1      27.910  20.561   5.281  0.00  0.00     0.038 A 
HETATM   25  C   UNK N   1      27.198  20.599   6.470  0.00  0.00     0.109 A 
HETATM   26  N   UNK N   1      25.979  20.073   6.257  0.00  0.00    -0.305 N 
ATOM     27  HN  UNK N   1      25.242  19.975   6.956  1.00  0.00     0.186 HD
ENDBRANCH  19  22
ENDBRANCH  15  16
ENDBRANCH   1  15
BRANCH   1  28
HETATM   28  S   UNK N   1      20.570  15.485   1.404  0.00  0.00     0.262 S 
HETATM   29  O   UNK N   1      19.235  14.735   1.302  0.00  0.00    -0.200 OA
HETATM   30  O   UNK N   1      20.405  16.641   0.405  0.00  0.00    -0.200 OA
BRANCH  28  31
HETATM   31  C   UNK N   1      21.915  14.387   1.017  0.00  0.00     0.095 A 
HETATM   32  C   UNK N   1      21.652  13.108   0.528  0.00  0.00     0.028 A 
HETATM   33  C   UNK N   1      22.708  12.229   0.290  0.00  0.00     0.019 A 
HETATM   34  C   UNK N   1      24.016  12.647   0.555  0.00  0.00     0.087 A 
HETATM   35  N   UNK N   1      24.250  13.898   1.036  0.00  0.00    -0.374 N 
HETATM   36  C   UNK N   1      23.232  14.769   1.274  0.00  0.00     0.112 A 
ATOM     37  HN  UNK N   1      25.210  14.189   1.222  1.00  0.00     0.164 HD
ENDBRANCH  28  31
ENDBRANCH   1  28
TORSDOF 11
ENDMDL
MODEL 9
REMARK VINA RESULT:      -6.9      2.965      6.795
REMARK  11 active torsions:
REMARK  status: ('A' for Active; 'I' for Inactive)
REMARK    1  A    between atoms: C_3  and  C_12 
REMARK    2  A    between atoms: C_5  and  O_7 
REMARK    3  A    between atoms: O_7  and  C_8 
REMARK    4  A    between atoms: C_8  and  C_9 
REMARK    5  A    between atoms: C_9  and  O_11 
REMARK    6  A    between atoms: C_12  and  N_13 
REMARK    7  A    between atoms: N_13  and  C_14 
REMARK    8  A    between atoms: N_13  and  S_27 
REMARK    9  A    between atoms: C_14  and  C_15 
REMARK   10  A    between atoms: C_18  and  N_21 
REMARK   11  A    between atoms: S_27  and  C_30 
ROOT
HETATM    1  N   UNK N   1      26.312  25.536  -4.624  0.00  0.00    -0.298 N 
ENDROOT
BRANCH   1   2
HETATM    2  C   UNK N   1      25.406  24.617  -5.299  0.00  0.00     0.174 C 
BRANCH   2   3
HETATM    3  C   UNK N   1      26.043  24.172  -6.571  0.00  0.00    -0.037 A 
HETATM    4  C   UNK N   1      25.910  24.913  -7.751  0.00  0.00     0.009 A 
HETATM    5  C   UNK N   1      26.586  24.505  -8.909  0.00  0.00     0.003 A 
HETATM    6  C   UNK N   1      27.409  23.372  -8.879  0.00  0.00     0.037 A 
HETATM    7  C   UNK N   1      27.554  22.641  -7.693  0.00  0.00     0.070 A 
HETATM    8  C   UNK N   1      26.861  23.049  -6.546  0.00  0.00     0.045 A 
BRANCH   7   9
HETATM    9  O   UNK N   1      28.371  21.562  -7.659  0.00  0.00    -0.341 OA
BRANCH   9  10
HETATM   10  C   UNK N   1      29.513  21.542  -6.881  0.00  0.00     0.285 C 
BRANCH  10  11
HETATM   11  C   UNK N   1      30.056  20.161  -6.717  0.00  0.00     0.164 C 
HETATM   12  O   UNK N   1      29.656  19.244  -7.415  0.00  0.00    -0.648 OA
BRANCH  11  13
HETATM   13  O   UNK N   1      31.004  19.931  -5.789  0.00  0.00    -0.775 OA
HETATM   14  H   UNK N   1      31.813  19.524  -6.029  0.00  0.00     0.167 HD
ENDBRANCH  11  13
ENDBRANCH  10  11
ENDBRANCH   9  10
ENDBRANCH   7   9
ENDBRANCH   2   3
ENDBRANCH   1   2
BRANCH   1  15
HETATM   15  C   UNK N   1      26.858  25.047  -3.342  0.00  0.00     0.174 C 
BRANCH  15  16
HETATM   16  C   UNK N   1      28.257  24.477  -3.345  0.00  0.00    -0.040 A 
HETATM   17  C   UNK N   1      28.557  23.418  -2.478  0.00  0.00     0.011 A 
HETATM   18  C   UNK N   1      29.783  22.744  -2.580  0.00  0.00     0.032 A 
HETATM   19  C   UNK N   1      30.712  23.117  -3.565  0.00  0.00     0.056 A 
HETATM   20  C   UNK N   1      30.418  24.193  -4.407  0.00  0.00     0.032 A 
HETATM   21  C   UNK N   1      29.201  24.858  -4.297  0.00  0.00     0.011 A 
BRANCH  19  22
HETATM   22  N   UNK N   1      31.912  22.358  -3.776  0.00  0.00    -0.268 N 
HETATM   23  C   UNK N   1      32.896  22.646  -4.645  0.00  0.00     0.118 A 
HETATM   24  C   UNK N   1      33.898  21.707  -4.479  0.00  0.00     0.038 A 
HETATM   25  C   UNK N   1      33.448  20.867  -3.472  0.00  0.00     0.109 A 
HETATM   26  N   UNK N   1      32.238  21.292  -3.067  0.00  0.00    -0.305 N 
ATOM     27  HN  UNK N   1      31.670  20.865  -2.335  1.00  0.00     0.186 HD
ENDBRANCH  19  22
ENDBRANCH  15  16
ENDBRANCH   1  15
BRANCH   1  28
HETATM   28  S   UNK N   1      25.788  27.233  -4.712  0.00  0.00     0.262 S 
HETATM   29  O   UNK N   1      24.446  27.249  -5.458  0.00  0.00    -0.200 OA
HETATM   30  O   UNK N   1      25.404  27.650  -3.284  0.00  0.00    -0.200 OA
BRANCH  28  31
HETATM   31  C   UNK N   1      26.934  28.342  -5.501  0.00  0.00     0.095 A 
HETATM   32  C   UNK N   1      27.546  27.975  -6.699  0.00  0.00     0.028 A 
HETATM   33  C   UNK N   1      28.493  28.818  -7.277  0.00  0.00     0.019 A 
HETATM   34  C   UNK N   1      28.820  30.017  -6.637  0.00  0.00     0.087 A 
HETATM   35  N   UNK N   1      28.214  30.355  -5.466  0.00  0.00    -0.374 N 
HETATM   36  C   UNK N   1      27.287  29.544  -4.888  0.00  0.00     0.112 A 
ATOM     37  HN  UNK N   1      28.460  31.235  -5.013  1.00  0.00     0.164 HD
ENDBRANCH  28  31
ENDBRANCH   1  28
TORSDOF 11
ENDMDL
