REMARK  2 active torsions:
REMARK  status: ('A' for Active; 'I' for Inactive)
REMARK    1  A    between atoms: C_3  and  N_2 
REMARK    2  A    between atoms: C_3  and  C_22 
ROOT
HETATM    1  C   UNK N   1       5.026   1.716   0.281  0.00  0.00     0.186 C 
HETATM    2  C   UNK N   1       4.449   0.854   1.441  0.00  0.00     0.050 C 
HETATM    3  C   UNK N   1       4.352  -0.649   1.137  0.00  0.00     0.047 C 
HETATM    4  C   UNK N   1       3.587  -0.928  -0.164  0.00  0.00     0.103 C 
HETATM    5  O   UNK N   1       3.699  -2.310  -0.515  0.00  0.00    -0.373 OA
HETATM    6  C   UNK N   1       2.705  -3.121   0.095  0.00  0.00     0.174 C 
HETATM    7  C   UNK N   1       1.308  -2.817  -0.473  0.00  0.00     0.068 C 
HETATM    8  C   UNK N   1       1.093  -1.360  -0.288  0.00  0.00    -0.018 A 
HETATM    9  C   UNK N   1       2.133  -0.484  -0.100  0.00  0.00     0.052 A 
HETATM   10  N   UNK N   1       1.679   0.781   0.076  0.00  0.00    -0.356 N 
HETATM   11  C   UNK N   1       0.339   0.691  -0.034  0.00  0.00     0.043 A 
HETATM   12  C   UNK N   1      -0.052  -0.604  -0.267  0.00  0.00     0.002 A 
HETATM   13  C   UNK N   1      -1.391  -0.944  -0.443  0.00  0.00     0.056 A 
HETATM   14  C   UNK N   1      -2.341   0.095  -0.381  0.00  0.00     0.117 A 
HETATM   15  C   UNK N   1      -1.933   1.427  -0.134  0.00  0.00     0.044 A 
HETATM   16  C   UNK N   1      -0.573   1.735   0.045  0.00  0.00     0.033 A 
HETATM   17  F   UNK N   1      -3.653  -0.179  -0.569  0.00  0.00    -0.206 F 
HETATM   18  C   UNK N   1       4.270  -0.147  -1.290  0.00  0.00     0.047 C 
HETATM   19  C   UNK N   1       4.260   1.355  -1.008  0.00  0.00     0.050 C 
HETATM   20  H   UNK N   1       2.212   1.590   0.247  0.00  0.00     0.166 HD
ENDROOT
BRANCH   1  21
HETATM   21  N   UNK N   1       4.748   3.135   0.629  0.00  0.00     0.094 N 
HETATM   22  C   UNK N   1       4.943   4.073  -0.474  0.00  0.00     0.310 C 
HETATM   23  C   UNK N   1       5.554   3.598   1.755  0.00  0.00     0.310 C 
ENDBRANCH   1  21
BRANCH   1  24
HETATM   24  C   UNK N   1       6.520   1.470   0.028  0.00  0.00    -0.020 A 
HETATM   25  C   UNK N   1       7.172   2.145  -1.020  0.00  0.00     0.010 A 
HETATM   26  C   UNK N   1       8.526   1.927  -1.278  0.00  0.00     0.001 A 
HETATM   27  C   UNK N   1       9.248   1.028  -0.492  0.00  0.00     0.000 A 
HETATM   28  C   UNK N   1       8.616   0.349   0.553  0.00  0.00     0.001 A 
HETATM   29  C   UNK N   1       7.260   0.568   0.813  0.00  0.00     0.010 A 
ENDBRANCH   1  24
TORSDOF 2
