REMARK  9 active torsions:
REMARK  status: ('A' for Active; 'I' for Inactive)
REMARK    1  A    between atoms: O_2  and  C_3 
REMARK    2  A    between atoms: C_5  and  N_30 
REMARK    3  A    between atoms: C_8  and  C_9 
REMARK       I    between atoms: C_9  and  N_11 
REMARK    4  A    between atoms: N_11  and  C_12 
REMARK    5  A    between atoms: C_12  and  C_13 
REMARK    6  A    between atoms: N_16  and  C_19 
REMARK    7  A    between atoms: C_19  and  C_20 
REMARK    8  A    between atoms: C_20  and  C_21 
REMARK    9  A    between atoms: C_21  and  N_22 
ROOT
HETATM    1  C   UNK N   1      -1.482   7.664   0.080  0.00  0.00     0.127 C 
ENDROOT
BRANCH   1   2
HETATM    2  N   UNK N   1      -1.652   9.085   0.190  0.00  0.00    -0.356 N 
HETATM    3  C   UNK N   1      -2.776   9.802  -0.025  0.00  0.00     0.254 C 
HETATM    4  O   UNK N   1      -3.817   9.236  -0.308  0.00  0.00    -0.268 OA
HETATM    5  H   UNK N   1      -0.854   9.597   0.455  0.00  0.00     0.162 HD
BRANCH   3   6
HETATM    6  C   UNK N   1      -2.633  11.293   0.011  0.00  0.00     0.067 A 
HETATM    7  C   UNK N   1      -1.296  11.730   0.095  0.00  0.00     0.046 A 
HETATM    8  C   UNK N   1      -0.942  13.067   0.080  0.00  0.00     0.061 A 
HETATM    9  C   UNK N   1      -1.935  14.035  -0.023  0.00  0.00     0.050 A 
HETATM   10 Cl   UNK N   1       0.759  13.494   0.171  0.00  0.00    -0.082 Cl
HETATM   11  C   UNK N   1      -3.275  13.648  -0.100  0.00  0.00     0.068 A 
HETATM   12  C   UNK N   1      -3.661  12.296  -0.078  0.00  0.00     0.086 A 
BRANCH   9  13
HETATM   13  N   UNK N   1      -1.599  15.404  -0.048  0.00  0.00    -0.398 N 
HETATM   14  H   UNK N   1      -0.654  15.678  -0.065  0.00  0.00     0.156 HD
HETATM   15  H   UNK N   1      -2.309  16.085  -0.048  0.00  0.00     0.156 HD
ENDBRANCH   9  13
BRANCH  12  16
HETATM   16  O   UNK N   1      -5.001  12.069  -0.138  0.00  0.00    -0.355 OA
HETATM   17  C   UNK N   1      -5.677  10.942   0.249  0.00  0.00     0.210 C 
ENDBRANCH  12  16
ENDBRANCH   3   6
ENDBRANCH   1   2
BRANCH   1  18
HETATM   18  C   UNK N   1      -0.004   7.422   0.355  0.00  0.00     0.007 C 
HETATM   19  C   UNK N   1       0.874   8.277  -0.564  0.00  0.00     0.036 C 
HETATM   20  C   UNK N   1       2.328   8.090  -0.167  0.00  0.00     0.273 C 
HETATM   21  N   UNK N   1       2.698   6.687  -0.315  0.00  0.00     0.088 N 
HETATM   22  C   UNK N   1       1.895   5.882   0.613  0.00  0.00     0.273 C 
HETATM   23  C   UNK N   1       0.409   5.965   0.251  0.00  0.00     0.036 C 
BRANCH  21  24
HETATM   24  C   UNK N   1       4.094   6.588   0.077  0.00  0.00     0.274 C 
BRANCH  24  25
HETATM   25  C   UNK N   1       4.741   5.373  -0.561  0.00  0.00     0.052 C 
BRANCH  25  26
HETATM   26  C   UNK N   1       4.914   4.283   0.480  0.00  0.00     0.151 C 
BRANCH  26  27
HETATM   27  N   UNK N   1       4.079   3.136   0.163  0.00  0.00    -0.288 N 
HETATM   28  C   UNK N   1       4.510   1.893  -0.096  0.00  0.00     0.130 A 
HETATM   29  C   UNK N   1       3.377   1.129  -0.321  0.00  0.00     0.127 A 
HETATM   30  N   UNK N   1       2.309   1.943  -0.184  0.00  0.00    -0.296 N 
HETATM   31  N   UNK N   1       2.762   3.150   0.111  0.00  0.00    -0.241 N 
ATOM     32  HN  UNK N   1       1.330   1.676  -0.289  1.00  0.00     0.187 HD
ATOM     33  HN  UNK N   1       2.178   3.971   0.273  1.00  0.00     0.208 HD
ENDBRANCH  26  27
ENDBRANCH  25  26
ENDBRANCH  24  25
ENDBRANCH  21  24
ENDBRANCH   1  18
TORSDOF 9
