MODEL 1
REMARK VINA RESULT:      -5.8      0.000      0.000
REMARK  7 active torsions:
REMARK  status: ('A' for Active; 'I' for Inactive)
REMARK    1  A    between atoms: C_2  and  C_3 
REMARK    2  A    between atoms: C_2  and  N_17 
REMARK    3  A    between atoms: C_6  and  C_9 
REMARK    4  A    between atoms: C_9  and  C_10 
REMARK    5  A    between atoms: C_9  and  O_16 
REMARK    6  A    between atoms: C_10  and  N_11 
REMARK    7  A    between atoms: N_11  and  C_12 
ROOT
HETATM    1  C   UNK N   1      32.276  17.423   7.532  0.00  0.00    -0.036 A 
HETATM    2  C   UNK N   1      31.359  17.004   6.557  0.00  0.00     0.010 A 
HETATM    3  C   UNK N   1      29.988  17.214   6.736  0.00  0.00     0.010 A 
HETATM    4  C   UNK N   1      29.518  17.858   7.889  0.00  0.00    -0.028 A 
HETATM    5  C   UNK N   1      30.434  18.271   8.866  0.00  0.00     0.010 A 
HETATM    6  C   UNK N   1      31.803  18.056   8.689  0.00  0.00     0.010 A 
ENDROOT
BRANCH   4   7
HETATM    7  C   UNK N   1      28.040  18.095   8.062  0.00  0.00     0.168 C 
BRANCH   7   8
HETATM    8  C   UNK N   1      27.634  19.450   7.507  0.00  0.00     0.151 C 
BRANCH   8   9
HETATM    9  N   UNK N   1      26.679  19.255   6.418  0.00  0.00    -0.411 N 
HETATM   10  H   UNK N   1      25.969  18.523   6.406  0.00  0.00     0.154 HD
BRANCH   9  11
HETATM   11  C   UNK N   1      26.862  20.237   5.345  0.00  0.00     0.014 C 
HETATM   12  C   UNK N   1      27.080  21.596   5.976  0.00  0.00     0.037 C 
HETATM   13  C   UNK N   1      28.082  19.917   4.491  0.00  0.00     0.037 C 
HETATM   14  C   UNK N   1      25.623  20.315   4.468  0.00  0.00     0.037 C 
ENDBRANCH   9  11
ENDBRANCH   8   9
ENDBRANCH   7   8
BRANCH   7  15
HETATM   15  O   UNK N   1      27.666  18.020   9.407  0.00  0.00    -0.389 OA
HETATM   16  H   UNK N   1      26.938  17.469   9.735  0.00  0.00     0.210 HD
ENDBRANCH   7  15
ENDBRANCH   4   7
BRANCH   1  17
HETATM   17  C   UNK N   1      33.760  17.237   7.347  0.00  0.00     0.103 C 
HETATM   18  C   UNK N   1      34.541  18.303   8.095  0.00  0.00     0.037 C 
BRANCH  17  19
HETATM   19  N   UNK N   1      34.204  15.922   7.786  0.00  0.00    -0.422 N 
HETATM   20  H   UNK N   1      34.116  15.095   7.197  0.00  0.00     0.150 HD
HETATM   21  H   UNK N   1      34.616  15.825   8.715  0.00  0.00     0.150 HD
ENDBRANCH  17  19
ENDBRANCH   1  17
TORSDOF 7
ENDMDL
MODEL 2
REMARK VINA RESULT:      -5.4      6.474      8.845
REMARK  7 active torsions:
REMARK  status: ('A' for Active; 'I' for Inactive)
REMARK    1  A    between atoms: C_2  and  C_3 
REMARK    2  A    between atoms: C_2  and  N_17 
REMARK    3  A    between atoms: C_6  and  C_9 
REMARK    4  A    between atoms: C_9  and  C_10 
REMARK    5  A    between atoms: C_9  and  O_16 
REMARK    6  A    between atoms: C_10  and  N_11 
REMARK    7  A    between atoms: N_11  and  C_12 
ROOT
HETATM    1  C   UNK N   1      35.472  12.687  14.141  0.00  0.00    -0.036 A 
HETATM    2  C   UNK N   1      36.221  13.833  14.444  0.00  0.00     0.010 A 
HETATM    3  C   UNK N   1      36.341  14.869  13.512  0.00  0.00     0.010 A 
HETATM    4  C   UNK N   1      35.702  14.777  12.268  0.00  0.00    -0.028 A 
HETATM    5  C   UNK N   1      34.958  13.628  11.963  0.00  0.00     0.010 A 
HETATM    6  C   UNK N   1      34.843  12.591  12.892  0.00  0.00     0.010 A 
ENDROOT
BRANCH   4   7
HETATM    7  C   UNK N   1      35.823  15.908  11.280  0.00  0.00     0.168 C 
BRANCH   7   8
HETATM    8  C   UNK N   1      34.874  15.715  10.109  0.00  0.00     0.151 C 
BRANCH   8   9
HETATM    9  N   UNK N   1      34.014  16.892   9.991  0.00  0.00    -0.411 N 
HETATM   10  H   UNK N   1      33.583  17.364  10.785  0.00  0.00     0.154 HD
BRANCH   9  11
HETATM   11  C   UNK N   1      33.847  17.311   8.597  0.00  0.00     0.014 C 
HETATM   12  C   UNK N   1      34.194  16.139   7.703  0.00  0.00     0.037 C 
HETATM   13  C   UNK N   1      32.410  17.716   8.299  0.00  0.00     0.037 C 
HETATM   14  C   UNK N   1      34.787  18.457   8.261  0.00  0.00     0.037 C 
ENDBRANCH   9  11
ENDBRANCH   8   9
ENDBRANCH   7   8
BRANCH   7  15
HETATM   15  O   UNK N   1      37.129  16.023  10.796  0.00  0.00    -0.389 OA
HETATM   16  H   UNK N   1      37.422  15.670   9.941  0.00  0.00     0.210 HD
ENDBRANCH   7  15
ENDBRANCH   4   7
BRANCH   1  17
HETATM   17  C   UNK N   1      35.301  11.572  15.140  0.00  0.00     0.103 C 
HETATM   18  C   UNK N   1      35.335  12.104  16.562  0.00  0.00     0.037 C 
BRANCH  17  19
HETATM   19  N   UNK N   1      34.060  10.840  14.933  0.00  0.00    -0.422 N 
HETATM   20  H   UNK N   1      33.927   9.889  15.276  0.00  0.00     0.150 HD
HETATM   21  H   UNK N   1      33.298  11.293  14.428  0.00  0.00     0.150 HD
ENDBRANCH  17  19
ENDBRANCH   1  17
TORSDOF 7
ENDMDL
MODEL 3
REMARK VINA RESULT:      -5.4     10.321     12.988
REMARK  7 active torsions:
REMARK  status: ('A' for Active; 'I' for Inactive)
REMARK    1  A    between atoms: C_2  and  C_3 
REMARK    2  A    between atoms: C_2  and  N_17 
REMARK    3  A    between atoms: C_6  and  C_9 
REMARK    4  A    between atoms: C_9  and  C_10 
REMARK    5  A    between atoms: C_9  and  O_16 
REMARK    6  A    between atoms: C_10  and  N_11 
REMARK    7  A    between atoms: N_11  and  C_12 
ROOT
HETATM    1  C   UNK N   1      35.223  11.667  18.616  0.00  0.00    -0.036 A 
HETATM    2  C   UNK N   1      35.655  11.065  17.424  0.00  0.00     0.010 A 
HETATM    3  C   UNK N   1      36.020  11.849  16.326  0.00  0.00     0.010 A 
HETATM    4  C   UNK N   1      35.969  13.248  16.409  0.00  0.00    -0.028 A 
HETATM    5  C   UNK N   1      35.531  13.849  17.597  0.00  0.00     0.010 A 
HETATM    6  C   UNK N   1      35.161  13.065  18.693  0.00  0.00     0.010 A 
ENDROOT
BRANCH   4   7
HETATM    7  C   UNK N   1      36.382  14.083  15.224  0.00  0.00     0.168 C 
BRANCH   7   8
HETATM    8  C   UNK N   1      36.545  13.224  13.981  0.00  0.00     0.151 C 
BRANCH   8   9
HETATM    9  N   UNK N   1      36.879  14.084  12.846  0.00  0.00    -0.411 N 
HETATM   10  H   UNK N   1      37.195  15.050  12.936  0.00  0.00     0.154 HD
BRANCH   9  11
HETATM   11  C   UNK N   1      36.707  13.393  11.565  0.00  0.00     0.014 C 
HETATM   12  C   UNK N   1      35.387  12.652  11.598  0.00  0.00     0.037 C 
HETATM   13  C   UNK N   1      36.664  14.371  10.399  0.00  0.00     0.037 C 
HETATM   14  C   UNK N   1      37.815  12.376  11.347  0.00  0.00     0.037 C 
ENDBRANCH   9  11
ENDBRANCH   8   9
ENDBRANCH   7   8
BRANCH   7  15
HETATM   15  O   UNK N   1      37.578  14.762  15.472  0.00  0.00    -0.389 OA
HETATM   16  H   UNK N   1      38.173  14.557  16.210  0.00  0.00     0.210 HD
ENDBRANCH   7  15
ENDBRANCH   4   7
BRANCH   1  17
HETATM   17  C   UNK N   1      34.856  10.844  19.824  0.00  0.00     0.103 C 
HETATM   18  C   UNK N   1      34.585   9.401  19.439  0.00  0.00     0.037 C 
BRANCH  17  19
HETATM   19  N   UNK N   1      35.893  10.881  20.844  0.00  0.00    -0.422 N 
HETATM   20  H   UNK N   1      35.701  11.167  21.804  0.00  0.00     0.150 HD
HETATM   21  H   UNK N   1      36.844  10.613  20.590  0.00  0.00     0.150 HD
ENDBRANCH  17  19
ENDBRANCH   1  17
TORSDOF 7
ENDMDL
MODEL 4
REMARK VINA RESULT:      -5.4     11.090     13.570
REMARK  7 active torsions:
REMARK  status: ('A' for Active; 'I' for Inactive)
REMARK    1  A    between atoms: C_2  and  C_3 
REMARK    2  A    between atoms: C_2  and  N_17 
REMARK    3  A    between atoms: C_6  and  C_9 
REMARK    4  A    between atoms: C_9  and  C_10 
REMARK    5  A    between atoms: C_9  and  O_16 
REMARK    6  A    between atoms: C_10  and  N_11 
REMARK    7  A    between atoms: N_11  and  C_12 
ROOT
HETATM    1  C   UNK N   1      35.337  11.490  18.858  0.00  0.00    -0.036 A 
HETATM    2  C   UNK N   1      35.942  10.677  17.887  0.00  0.00     0.010 A 
HETATM    3  C   UNK N   1      36.272  11.197  16.633  0.00  0.00     0.010 A 
HETATM    4  C   UNK N   1      36.013  12.542  16.335  0.00  0.00    -0.028 A 
HETATM    5  C   UNK N   1      35.402  13.353  17.302  0.00  0.00     0.010 A 
HETATM    6  C   UNK N   1      35.067  12.831  18.554  0.00  0.00     0.010 A 
ENDROOT
BRANCH   4   7
HETATM    7  C   UNK N   1      36.391  13.096  14.985  0.00  0.00     0.168 C 
BRANCH   7   8
HETATM    8  C   UNK N   1      36.439  11.997  13.938  0.00  0.00     0.151 C 
BRANCH   8   9
HETATM    9  N   UNK N   1      35.170  11.971  13.212  0.00  0.00    -0.411 N 
HETATM   10  H   UNK N   1      34.807  12.757  12.672  0.00  0.00     0.154 HD
BRANCH   9  11
HETATM   11  C   UNK N   1      34.483  10.684  13.352  0.00  0.00     0.014 C 
HETATM   12  C   UNK N   1      35.522   9.618  13.629  0.00  0.00     0.037 C 
HETATM   13  C   UNK N   1      33.502  10.693  14.516  0.00  0.00     0.037 C 
HETATM   14  C   UNK N   1      33.759  10.317  12.068  0.00  0.00     0.037 C 
ENDBRANCH   9  11
ENDBRANCH   8   9
ENDBRANCH   7   8
BRANCH   7  15
HETATM   15  O   UNK N   1      37.629  13.742  15.028  0.00  0.00    -0.389 OA
HETATM   16  H   UNK N   1      38.250  13.672  15.771  0.00  0.00     0.210 HD
ENDBRANCH   7  15
ENDBRANCH   4   7
BRANCH   1  17
HETATM   17  C   UNK N   1      35.001  10.961  20.228  0.00  0.00     0.103 C 
HETATM   18  C   UNK N   1      34.397   9.571  20.144  0.00  0.00     0.037 C 
BRANCH  17  19
HETATM   19  N   UNK N   1      36.166  10.925  21.099  0.00  0.00    -0.422 N 
HETATM   20  H   UNK N   1      36.812  11.710  21.174  0.00  0.00     0.150 HD
HETATM   21  H   UNK N   1      36.343  10.086  21.651  0.00  0.00     0.150 HD
ENDBRANCH  17  19
ENDBRANCH   1  17
TORSDOF 7
ENDMDL
MODEL 5
REMARK VINA RESULT:      -5.3     11.019     13.757
REMARK  7 active torsions:
REMARK  status: ('A' for Active; 'I' for Inactive)
REMARK    1  A    between atoms: C_2  and  C_3 
REMARK    2  A    between atoms: C_2  and  N_17 
REMARK    3  A    between atoms: C_6  and  C_9 
REMARK    4  A    between atoms: C_9  and  C_10 
REMARK    5  A    between atoms: C_9  and  O_16 
REMARK    6  A    between atoms: C_10  and  N_11 
REMARK    7  A    between atoms: N_11  and  C_12 
ROOT
HETATM    1  C   UNK N   1      27.397  23.873  -5.386  0.00  0.00    -0.036 A 
HETATM    2  C   UNK N   1      28.548  23.250  -5.889  0.00  0.00     0.010 A 
HETATM    3  C   UNK N   1      29.611  22.930  -5.039  0.00  0.00     0.010 A 
HETATM    4  C   UNK N   1      29.531  23.218  -3.670  0.00  0.00    -0.028 A 
HETATM    5  C   UNK N   1      28.383  23.847  -3.167  0.00  0.00     0.010 A 
HETATM    6  C   UNK N   1      27.323  24.172  -4.018  0.00  0.00     0.010 A 
ENDROOT
BRANCH   4   7
HETATM    7  C   UNK N   1      30.675  22.852  -2.760  0.00  0.00     0.168 C 
BRANCH   7   8
HETATM    8  C   UNK N   1      31.088  21.403  -2.957  0.00  0.00     0.151 C 
BRANCH   8   9
HETATM    9  N   UNK N   1      32.545  21.307  -2.889  0.00  0.00    -0.411 N 
HETATM   10  H   UNK N   1      33.089  21.471  -2.042  0.00  0.00     0.154 HD
BRANCH   9  11
HETATM   11  C   UNK N   1      33.132  20.948  -4.183  0.00  0.00     0.014 C 
HETATM   12  C   UNK N   1      34.321  20.044  -3.932  0.00  0.00     0.037 C 
HETATM   13  C   UNK N   1      32.144  20.188  -5.058  0.00  0.00     0.037 C 
HETATM   14  C   UNK N   1      33.624  22.185  -4.915  0.00  0.00     0.037 C 
ENDBRANCH   9  11
ENDBRANCH   8   9
ENDBRANCH   7   8
BRANCH   7  15
HETATM   15  O   UNK N   1      30.344  23.056  -1.418  0.00  0.00    -0.389 OA
HETATM   16  H   UNK N   1      29.569  22.663  -0.986  0.00  0.00     0.210 HD
ENDBRANCH   7  15
ENDBRANCH   4   7
BRANCH   1  17
HETATM   17  C   UNK N   1      26.226  24.198  -6.276  0.00  0.00     0.103 C 
HETATM   18  C   UNK N   1      25.657  22.941  -6.910  0.00  0.00     0.037 C 
BRANCH  17  19
HETATM   19  N   UNK N   1      25.168  24.890  -5.554  0.00  0.00    -0.422 N 
HETATM   20  H   UNK N   1      25.055  25.903  -5.597  0.00  0.00     0.150 HD
HETATM   21  H   UNK N   1      24.520  24.345  -4.986  0.00  0.00     0.150 HD
ENDBRANCH  17  19
ENDBRANCH   1  17
TORSDOF 7
ENDMDL
MODEL 6
REMARK VINA RESULT:      -5.3     11.033     12.674
REMARK  7 active torsions:
REMARK  status: ('A' for Active; 'I' for Inactive)
REMARK    1  A    between atoms: C_2  and  C_3 
REMARK    2  A    between atoms: C_2  and  N_17 
REMARK    3  A    between atoms: C_6  and  C_9 
REMARK    4  A    between atoms: C_9  and  C_10 
REMARK    5  A    between atoms: C_9  and  O_16 
REMARK    6  A    between atoms: C_10  and  N_11 
REMARK    7  A    between atoms: N_11  and  C_12 
ROOT
HETATM    1  C   UNK N   1      31.145  21.986  -3.840  0.00  0.00    -0.036 A 
HETATM    2  C   UNK N   1      30.438  22.239  -5.025  0.00  0.00     0.010 A 
HETATM    3  C   UNK N   1      29.242  22.963  -4.997  0.00  0.00     0.010 A 
HETATM    4  C   UNK N   1      28.745  23.456  -3.783  0.00  0.00    -0.028 A 
HETATM    5  C   UNK N   1      29.448  23.199  -2.597  0.00  0.00     0.010 A 
HETATM    6  C   UNK N   1      30.639  22.469  -2.626  0.00  0.00     0.010 A 
ENDROOT
BRANCH   4   7
HETATM    7  C   UNK N   1      27.465  24.252  -3.767  0.00  0.00     0.168 C 
BRANCH   7   8
HETATM    8  C   UNK N   1      27.743  25.738  -3.921  0.00  0.00     0.151 C 
BRANCH   8   9
HETATM    9  N   UNK N   1      27.140  26.211  -5.167  0.00  0.00    -0.411 N 
HETATM   10  H   UNK N   1      27.326  25.801  -6.082  0.00  0.00     0.154 HD
BRANCH   9  11
HETATM   11  C   UNK N   1      26.237  27.344  -4.943  0.00  0.00     0.014 C 
HETATM   12  C   UNK N   1      26.004  27.479  -3.453  0.00  0.00     0.037 C 
HETATM   13  C   UNK N   1      26.839  28.650  -5.442  0.00  0.00     0.037 C 
HETATM   14  C   UNK N   1      24.894  27.104  -5.613  0.00  0.00     0.037 C 
ENDBRANCH   9  11
ENDBRANCH   8   9
ENDBRANCH   7   8
BRANCH   7  15
HETATM   15  O   UNK N   1      26.747  24.040  -2.587  0.00  0.00    -0.389 OA
HETATM   16  H   UNK N   1      27.091  23.542  -1.828  0.00  0.00     0.210 HD
ENDBRANCH   7  15
ENDBRANCH   4   7
BRANCH   1  17
HETATM   17  C   UNK N   1      32.452  21.236  -3.849  0.00  0.00     0.103 C 
HETATM   18  C   UNK N   1      33.497  21.971  -4.668  0.00  0.00     0.037 C 
BRANCH  17  19
HETATM   19  N   UNK N   1      32.964  21.018  -2.504  0.00  0.00    -0.422 N 
HETATM   20  H   UNK N   1      33.728  21.572  -2.118  0.00  0.00     0.150 HD
HETATM   21  H   UNK N   1      32.545  20.287  -1.929  0.00  0.00     0.150 HD
ENDBRANCH  17  19
ENDBRANCH   1  17
TORSDOF 7
ENDMDL
MODEL 7
REMARK VINA RESULT:      -5.3      2.902      7.016
REMARK  7 active torsions:
REMARK  status: ('A' for Active; 'I' for Inactive)
REMARK    1  A    between atoms: C_2  and  C_3 
REMARK    2  A    between atoms: C_2  and  N_17 
REMARK    3  A    between atoms: C_6  and  C_9 
REMARK    4  A    between atoms: C_9  and  C_10 
REMARK    5  A    between atoms: C_9  and  O_16 
REMARK    6  A    between atoms: C_10  and  N_11 
REMARK    7  A    between atoms: N_11  and  C_12 
ROOT
HETATM    1  C   UNK N   1      29.726  17.553   7.553  0.00  0.00    -0.036 A 
HETATM    2  C   UNK N   1      30.705  17.939   8.481  0.00  0.00     0.010 A 
HETATM    3  C   UNK N   1      32.062  17.871   8.150  0.00  0.00     0.010 A 
HETATM    4  C   UNK N   1      32.457  17.427   6.880  0.00  0.00    -0.028 A 
HETATM    5  C   UNK N   1      31.479  17.036   5.955  0.00  0.00     0.010 A 
HETATM    6  C   UNK N   1      30.124  17.099   6.288  0.00  0.00     0.010 A 
ENDROOT
BRANCH   4   7
HETATM    7  C   UNK N   1      33.922  17.375   6.528  0.00  0.00     0.168 C 
BRANCH   7   8
HETATM    8  C   UNK N   1      34.454  15.955   6.611  0.00  0.00     0.151 C 
BRANCH   8   9
HETATM    9  N   UNK N   1      34.900  15.689   7.978  0.00  0.00    -0.411 N 
HETATM   10  H   UNK N   1      35.598  16.248   8.468  0.00  0.00     0.154 HD
BRANCH   9  11
HETATM   11  C   UNK N   1      34.224  14.525   8.560  0.00  0.00     0.014 C 
HETATM   12  C   UNK N   1      33.469  14.980   9.791  0.00  0.00     0.037 C 
HETATM   13  C   UNK N   1      33.218  13.917   7.593  0.00  0.00     0.037 C 
HETATM   14  C   UNK N   1      35.234  13.473   8.986  0.00  0.00     0.037 C 
ENDBRANCH   9  11
ENDBRANCH   8   9
ENDBRANCH   7   8
BRANCH   7  15
HETATM   15  O   UNK N   1      34.677  18.197   7.370  0.00  0.00    -0.389 OA
HETATM   16  H   UNK N   1      35.513  17.926   7.782  0.00  0.00     0.210 HD
ENDBRANCH   7  15
ENDBRANCH   4   7
BRANCH   1  17
HETATM   17  C   UNK N   1      28.257  17.649   7.874  0.00  0.00     0.103 C 
HETATM   18  C   UNK N   1      28.012  17.478   9.363  0.00  0.00     0.037 C 
BRANCH  17  19
HETATM   19  N   UNK N   1      27.685  18.913   7.437  0.00  0.00    -0.422 N 
HETATM   20  H   UNK N   1      26.689  19.115   7.519  0.00  0.00     0.150 HD
HETATM   21  H   UNK N   1      28.300  19.621   7.036  0.00  0.00     0.150 HD
ENDBRANCH  17  19
ENDBRANCH   1  17
TORSDOF 7
ENDMDL
MODEL 8
REMARK VINA RESULT:      -5.3     12.564     15.147
REMARK  7 active torsions:
REMARK  status: ('A' for Active; 'I' for Inactive)
REMARK    1  A    between atoms: C_2  and  C_3 
REMARK    2  A    between atoms: C_2  and  N_17 
REMARK    3  A    between atoms: C_6  and  C_9 
REMARK    4  A    between atoms: C_9  and  C_10 
REMARK    5  A    between atoms: C_9  and  O_16 
REMARK    6  A    between atoms: C_10  and  N_11 
REMARK    7  A    between atoms: N_11  and  C_12 
ROOT
HETATM    1  C   UNK N   1      34.998  11.691  15.513  0.00  0.00    -0.036 A 
HETATM    2  C   UNK N   1      35.007  12.975  16.077  0.00  0.00     0.010 A 
HETATM    3  C   UNK N   1      35.178  13.143  17.455  0.00  0.00     0.010 A 
HETATM    4  C   UNK N   1      35.355  12.027  18.285  0.00  0.00    -0.028 A 
HETATM    5  C   UNK N   1      35.340  10.743  17.722  0.00  0.00     0.010 A 
HETATM    6  C   UNK N   1      35.163  10.576  16.346  0.00  0.00     0.010 A 
ENDROOT
BRANCH   4   7
HETATM    7  C   UNK N   1      35.556  12.222  19.766  0.00  0.00     0.168 C 
BRANCH   7   8
HETATM    8  C   UNK N   1      35.363  10.917  20.520  0.00  0.00     0.151 C 
BRANCH   8   9
HETATM    9  N   UNK N   1      34.135  10.998  21.309  0.00  0.00    -0.411 N 
HETATM   10  H   UNK N   1      33.734  11.870  21.652  0.00  0.00     0.154 HD
BRANCH   9  11
HETATM   11  C   UNK N   1      33.550   9.675  21.550  0.00  0.00     0.014 C 
HETATM   12  C   UNK N   1      32.320   9.850  22.415  0.00  0.00     0.037 C 
HETATM   13  C   UNK N   1      33.118   9.006  20.252  0.00  0.00     0.037 C 
HETATM   14  C   UNK N   1      34.528   8.780  22.293  0.00  0.00     0.037 C 
ENDBRANCH   9  11
ENDBRANCH   8   9
ENDBRANCH   7   8
BRANCH   7  15
HETATM   15  O   UNK N   1      34.677  13.181  20.278  0.00  0.00    -0.389 OA
HETATM   16  H   UNK N   1      34.962  13.964  20.775  0.00  0.00     0.210 HD
ENDBRANCH   7  15
ENDBRANCH   4   7
BRANCH   1  17
HETATM   17  C   UNK N   1      34.849  11.485  14.028  0.00  0.00     0.103 C 
HETATM   18  C   UNK N   1      33.722  10.515  13.722  0.00  0.00     0.037 C 
BRANCH  17  19
HETATM   19  N   UNK N   1      34.605  12.737  13.326  0.00  0.00    -0.422 N 
HETATM   20  H   UNK N   1      35.008  12.933  12.411  0.00  0.00     0.150 HD
HETATM   21  H   UNK N   1      34.012  13.441  13.765  0.00  0.00     0.150 HD
ENDBRANCH  17  19
ENDBRANCH   1  17
TORSDOF 7
ENDMDL
MODEL 9
REMARK VINA RESULT:      -5.2     15.165     16.845
REMARK  7 active torsions:
REMARK  status: ('A' for Active; 'I' for Inactive)
REMARK    1  A    between atoms: C_2  and  C_3 
REMARK    2  A    between atoms: C_2  and  N_17 
REMARK    3  A    between atoms: C_6  and  C_9 
REMARK    4  A    between atoms: C_9  and  C_10 
REMARK    5  A    between atoms: C_9  and  O_16 
REMARK    6  A    between atoms: C_10  and  N_11 
REMARK    7  A    between atoms: N_11  and  C_12 
ROOT
HETATM    1  C   UNK N   1      26.675  28.069  -5.192  0.00  0.00    -0.036 A 
HETATM    2  C   UNK N   1      27.593  27.995  -6.250  0.00  0.00     0.010 A 
HETATM    3  C   UNK N   1      27.287  27.267  -7.404  0.00  0.00     0.010 A 
HETATM    4  C   UNK N   1      26.052  26.615  -7.521  0.00  0.00    -0.028 A 
HETATM    5  C   UNK N   1      25.136  26.684  -6.461  0.00  0.00     0.010 A 
HETATM    6  C   UNK N   1      25.445  27.406  -5.305  0.00  0.00     0.010 A 
ENDROOT
BRANCH   4   7
HETATM    7  C   UNK N   1      25.726  25.850  -8.778  0.00  0.00     0.168 C 
BRANCH   7   8
HETATM    8  C   UNK N   1      26.249  24.425  -8.701  0.00  0.00     0.151 C 
BRANCH   8   9
HETATM    9  N   UNK N   1      25.181  23.549  -8.221  0.00  0.00    -0.411 N 
HETATM   10  H   UNK N   1      24.211  23.612  -8.529  0.00  0.00     0.154 HD
BRANCH   9  11
HETATM   11  C   UNK N   1      25.670  22.570  -7.246  0.00  0.00     0.014 C 
HETATM   12  C   UNK N   1      24.643  21.464  -7.125  0.00  0.00     0.037 C 
HETATM   13  C   UNK N   1      26.984  21.941  -7.690  0.00  0.00     0.037 C 
HETATM   14  C   UNK N   1      25.840  23.210  -5.878  0.00  0.00     0.037 C 
ENDBRANCH   9  11
ENDBRANCH   8   9
ENDBRANCH   7   8
BRANCH   7  15
HETATM   15  O   UNK N   1      26.262  26.474  -9.907  0.00  0.00    -0.389 OA
HETATM   16  H   UNK N   1      26.048  26.218 -10.819  0.00  0.00     0.210 HD
ENDBRANCH   7  15
ENDBRANCH   4   7
BRANCH   1  17
HETATM   17  C   UNK N   1      26.968  28.873  -3.952  0.00  0.00     0.103 C 
HETATM   18  C   UNK N   1      26.536  30.318  -4.124  0.00  0.00     0.037 C 
BRANCH  17  19
HETATM   19  N   UNK N   1      26.316  28.317  -2.775  0.00  0.00    -0.422 N 
HETATM   20  H   UNK N   1      25.324  28.456  -2.587  0.00  0.00     0.150 HD
HETATM   21  H   UNK N   1      26.871  27.769  -2.117  0.00  0.00     0.150 HD
ENDBRANCH  17  19
ENDBRANCH   1  17
TORSDOF 7
ENDMDL
