REMARK  9 active torsions:
REMARK  status: ('A' for Active; 'I' for Inactive)
REMARK    1  A    between atoms: C_2  and  C_3 
REMARK    2  A    between atoms: C_3  and  N_4 
REMARK    3  A    between atoms: N_9  and  C_12 
REMARK    4  A    between atoms: C_12  and  C_13 
REMARK    5  A    between atoms: C_16  and  C_19 
REMARK    6  A    between atoms: C_22  and  C_27 
REMARK    7  A    between atoms: C_27  and  C_28 
REMARK    8  A    between atoms: C_28  and  C_29 
REMARK    9  A    between atoms: C_29  and  O_31 
ROOT
HETATM    1  N   UNK N   1      -4.116  -4.602  -0.262  0.00  0.00    -0.283 N 
HETATM    2  C   UNK N   1      -3.422  -3.481   0.054  0.00  0.00     0.145 A 
HETATM    3  C   UNK N   1      -2.095  -3.480   0.278  0.00  0.00     0.147 A 
HETATM    4  C   UNK N   1      -1.365  -4.653   0.193  0.00  0.00     0.282 A 
HETATM    5  O   UNK N   1      -0.157  -4.646   0.368  0.00  0.00    -0.265 OA
HETATM    6  N   UNK N   1      -2.039  -5.820  -0.138  0.00  0.00    -0.264 N 
HETATM    7  C   UNK N   1      -3.415  -5.793  -0.367  0.00  0.00     0.333 A 
HETATM    8  O   UNK N   1      -4.002  -6.816  -0.685  0.00  0.00    -0.246 OA
HETATM    9  N   UNK N   1      -1.670  -2.221   0.482  0.00  0.00    -0.338 N 
HETATM   10  C   UNK N   1      -2.808  -1.477   0.396  0.00  0.00     0.092 A 
HETATM   11  N   UNK N   1      -3.899  -2.233   0.109  0.00  0.00    -0.329 N 
ATOM     12  HN  UNK N   1      -4.860  -1.921  -0.032  1.00  0.00     0.168 HD
HETATM   13  H   UNK N   1      -0.752  -1.910   0.654  0.00  0.00     0.167 HD
ENDROOT
BRANCH  10  14
HETATM   14  C   UNK N   1      -2.792  -0.012   0.095  0.00  0.00     0.018 C 
HETATM   15  C   UNK N   1      -4.184   0.624   0.282  0.00  0.00     0.018 C 
HETATM   16  C   UNK N   1      -4.193   2.080  -0.235  0.00  0.00     0.011 C 
HETATM   17  C   UNK N   1      -2.788   2.499  -0.727  0.00  0.00    -0.040 C 
HETATM   18  C   UNK N   1      -1.791   2.298   0.438  0.00  0.00     0.011 C 
HETATM   19  C   UNK N   1      -2.383   1.553  -1.860  0.00  0.00     0.011 C 
HETATM   20  C   UNK N   1      -1.779   0.814   0.913  0.00  0.00     0.018 C 
HETATM   21  C   UNK N   1      -2.409   0.095  -1.391  0.00  0.00     0.018 C 
BRANCH  17  22
HETATM   22  C   UNK N   1      -2.721   3.919  -1.306  0.00  0.00     0.020 C 
BRANCH  22  23
HETATM   23  C   UNK N   1      -3.857   4.860  -0.918  0.00  0.00     0.110 C 
BRANCH  23  24
HETATM   24  C   UNK N   1      -3.727   5.332   0.487  0.00  0.00     0.139 C 
HETATM   25  O   UNK N   1      -4.614   5.097   1.290  0.00  0.00    -0.650 OA
BRANCH  24  26
HETATM   26  O   UNK N   1      -2.647   6.040   0.865  0.00  0.00    -0.776 OA
HETATM   27  H   UNK N   1      -1.844   5.634   1.128  0.00  0.00     0.167 HD
ENDBRANCH  24  26
ENDBRANCH  23  24
ENDBRANCH  22  23
ENDBRANCH  17  22
ENDBRANCH  10  14
BRANCH   1  28
HETATM   28  C   UNK N   1      -5.548  -4.535  -0.553  0.00  0.00     0.135 C 
BRANCH  28  29
HETATM   29  C   UNK N   1      -6.329  -4.078   0.667  0.00  0.00     0.016 C 
HETATM   30  C   UNK N   1      -7.555  -3.311   0.218  0.00  0.00     0.006 C 
ENDBRANCH  28  29
ENDBRANCH   1  28
BRANCH   6  31
HETATM   31  C   UNK N   1      -1.308  -7.077  -0.320  0.00  0.00     0.137 C 
BRANCH  31  32
HETATM   32  C   UNK N   1      -0.717  -7.572   0.985  0.00  0.00     0.016 C 
HETATM   33  C   UNK N   1       0.081  -8.830   0.712  0.00  0.00     0.006 C 
ENDBRANCH  31  32
ENDBRANCH   6  31
TORSDOF 9
