REMARK  5 active torsions:
REMARK  status: ('A' for Active; 'I' for Inactive)
REMARK    1  A    between atoms: C_8  and  C_7 
REMARK    2  A    between atoms: C_8  and  C_9 
REMARK    3  A    between atoms: C_8  and  C_16 
REMARK    4  A    between atoms: C_8  and  O_36 
REMARK    5  A    between atoms: C_22  and  C_28 
ROOT
HETATM    1  C   UNK N   1       2.717   1.188  -0.922  0.00  0.00    -0.024 A 
HETATM    2  C   UNK N   1       1.529   1.910  -1.165  0.00  0.00     0.012 A 
HETATM    3  C   UNK N   1       1.441   3.280  -0.934  0.00  0.00     0.002 A 
HETATM    4  C   UNK N   1       2.543   3.968  -0.433  0.00  0.00     0.020 A 
HETATM    5  C   UNK N   1       3.746   3.290  -0.213  0.00  0.00     0.017 A 
HETATM    6  C   UNK N   1       3.832   1.907  -0.454  0.00  0.00     0.032 A 
HETATM    7  C   UNK N   1       4.900   4.007   0.259  0.00  0.00    -0.078 C 
HETATM    8  C   UNK N   1       5.891   4.571   0.655  0.00  0.00     0.018 C 
ENDROOT
BRANCH   1   9
HETATM    9  C   UNK N   1       2.720  -0.323  -0.800  0.00  0.00    -0.008 A 
HETATM   10  C   UNK N   1       1.548  -0.999  -0.409  0.00  0.00     0.003 A 
HETATM   11  C   UNK N   1       1.613  -2.321   0.084  0.00  0.00     0.048 A 
HETATM   12  C   UNK N   1       0.326  -0.350  -0.418  0.00  0.00     0.025 A 
HETATM   13  C   UNK N   1       0.466  -2.892   0.647  0.00  0.00     0.031 A 
HETATM   14  N   UNK N   1       2.791  -3.008   0.061  0.00  0.00    -0.318 N 
HETATM   15  C   UNK N   1      -0.724  -2.184   0.662  0.00  0.00     0.013 A 
HETATM   16  C   UNK N   1      -0.829  -0.918   0.074  0.00  0.00    -0.012 A 
HETATM   17  C   UNK N   1       3.937  -2.402  -0.411  0.00  0.00     0.248 A 
HETATM   18  C   UNK N   1       2.843  -4.388   0.547  0.00  0.00     0.159 C 
HETATM   19  C   UNK N   1       3.921  -1.051  -0.799  0.00  0.00     0.087 A 
HETATM   20  O   UNK N   1       4.987  -3.021  -0.442  0.00  0.00    -0.268 OA
BRANCH  16  21
HETATM   21  C   UNK N   1      -2.137  -0.132  -0.119  0.00  0.00     0.156 C 
BRANCH  21  22
HETATM   22  C   UNK N   1      -3.369  -1.096   0.030  0.00  0.00     0.072 A 
HETATM   23  C   UNK N   1      -3.335  -2.404   0.513  0.00  0.00     0.118 A 
HETATM   24  N   UNK N   1      -4.490  -3.023   0.220  0.00  0.00    -0.360 N 
HETATM   25  C   UNK N   1      -5.228  -2.114  -0.441  0.00  0.00     0.182 A 
ATOM     26  HN  UNK N   1      -4.752  -3.981   0.451  1.00  0.00     0.166 HD
HETATM   27  N   UNK N   1      -4.572  -0.941  -0.562  0.00  0.00    -0.347 N 
HETATM   28  C   UNK N   1      -5.072   0.192  -1.314  0.00  0.00     0.157 C 
ENDBRANCH  21  22
BRANCH  21  29
HETATM   29  C   UNK N   1      -1.979   1.263   0.605  0.00  0.00    -0.013 A 
HETATM   30  C   UNK N   1      -2.651   2.407   0.116  0.00  0.00     0.012 A 
HETATM   31  C   UNK N   1      -2.206   3.709   0.437  0.00  0.00     0.024 A 
HETATM   32  C   UNK N   1      -1.068   3.899   1.233  0.00  0.00     0.034 A 
HETATM   33  C   UNK N   1      -0.418   2.790   1.767  0.00  0.00     0.024 A 
HETATM   34 Cl   UNK N   1      -0.400   5.510   1.481  0.00  0.00    -0.084 Cl
HETATM   35  C   UNK N   1      -0.862   1.498   1.455  0.00  0.00     0.012 A 
ENDBRANCH  21  29
BRANCH  21  36
HETATM   36  O   UNK N   1      -2.148   0.185  -1.484  0.00  0.00    -0.374 OA
HETATM   37  H   UNK N   1      -1.961   0.302  -2.428  0.00  0.00     0.212 HD
ENDBRANCH  21  36
ENDBRANCH  16  21
ENDBRANCH   1   9
TORSDOF 5
