REMARK  10 active torsions:
REMARK  status: ('A' for Active; 'I' for Inactive)
REMARK    1  A    between atoms: C_1  and  O_28 
REMARK    2  A    between atoms: C_8  and  C_11 
REMARK    3  A    between atoms: C_11  and  C_12 
REMARK    4  A    between atoms: C_12  and  C_13 
REMARK    5  A    between atoms: C_14  and  C_15 
REMARK    6  A    between atoms: C_15  and  C_16 
REMARK    7  A    between atoms: C_16  and  C_17 
REMARK    8  A    between atoms: C_18  and  C_19 
REMARK    9  A    between atoms: C_19  and  C_20 
REMARK   10  A    between atoms: C_20  and  C_21 
ROOT
HETATM    1  C   UNK N   1      -1.619  -2.054  -0.406  0.00  0.00     0.030 C 
ENDROOT
BRANCH   1   2
HETATM    2  C   UNK N   1      -3.111  -2.057  -0.722  0.00  0.00     0.042 C 
BRANCH   2   3
HETATM    3  C   UNK N   1      -3.948  -1.126   0.162  0.00  0.00     0.065 C 
HETATM    4  O   UNK N   1      -5.273  -1.260  -0.225  0.00  0.00    -0.340 OA
HETATM    5  C   UNK N   1      -6.198  -0.270  -0.128  0.00  0.00     0.076 A 
HETATM    6  C   UNK N   1      -7.525  -0.532  -0.479  0.00  0.00     0.040 A 
HETATM    7  C   UNK N   1      -5.835   1.014   0.325  0.00  0.00    -0.022 A 
HETATM    8  C   UNK N   1      -8.489   0.475  -0.375  0.00  0.00     0.039 A 
HETATM    9  C   UNK N   1      -8.128   1.747   0.081  0.00  0.00     0.066 A 
HETATM   10  C   UNK N   1      -6.802   2.016   0.431  0.00  0.00     0.046 A 
HETATM   11  C   UNK N   1      -4.418   1.311   0.694  0.00  0.00     0.044 C 
HETATM   12  C   UNK N   1      -3.479   0.331  -0.001  0.00  0.00     0.043 C 
HETATM   13  C   UNK N   1      -3.815  -1.560   1.617  0.00  0.00     0.046 C 
BRANCH   9  14
HETATM   14  O   UNK N   1      -9.056   2.711   0.183  0.00  0.00    -0.361 OA
HETATM   15  H   UNK N   1      -8.797   3.609   0.254  0.00  0.00     0.217 HD
ENDBRANCH   9  14
ENDBRANCH   2   3
ENDBRANCH   1   2
BRANCH   1  16
HETATM   16  C   UNK N   1      -0.972  -0.845  -1.004  0.00  0.00    -0.024 C 
HETATM   17  C   UNK N   1       0.330  -0.592  -0.885  0.00  0.00    -0.087 C 
HETATM   18  C   UNK N   1       0.881   0.631  -1.538  0.00  0.00     0.043 C 
BRANCH  17  19
HETATM   19  C   UNK N   1       1.237  -1.539  -0.158  0.00  0.00     0.037 C 
BRANCH  19  20
HETATM   20  C   UNK N   1       2.024  -0.833   0.927  0.00  0.00     0.031 C 
BRANCH  20  21
HETATM   21  C   UNK N   1       3.468  -1.052   0.621  0.00  0.00    -0.024 C 
HETATM   22  C   UNK N   1       4.248  -0.091   0.112  0.00  0.00    -0.087 C 
HETATM   23  C   UNK N   1       3.718   1.275  -0.188  0.00  0.00     0.043 C 
BRANCH  22  24
HETATM   24  C   UNK N   1       5.653  -0.406  -0.263  0.00  0.00     0.037 C 
BRANCH  24  25
HETATM   25  C   UNK N   1       6.514  -0.678   0.958  0.00  0.00     0.031 C 
BRANCH  25  26
HETATM   26  C   UNK N   1       7.947  -0.790   0.537  0.00  0.00    -0.024 C 
HETATM   27  C   UNK N   1       8.652   0.243   0.054  0.00  0.00    -0.091 C 
HETATM   28  C   UNK N   1      10.065   0.029  -0.358  0.00  0.00     0.042 C 
HETATM   29  C   UNK N   1       8.056   1.609  -0.088  0.00  0.00     0.042 C 
ENDBRANCH  25  26
ENDBRANCH  24  25
ENDBRANCH  22  24
ENDBRANCH  20  21
ENDBRANCH  19  20
ENDBRANCH  17  19
ENDBRANCH   1  16
TORSDOF 10
