MODEL 1
REMARK VINA RESULT:      -7.1      0.000      0.000
REMARK  4 active torsions:
REMARK  status: ('A' for Active; 'I' for Inactive)
REMARK    1  A    between atoms: C_16  and  C_14 
REMARK    2  A    between atoms: C_21  and  C_14 
REMARK    3  A    between atoms: C_19  and  N_25 
REMARK    4  A    between atoms: C_20  and  N_26 
REMARK       I    between atoms: N_25  and  C_21 
ROOT
HETATM    1  C   UNK N   1      35.319  16.531  10.162  0.00  0.00     0.029 C 
HETATM    2  C   UNK N   1      33.212  15.772   5.944  0.00  0.00     0.030 C 
HETATM    3  C   UNK N   1      34.604  17.347   9.138  0.00  0.00     0.040 C 
HETATM    4  C   UNK N   1      34.134  16.604   6.829  0.00  0.00     0.040 C 
HETATM    5  C   UNK N   1      35.471  15.216   9.452  0.00  0.00     0.168 C 
HETATM    6  C   UNK N   1      32.361  16.384   8.658  0.00  0.00     0.076 C 
HETATM    7  C   UNK N   1      31.715  15.993   6.257  0.00  0.00     0.120 C 
HETATM    8  C   UNK N   1      31.486  16.919   7.512  0.00  0.00     0.248 C 
HETATM    9  C   UNK N   1      33.862  16.318   8.309  0.00  0.00     0.063 C 
HETATM   10  O   UNK N   1      34.344  15.032   8.636  0.00  0.00    -0.380 OA
ENDROOT
BRANCH   7  11
HETATM   11  N   UNK N   1      31.050  16.427   5.026  0.00  0.00    -0.349 N 
HETATM   12  C   UNK N   1      31.662  17.421   4.171  0.00  0.00     0.153 C 
HETATM   13  C   UNK N   1      29.897  15.816   4.617  0.00  0.00     0.224 C 
HETATM   14  O   UNK N   1      29.379  14.947   5.311  0.00  0.00    -0.273 OA
BRANCH  13  15
HETATM   15  C   UNK N   1      29.224  16.199   3.324  0.00  0.00     0.141 C 
BRANCH  15  16
HETATM   16  C   UNK N   1      27.955  16.983   3.510  0.00  0.00    -0.048 A 
HETATM   17  C   UNK N   1      26.744  16.397   3.135  0.00  0.00     0.009 A 
HETATM   18  C   UNK N   1      25.553  17.122   3.230  0.00  0.00     0.026 A 
HETATM   19  C   UNK N   1      25.564  18.437   3.706  0.00  0.00     0.055 A 
HETATM   20  C   UNK N   1      26.775  19.025   4.103  0.00  0.00     0.056 A 
HETATM   21 Cl   UNK N   1      24.052  19.327   3.777  0.00  0.00    -0.083 Cl
HETATM   22  C   UNK N   1      27.963  18.299   4.002  0.00  0.00     0.033 A 
HETATM   23 Cl   UNK N   1      26.839  20.671   4.712  0.00  0.00    -0.083 Cl
ENDBRANCH  15  16
ENDBRANCH  13  15
ENDBRANCH   7  11
BRANCH   8  24
HETATM   24  N   UNK N   1      30.088  17.000   8.003  0.00  0.00     0.095 N 
HETATM   25  C   UNK N   1      29.309  18.099   7.443  0.00  0.00     0.273 C 
HETATM   26  C   UNK N   1      28.254  18.447   8.466  0.00  0.00     0.032 C 
HETATM   27  C   UNK N   1      28.856  18.047   9.790  0.00  0.00     0.032 C 
HETATM   28  C   UNK N   1      29.989  17.096   9.455  0.00  0.00     0.273 C 
ENDBRANCH   8  24
TORSDOF 4
ENDMDL
MODEL 2
REMARK VINA RESULT:      -7.1     12.948     15.388
REMARK  4 active torsions:
REMARK  status: ('A' for Active; 'I' for Inactive)
REMARK    1  A    between atoms: C_16  and  C_14 
REMARK    2  A    between atoms: C_21  and  C_14 
REMARK    3  A    between atoms: C_19  and  N_25 
REMARK    4  A    between atoms: C_20  and  N_26 
REMARK       I    between atoms: N_25  and  C_21 
ROOT
HETATM    1  C   UNK N   1      30.808  19.158  -8.334  0.00  0.00     0.029 C 
HETATM    2  C   UNK N   1      26.932  21.887  -7.759  0.00  0.00     0.030 C 
HETATM    3  C   UNK N   1      30.441  20.589  -8.544  0.00  0.00     0.040 C 
HETATM    4  C   UNK N   1      28.126  21.451  -8.600  0.00  0.00     0.040 C 
HETATM    5  C   UNK N   1      29.472  18.542  -8.032  0.00  0.00     0.168 C 
HETATM    6  C   UNK N   1      29.513  21.572  -6.456  0.00  0.00     0.076 C 
HETATM    7  C   UNK N   1      27.325  22.810  -6.585  0.00  0.00     0.120 C 
HETATM    8  C   UNK N   1      28.887  22.976  -6.439  0.00  0.00     0.248 C 
HETATM    9  C   UNK N   1      29.178  20.762  -7.725  0.00  0.00     0.063 C 
HETATM   10  O   UNK N   1      28.706  19.490  -7.335  0.00  0.00    -0.380 OA
ENDROOT
BRANCH   7  11
HETATM   11  N   UNK N   1      26.570  24.058  -6.711  0.00  0.00    -0.349 N 
HETATM   12  C   UNK N   1      26.340  24.651  -8.012  0.00  0.00     0.153 C 
HETATM   13  C   UNK N   1      25.979  24.618  -5.612  0.00  0.00     0.224 C 
HETATM   14  O   UNK N   1      26.133  24.112  -4.505  0.00  0.00    -0.273 OA
BRANCH  13  15
HETATM   15  C   UNK N   1      25.144  25.867  -5.722  0.00  0.00     0.141 C 
BRANCH  15  16
HETATM   16  C   UNK N   1      25.874  27.120  -5.326  0.00  0.00    -0.048 A 
HETATM   17  C   UNK N   1      25.553  27.728  -4.110  0.00  0.00     0.009 A 
HETATM   18  C   UNK N   1      26.162  28.930  -3.742  0.00  0.00     0.026 A 
HETATM   19  C   UNK N   1      27.101  29.532  -4.586  0.00  0.00     0.055 A 
HETATM   20  C   UNK N   1      27.443  28.917  -5.800  0.00  0.00     0.056 A 
HETATM   21 Cl   UNK N   1      27.818  31.061  -4.105  0.00  0.00    -0.083 Cl
HETATM   22  C   UNK N   1      26.828  27.718  -6.166  0.00  0.00     0.033 A 
HETATM   23 Cl   UNK N   1      28.621  29.631  -6.890  0.00  0.00    -0.083 Cl
ENDBRANCH  15  16
ENDBRANCH  13  15
ENDBRANCH   7  11
BRANCH   8  24
HETATM   24  N   UNK N   1      29.346  23.668  -5.209  0.00  0.00     0.095 N 
HETATM   25  C   UNK N   1      30.327  24.724  -5.435  0.00  0.00     0.273 C 
HETATM   26  C   UNK N   1      31.146  24.831  -4.171  0.00  0.00     0.032 C 
HETATM   27  C   UNK N   1      31.088  23.454  -3.558  0.00  0.00     0.032 C 
HETATM   28  C   UNK N   1      29.907  22.764  -4.212  0.00  0.00     0.273 C 
ENDBRANCH   8  24
TORSDOF 4
ENDMDL
MODEL 3
REMARK VINA RESULT:      -7.0     12.346     15.877
REMARK  4 active torsions:
REMARK  status: ('A' for Active; 'I' for Inactive)
REMARK    1  A    between atoms: C_16  and  C_14 
REMARK    2  A    between atoms: C_21  and  C_14 
REMARK    3  A    between atoms: C_19  and  N_25 
REMARK    4  A    between atoms: C_20  and  N_26 
REMARK       I    between atoms: N_25  and  C_21 
ROOT
HETATM    1  C   UNK N   1      26.199  21.333  -7.952  0.00  0.00     0.029 C 
HETATM    2  C   UNK N   1      25.217  25.663  -6.195  0.00  0.00     0.030 C 
HETATM    3  C   UNK N   1      26.883  22.656  -7.868  0.00  0.00     0.040 C 
HETATM    4  C   UNK N   1      25.757  24.786  -7.319  0.00  0.00     0.040 C 
HETATM    5  C   UNK N   1      24.816  21.673  -7.474  0.00  0.00     0.168 C 
HETATM    6  C   UNK N   1      26.976  23.449  -5.512  0.00  0.00     0.076 C 
HETATM    7  C   UNK N   1      26.193  25.787  -5.004  0.00  0.00     0.120 C 
HETATM    8  C   UNK N   1      27.463  24.865  -5.160  0.00  0.00     0.248 C 
HETATM    9  C   UNK N   1      26.114  23.393  -6.789  0.00  0.00     0.063 C 
HETATM   10  O   UNK N   1      24.930  22.681  -6.503  0.00  0.00    -0.380 OA
ENDROOT
BRANCH   7  11
HETATM   11  N   UNK N   1      26.471  27.208  -4.786  0.00  0.00    -0.349 N 
HETATM   12  C   UNK N   1      26.835  28.064  -5.895  0.00  0.00     0.153 C 
HETATM   13  C   UNK N   1      26.283  27.764  -3.551  0.00  0.00     0.224 C 
HETATM   14  O   UNK N   1      25.942  27.062  -2.604  0.00  0.00    -0.273 OA
BRANCH  13  15
HETATM   15  C   UNK N   1      26.502  29.235  -3.312  0.00  0.00     0.141 C 
BRANCH  15  16
HETATM   16  C   UNK N   1      27.902  29.578  -2.886  0.00  0.00    -0.048 A 
HETATM   17  C   UNK N   1      28.188  29.656  -1.521  0.00  0.00     0.009 A 
HETATM   18  C   UNK N   1      29.460  30.038  -1.089  0.00  0.00     0.026 A 
HETATM   19  C   UNK N   1      30.458  30.343  -2.019  0.00  0.00     0.055 A 
HETATM   20  C   UNK N   1      30.185  30.248  -3.393  0.00  0.00     0.056 A 
HETATM   21 Cl   UNK N   1      32.034  30.855  -1.438  0.00  0.00    -0.083 Cl
HETATM   22  C   UNK N   1      28.910  29.869  -3.820  0.00  0.00     0.033 A 
HETATM   23 Cl   UNK N   1      31.407  30.614  -4.599  0.00  0.00    -0.083 Cl
ENDBRANCH  15  16
ENDBRANCH  13  15
ENDBRANCH   7  11
BRANCH   8  24
HETATM   24  N   UNK N   1      28.334  24.765  -3.963  0.00  0.00     0.095 N 
HETATM   25  C   UNK N   1      29.672  24.246  -4.226  0.00  0.00     0.273 C 
HETATM   26  C   UNK N   1      30.142  23.593  -2.948  0.00  0.00     0.032 C 
HETATM   27  C   UNK N   1      28.877  23.158  -2.251  0.00  0.00     0.032 C 
HETATM   28  C   UNK N   1      27.759  23.955  -2.894  0.00  0.00     0.273 C 
ENDBRANCH   8  24
TORSDOF 4
ENDMDL
MODEL 4
REMARK VINA RESULT:      -6.9      4.546      8.993
REMARK  4 active torsions:
REMARK  status: ('A' for Active; 'I' for Inactive)
REMARK    1  A    between atoms: C_16  and  C_14 
REMARK    2  A    between atoms: C_21  and  C_14 
REMARK    3  A    between atoms: C_19  and  N_25 
REMARK    4  A    between atoms: C_20  and  N_26 
REMARK       I    between atoms: N_25  and  C_21 
ROOT
HETATM    1  C   UNK N   1      27.332  17.666   5.364  0.00  0.00     0.029 C 
HETATM    2  C   UNK N   1      30.881  16.983   8.486  0.00  0.00     0.030 C 
HETATM    3  C   UNK N   1      28.583  18.374   5.765  0.00  0.00     0.040 C 
HETATM    4  C   UNK N   1      29.862  17.906   7.827  0.00  0.00     0.040 C 
HETATM    5  C   UNK N   1      27.236  16.597   6.415  0.00  0.00     0.168 C 
HETATM    6  C   UNK N   1      30.544  16.851   5.600  0.00  0.00     0.076 C 
HETATM    7  C   UNK N   1      32.091  16.673   7.577  0.00  0.00     0.120 C 
HETATM    8  C   UNK N   1      31.928  17.266   6.125  0.00  0.00     0.248 C 
HETATM    9  C   UNK N   1      29.379  17.313   6.499  0.00  0.00     0.063 C 
HETATM   10  O   UNK N   1      28.542  16.206   6.755  0.00  0.00    -0.380 OA
ENDROOT
BRANCH   7  11
HETATM   11  N   UNK N   1      33.309  17.071   8.285  0.00  0.00    -0.349 N 
HETATM   12  C   UNK N   1      33.820  18.421   8.169  0.00  0.00     0.153 C 
HETATM   13  C   UNK N   1      33.914  16.204   9.152  0.00  0.00     0.224 C 
HETATM   14  O   UNK N   1      33.477  15.066   9.292  0.00  0.00    -0.273 OA
BRANCH  13  15
HETATM   15  C   UNK N   1      35.133  16.608   9.942  0.00  0.00     0.141 C 
BRANCH  15  16
HETATM   16  C   UNK N   1      35.798  15.464  10.656  0.00  0.00    -0.048 A 
HETATM   17  C   UNK N   1      36.734  14.694   9.962  0.00  0.00     0.009 A 
HETATM   18  C   UNK N   1      37.322  13.583  10.573  0.00  0.00     0.026 A 
HETATM   19  C   UNK N   1      36.980  13.236  11.884  0.00  0.00     0.055 A 
HETATM   20  C   UNK N   1      36.055  14.018  12.594  0.00  0.00     0.056 A 
HETATM   21 Cl   UNK N   1      37.713  11.812  12.604  0.00  0.00    -0.083 Cl
HETATM   22  C   UNK N   1      35.467  15.124  11.978  0.00  0.00     0.033 A 
HETATM   23 Cl   UNK N   1      35.599  13.626  14.244  0.00  0.00    -0.083 Cl
ENDBRANCH  15  16
ENDBRANCH  13  15
ENDBRANCH   7  11
BRANCH   8  24
HETATM   24  N   UNK N   1      32.943  16.827   5.136  0.00  0.00     0.095 N 
HETATM   25  C   UNK N   1      32.643  17.188   3.754  0.00  0.00     0.273 C 
HETATM   26  C   UNK N   1      33.322  16.161   2.880  0.00  0.00     0.032 C 
HETATM   27  C   UNK N   1      33.396  14.920   3.734  0.00  0.00     0.032 C 
HETATM   28  C   UNK N   1      33.193  15.390   5.161  0.00  0.00     0.273 C 
ENDBRANCH   8  24
TORSDOF 4
ENDMDL
MODEL 5
REMARK VINA RESULT:      -6.6      7.883     11.535
REMARK  4 active torsions:
REMARK  status: ('A' for Active; 'I' for Inactive)
REMARK    1  A    between atoms: C_16  and  C_14 
REMARK    2  A    between atoms: C_21  and  C_14 
REMARK    3  A    between atoms: C_19  and  N_25 
REMARK    4  A    between atoms: C_20  and  N_26 
REMARK       I    between atoms: N_25  and  C_21 
ROOT
HETATM    1  C   UNK N   1      35.384   9.857  20.597  0.00  0.00     0.029 C 
HETATM    2  C   UNK N   1      35.325   9.767  15.823  0.00  0.00     0.030 C 
HETATM    3  C   UNK N   1      36.339  10.152  19.489  0.00  0.00     0.040 C 
HETATM    4  C   UNK N   1      36.024   9.452  17.141  0.00  0.00     0.040 C 
HETATM    5  C   UNK N   1      34.239   9.229  19.854  0.00  0.00     0.168 C 
HETATM    6  C   UNK N   1      35.360  11.800  17.903  0.00  0.00     0.076 C 
HETATM    7  C   UNK N   1      35.398  11.263  15.445  0.00  0.00     0.120 C 
HETATM    8  C   UNK N   1      36.053  12.145  16.575  0.00  0.00     0.248 C 
HETATM    9  C   UNK N   1      35.446  10.306  18.274  0.00  0.00     0.063 C 
HETATM   10  O   UNK N   1      34.150   9.846  18.595  0.00  0.00    -0.380 OA
ENDROOT
BRANCH   7  11
HETATM   11  N   UNK N   1      36.019  11.371  14.123  0.00  0.00    -0.349 N 
HETATM   12  C   UNK N   1      37.261  10.684  13.836  0.00  0.00     0.153 C 
HETATM   13  C   UNK N   1      35.377  12.033  13.113  0.00  0.00     0.224 C 
HETATM   14  O   UNK N   1      34.307  12.593  13.326  0.00  0.00    -0.273 OA
BRANCH  13  15
HETATM   15  C   UNK N   1      35.964  12.106  11.727  0.00  0.00     0.141 C 
BRANCH  15  16
HETATM   16  C   UNK N   1      35.710  13.414  11.031  0.00  0.00    -0.048 A 
HETATM   17  C   UNK N   1      36.160  14.592  11.632  0.00  0.00     0.009 A 
HETATM   18  C   UNK N   1      35.883  15.831  11.048  0.00  0.00     0.026 A 
HETATM   19  C   UNK N   1      35.157  15.900   9.855  0.00  0.00     0.055 A 
HETATM   20  C   UNK N   1      34.719  14.719   9.234  0.00  0.00     0.056 A 
HETATM   21 Cl   UNK N   1      34.797  17.476   9.170  0.00  0.00    -0.083 Cl
HETATM   22  C   UNK N   1      34.994  13.485   9.825  0.00  0.00     0.033 A 
HETATM   23 Cl   UNK N   1      33.809  14.755   7.733  0.00  0.00    -0.083 Cl
ENDBRANCH  15  16
ENDBRANCH  13  15
ENDBRANCH   7  11
BRANCH   8  24
HETATM   24  N   UNK N   1      35.960  13.613  16.378  0.00  0.00     0.095 N 
HETATM   25  C   UNK N   1      37.075  14.201  15.644  0.00  0.00     0.273 C 
HETATM   26  C   UNK N   1      37.187  15.635  16.101  0.00  0.00     0.032 C 
HETATM   27  C   UNK N   1      36.631  15.635  17.504  0.00  0.00     0.032 C 
HETATM   28  C   UNK N   1      35.824  14.358  17.625  0.00  0.00     0.273 C 
ENDBRANCH   8  24
TORSDOF 4
ENDMDL
MODEL 6
REMARK VINA RESULT:      -6.6      5.470      8.785
REMARK  4 active torsions:
REMARK  status: ('A' for Active; 'I' for Inactive)
REMARK    1  A    between atoms: C_16  and  C_14 
REMARK    2  A    between atoms: C_21  and  C_14 
REMARK    3  A    between atoms: C_19  and  N_25 
REMARK    4  A    between atoms: C_20  and  N_26 
REMARK       I    between atoms: N_25  and  C_21 
ROOT
HETATM    1  C   UNK N   1      37.327   7.916  12.795  0.00  0.00     0.029 C 
HETATM    2  C   UNK N   1      36.251  11.860  10.327  0.00  0.00     0.030 C 
HETATM    3  C   UNK N   1      37.874   9.297  12.654  0.00  0.00     0.040 C 
HETATM    4  C   UNK N   1      37.285  10.861  10.833  0.00  0.00     0.040 C 
HETATM    5  C   UNK N   1      36.300   7.881  11.698  0.00  0.00     0.168 C 
HETATM    6  C   UNK N   1      36.107  10.991  13.099  0.00  0.00     0.076 C 
HETATM    7  C   UNK N   1      35.769  12.837  11.422  0.00  0.00     0.120 C 
HETATM    8  C   UNK N   1      36.349  12.488  12.846  0.00  0.00     0.248 C 
HETATM    9  C   UNK N   1      36.733  10.075  12.028  0.00  0.00     0.063 C 
HETATM   10  O   UNK N   1      35.750   9.167  11.580  0.00  0.00    -0.380 OA
ENDROOT
BRANCH   7  11
HETATM   11  N   UNK N   1      36.020  14.203  10.959  0.00  0.00    -0.349 N 
HETATM   12  C   UNK N   1      37.323  14.581  10.456  0.00  0.00     0.153 C 
HETATM   13  C   UNK N   1      34.994  15.105  10.893  0.00  0.00     0.224 C 
HETATM   14  O   UNK N   1      33.873  14.794  11.283  0.00  0.00    -0.273 OA
BRANCH  13  15
HETATM   15  C   UNK N   1      35.209  16.499  10.363  0.00  0.00     0.141 C 
BRANCH  15  16
HETATM   16  C   UNK N   1      34.740  16.688   8.947  0.00  0.00    -0.048 A 
HETATM   17  C   UNK N   1      34.018  17.840   8.628  0.00  0.00     0.009 A 
HETATM   18  C   UNK N   1      33.508  18.016   7.339  0.00  0.00     0.026 A 
HETATM   19  C   UNK N   1      33.721  17.042   6.358  0.00  0.00     0.055 A 
HETATM   20  C   UNK N   1      34.464  15.891   6.666  0.00  0.00     0.056 A 
HETATM   21 Cl   UNK N   1      33.034  17.282   4.760  0.00  0.00    -0.083 Cl
HETATM   22  C   UNK N   1      34.967  15.718   7.957  0.00  0.00     0.033 A 
HETATM   23 Cl   UNK N   1      34.762  14.644   5.467  0.00  0.00    -0.083 Cl
ENDBRANCH  15  16
ENDBRANCH  13  15
ENDBRANCH   7  11
BRANCH   8  24
HETATM   24  N   UNK N   1      35.762  13.244  13.980  0.00  0.00     0.095 N 
HETATM   25  C   UNK N   1      36.727  13.686  14.982  0.00  0.00     0.273 C 
HETATM   26  C   UNK N   1      35.976  13.796  16.287  0.00  0.00     0.032 C 
HETATM   27  C   UNK N   1      34.846  12.805  16.165  0.00  0.00     0.032 C 
HETATM   28  C   UNK N   1      34.714  12.512  14.684  0.00  0.00     0.273 C 
ENDBRANCH   8  24
TORSDOF 4
ENDMDL
MODEL 7
REMARK VINA RESULT:      -6.6      8.953     12.912
REMARK  4 active torsions:
REMARK  status: ('A' for Active; 'I' for Inactive)
REMARK    1  A    between atoms: C_16  and  C_14 
REMARK    2  A    between atoms: C_21  and  C_14 
REMARK    3  A    between atoms: C_19  and  N_25 
REMARK    4  A    between atoms: C_20  and  N_26 
REMARK       I    between atoms: N_25  and  C_21 
ROOT
HETATM    1  C   UNK N   1      37.629  10.255   8.303  0.00  0.00     0.029 C 
HETATM    2  C   UNK N   1      36.781  10.899  12.958  0.00  0.00     0.030 C 
HETATM    3  C   UNK N   1      36.436  10.294   9.199  0.00  0.00     0.040 C 
HETATM    4  C   UNK N   1      36.526  10.136  11.663  0.00  0.00     0.040 C 
HETATM    5  C   UNK N   1      38.756  10.267   9.296  0.00  0.00     0.168 C 
HETATM    6  C   UNK N   1      36.387  12.411  10.504  0.00  0.00     0.076 C 
HETATM    7  C   UNK N   1      36.075  12.272  12.998  0.00  0.00     0.120 C 
HETATM    8  C   UNK N   1      35.369  12.633  11.635  0.00  0.00     0.248 C 
HETATM    9  C   UNK N   1      36.948  10.975  10.453  0.00  0.00     0.063 C 
HETATM   10  O   UNK N   1      38.357  11.043  10.395  0.00  0.00    -0.380 OA
ENDROOT
BRANCH   7  11
HETATM   11  N   UNK N   1      35.213  12.309  14.181  0.00  0.00    -0.349 N 
HETATM   12  C   UNK N   1      34.021  11.491  14.248  0.00  0.00     0.153 C 
HETATM   13  C   UNK N   1      35.584  13.034  15.280  0.00  0.00     0.224 C 
HETATM   14  O   UNK N   1      36.609  13.708  15.256  0.00  0.00    -0.273 OA
BRANCH  13  15
HETATM   15  C   UNK N   1      34.748  13.041  16.533  0.00  0.00     0.141 C 
BRANCH  15  16
HETATM   16  C   UNK N   1      35.272  12.139  17.616  0.00  0.00    -0.048 A 
HETATM   17  C   UNK N   1      35.183  12.563  18.944  0.00  0.00     0.009 A 
HETATM   18  C   UNK N   1      35.721  11.782  19.969  0.00  0.00     0.026 A 
HETATM   19  C   UNK N   1      36.348  10.567  19.675  0.00  0.00     0.055 A 
HETATM   20  C   UNK N   1      36.423  10.124  18.345  0.00  0.00     0.056 A 
HETATM   21 Cl   UNK N   1      37.043   9.630  20.987  0.00  0.00    -0.083 Cl
HETATM   22  C   UNK N   1      35.888  10.911  17.323  0.00  0.00     0.033 A 
HETATM   23 Cl   UNK N   1      37.195   8.604  17.926  0.00  0.00    -0.083 Cl
ENDBRANCH  15  16
ENDBRANCH  13  15
ENDBRANCH   7  11
BRANCH   8  24
HETATM   24  N   UNK N   1      34.860  14.022  11.525  0.00  0.00     0.095 N 
HETATM   25  C   UNK N   1      34.447  14.415  10.181  0.00  0.00     0.273 C 
HETATM   26  C   UNK N   1      34.616  15.912  10.096  0.00  0.00     0.032 C 
HETATM   27  C   UNK N   1      35.713  16.232  11.081  0.00  0.00     0.032 C 
HETATM   28  C   UNK N   1      35.807  15.026  11.995  0.00  0.00     0.273 C 
ENDBRANCH   8  24
TORSDOF 4
ENDMDL
MODEL 8
REMARK VINA RESULT:      -6.3     11.768     14.732
REMARK  4 active torsions:
REMARK  status: ('A' for Active; 'I' for Inactive)
REMARK    1  A    between atoms: C_16  and  C_14 
REMARK    2  A    between atoms: C_21  and  C_14 
REMARK    3  A    between atoms: C_19  and  N_25 
REMARK    4  A    between atoms: C_20  and  N_26 
REMARK       I    between atoms: N_25  and  C_21 
ROOT
HETATM    1  C   UNK N   1      27.881  29.917  -5.131  0.00  0.00     0.029 C 
HETATM    2  C   UNK N   1      30.846  26.597  -3.401  0.00  0.00     0.030 C 
HETATM    3  C   UNK N   1      28.712  28.806  -5.679  0.00  0.00     0.040 C 
HETATM    4  C   UNK N   1      30.520  27.663  -4.441  0.00  0.00     0.040 C 
HETATM    5  C   UNK N   1      28.343  29.968  -3.702  0.00  0.00     0.168 C 
HETATM    6  C   UNK N   1      28.170  26.661  -4.540  0.00  0.00     0.076 C 
HETATM    7  C   UNK N   1      30.064  25.283  -3.619  0.00  0.00     0.120 C 
HETATM    8  C   UNK N   1      29.004  25.392  -4.781  0.00  0.00     0.248 C 
HETATM    9  C   UNK N   1      29.015  27.949  -4.465  0.00  0.00     0.063 C 
HETATM   10  O   UNK N   1      28.652  28.659  -3.300  0.00  0.00    -0.380 OA
ENDROOT
BRANCH   7  11
HETATM   11  N   UNK N   1      31.032  24.192  -3.752  0.00  0.00    -0.349 N 
HETATM   12  C   UNK N   1      32.241  24.371  -4.527  0.00  0.00     0.153 C 
HETATM   13  C   UNK N   1      30.857  23.029  -3.053  0.00  0.00     0.224 C 
HETATM   14  O   UNK N   1      29.855  22.870  -2.362  0.00  0.00    -0.273 OA
BRANCH  13  15
HETATM   15  C   UNK N   1      31.868  21.914  -3.121  0.00  0.00     0.141 C 
BRANCH  15  16
HETATM   16  C   UNK N   1      31.850  21.159  -4.421  0.00  0.00    -0.048 A 
HETATM   17  C   UNK N   1      33.054  20.664  -4.926  0.00  0.00     0.009 A 
HETATM   18  C   UNK N   1      33.086  20.017  -6.164  0.00  0.00     0.026 A 
HETATM   19  C   UNK N   1      31.911  19.856  -6.905  0.00  0.00     0.055 A 
HETATM   20  C   UNK N   1      30.693  20.333  -6.395  0.00  0.00     0.056 A 
HETATM   21 Cl   UNK N   1      31.996  19.070  -8.473  0.00  0.00    -0.083 Cl
HETATM   22  C   UNK N   1      30.668  20.983  -5.159  0.00  0.00     0.033 A 
HETATM   23 Cl   UNK N   1      29.191  20.150  -7.286  0.00  0.00    -0.083 Cl
ENDBRANCH  15  16
ENDBRANCH  13  15
ENDBRANCH   7  11
BRANCH   8  24
HETATM   24  N   UNK N   1      28.068  24.246  -4.905  0.00  0.00     0.095 N 
HETATM   25  C   UNK N   1      27.961  23.690  -6.250  0.00  0.00     0.273 C 
HETATM   26  C   UNK N   1      26.588  23.074  -6.356  0.00  0.00     0.032 C 
HETATM   27  C   UNK N   1      25.739  23.858  -5.385  0.00  0.00     0.032 C 
HETATM   28  C   UNK N   1      26.715  24.553  -4.456  0.00  0.00     0.273 C 
ENDBRANCH   8  24
TORSDOF 4
ENDMDL
MODEL 9
REMARK VINA RESULT:      -6.3      2.785      4.578
REMARK  4 active torsions:
REMARK  status: ('A' for Active; 'I' for Inactive)
REMARK    1  A    between atoms: C_16  and  C_14 
REMARK    2  A    between atoms: C_21  and  C_14 
REMARK    3  A    between atoms: C_19  and  N_25 
REMARK    4  A    between atoms: C_20  and  N_26 
REMARK       I    between atoms: N_25  and  C_21 
ROOT
HETATM    1  C   UNK N   1      33.015  17.543   4.825  0.00  0.00     0.029 C 
HETATM    2  C   UNK N   1      29.001  14.966   5.043  0.00  0.00     0.030 C 
HETATM    3  C   UNK N   1      31.789  17.363   3.994  0.00  0.00     0.040 C 
HETATM    4  C   UNK N   1      30.185  15.500   4.245  0.00  0.00     0.040 C 
HETATM    5  C   UNK N   1      32.858  16.449   5.842  0.00  0.00     0.168 C 
HETATM    6  C   UNK N   1      29.742  17.762   5.352  0.00  0.00     0.076 C 
HETATM    7  C   UNK N   1      27.913  16.034   5.296  0.00  0.00     0.120 C 
HETATM    8  C   UNK N   1      28.340  17.466   4.795  0.00  0.00     0.248 C 
HETATM    9  C   UNK N   1      30.800  16.716   4.944  0.00  0.00     0.063 C 
HETATM   10  O   UNK N   1      31.487  16.295   6.104  0.00  0.00    -0.380 OA
ENDROOT
BRANCH   7  11
HETATM   11  N   UNK N   1      26.647  15.532   4.760  0.00  0.00    -0.349 N 
HETATM   12  C   UNK N   1      26.552  15.095   3.383  0.00  0.00     0.153 C 
HETATM   13  C   UNK N   1      25.568  15.367   5.586  0.00  0.00     0.224 C 
HETATM   14  O   UNK N   1      25.638  15.699   6.764  0.00  0.00    -0.273 OA
BRANCH  13  15
HETATM   15  C   UNK N   1      24.271  14.795   5.075  0.00  0.00     0.141 C 
BRANCH  15  16
HETATM   16  C   UNK N   1      23.310  15.832   4.566  0.00  0.00    -0.048 A 
HETATM   17  C   UNK N   1      22.004  15.444   4.259  0.00  0.00     0.009 A 
HETATM   18  C   UNK N   1      21.104  16.366   3.720  0.00  0.00     0.026 A 
HETATM   19  C   UNK N   1      21.501  17.686   3.488  0.00  0.00     0.055 A 
HETATM   20  C   UNK N   1      22.807  18.089   3.812  0.00  0.00     0.056 A 
HETATM   21 Cl   UNK N   1      20.353  18.806   2.775  0.00  0.00    -0.083 Cl
HETATM   22  C   UNK N   1      23.704  17.163   4.347  0.00  0.00     0.033 A 
HETATM   23 Cl   UNK N   1      23.351  19.737   3.544  0.00  0.00    -0.083 Cl
ENDBRANCH  15  16
ENDBRANCH  13  15
ENDBRANCH   7  11
BRANCH   8  24
HETATM   24  N   UNK N   1      27.445  18.579   5.197  0.00  0.00     0.095 N 
HETATM   25  C   UNK N   1      27.295  19.632   4.198  0.00  0.00     0.273 C 
HETATM   26  C   UNK N   1      26.970  20.900   4.950  0.00  0.00     0.032 C 
HETATM   27  C   UNK N   1      27.597  20.712   6.309  0.00  0.00     0.032 C 
HETATM   28  C   UNK N   1      27.844  19.222   6.444  0.00  0.00     0.273 C 
ENDBRANCH   8  24
TORSDOF 4
ENDMDL
