REMARK  8 active torsions:
REMARK  status: ('A' for Active; 'I' for Inactive)
REMARK    1  A    between atoms: O_2  and  C_3 
REMARK    2  A    between atoms: C_3  and  C_5 
REMARK    3  A    between atoms: N_23  and  C_26 
REMARK    4  A    between atoms: C_26  and  C_27 
REMARK    5  A    between atoms: C_27  and  C_28 
REMARK    6  A    between atoms: C_31  and  O_34 
REMARK    7  A    between atoms: O_34  and  C_35 
REMARK    8  A    between atoms: C_35  and  C_36 
ROOT
HETATM    1  C   UNK N   1      -0.090 -16.355   0.143  0.00  0.00     0.127 A 
HETATM    2  C   UNK N   1       1.261 -16.221   0.359  0.00  0.00     0.125 A 
HETATM    3  N   UNK N   1       1.571 -14.918   0.234  0.00  0.00    -0.349 N 
ATOM      4  HN  UNK N   1       2.495 -14.497   0.335  1.00  0.00     0.167 HD
HETATM    5  C   UNK N   1       0.412 -14.275  -0.051  0.00  0.00     0.119 A 
HETATM    6  N   UNK N   1      -0.618 -15.138  -0.090  0.00  0.00    -0.326 N 
HETATM    7  C   UNK N   1      -1.997 -14.811  -0.362  0.00  0.00     0.136 C 
HETATM    8  C   UNK N   1      -2.419 -13.903   0.754  0.00  0.00     0.060 C 
HETATM    9  C   UNK N   1      -2.171 -12.479   0.409  0.00  0.00    -0.045 A 
HETATM   10  C   UNK N   1      -3.268 -11.625   0.597  0.00  0.00     0.008 A 
HETATM   11  C   UNK N   1      -3.179 -10.264   0.334  0.00  0.00     0.001 A 
HETATM   12  C   UNK N   1      -1.983  -9.732  -0.120  0.00  0.00     0.001 A 
HETATM   13  C   UNK N   1      -0.887 -10.567  -0.323  0.00  0.00     0.013 A 
HETATM   14  C   UNK N   1      -0.924 -11.956  -0.078  0.00  0.00    -0.016 A 
HETATM   15  C   UNK N   1       0.348 -12.795  -0.355  0.00  0.00     0.021 C 
HETATM   16  C   UNK N   1       1.478 -12.239  -0.938  0.00  0.00    -0.062 C 
HETATM   17  C   UNK N   1       1.620 -10.789  -1.294  0.00  0.00     0.065 C 
HETATM   18  C   UNK N   1       2.929 -10.264  -0.701  0.00  0.00     0.276 C 
HETATM   19  N   UNK N   1       4.110 -11.131  -0.937  0.00  0.00     0.089 N 
HETATM   20  C   UNK N   1       3.826 -12.232  -1.867  0.00  0.00     0.276 C 
HETATM   21  C   UNK N   1       2.669 -13.090  -1.342  0.00  0.00     0.065 C 
ENDROOT
BRANCH  19  22
HETATM   22  C   UNK N   1       4.625 -11.737   0.302  0.00  0.00     0.277 C 
BRANCH  22  23
HETATM   23  C   UNK N   1       4.705 -10.810   1.523  0.00  0.00     0.068 C 
BRANCH  23  24
HETATM   24  C   UNK N   1       5.149  -9.427   1.195  0.00  0.00    -0.056 A 
HETATM   25  C   UNK N   1       4.351  -8.345   1.578  0.00  0.00     0.010 A 
HETATM   26  C   UNK N   1       4.736  -7.043   1.255  0.00  0.00     0.037 A 
HETATM   27  C   UNK N   1       5.908  -6.817   0.527  0.00  0.00     0.069 A 
HETATM   28  C   UNK N   1       6.709  -7.907   0.146  0.00  0.00     0.037 A 
HETATM   29  C   UNK N   1       6.336  -9.206   0.490  0.00  0.00     0.010 A 
BRANCH  27  30
HETATM   30  O   UNK N   1       6.237  -5.548   0.193  0.00  0.00    -0.345 OA
BRANCH  30  31
HETATM   31  C   UNK N   1       7.035  -5.235  -0.887  0.00  0.00     0.232 C 
BRANCH  31  32
HETATM   32  C   UNK N   1       8.470  -5.085  -0.516  0.00  0.00     0.034 A 
HETATM   33  C   UNK N   1       9.021  -3.805  -0.399  0.00  0.00     0.028 A 
HETATM   34  C   UNK N   1      10.386  -3.663  -0.148  0.00  0.00     0.016 A 
HETATM   35  C   UNK N   1      11.187  -4.799  -0.038  0.00  0.00    -0.009 A 
HETATM   36  C   UNK N   1      12.561  -4.680   0.186  0.00  0.00     0.013 A 
HETATM   37  C   UNK N   1      10.599  -6.075  -0.169  0.00  0.00     0.042 A 
HETATM   38  C   UNK N   1      13.353  -5.830   0.279  0.00  0.00     0.001 A 
HETATM   39  C   UNK N   1      12.771  -7.096   0.149  0.00  0.00     0.002 A 
HETATM   40  C   UNK N   1      11.396  -7.220  -0.074  0.00  0.00     0.030 A 
HETATM   41  N   UNK N   1       9.264  -6.186  -0.404  0.00  0.00    -0.357 N 
ATOM     42  HN  UNK N   1       8.849  -7.113  -0.499  1.00  0.00     0.166 HD
ENDBRANCH  31  32
ENDBRANCH  30  31
ENDBRANCH  27  30
ENDBRANCH  23  24
ENDBRANCH  22  23
ENDBRANCH  19  22
BRANCH   1  43
HETATM   43  C   UNK N   1      -0.798 -17.646   0.110  0.00  0.00     0.311 C 
HETATM   44  O   UNK N   1      -1.998 -17.686  -0.129  0.00  0.00    -0.258 OA
BRANCH  43  45
HETATM   45  O   UNK N   1      -0.089 -18.788   0.282  0.00  0.00    -0.321 OA
HETATM   46  C   UNK N   1      -0.648 -20.036   0.143  0.00  0.00     0.213 C 
ENDBRANCH  43  45
ENDBRANCH   1  43
TORSDOF 8
