REMARK  11 active torsions:
REMARK  status: ('A' for Active; 'I' for Inactive)
REMARK    1  A    between atoms: C_7  and  C_4 
REMARK    2  A    between atoms: O_20  and  C_4 
REMARK    3  A    between atoms: O_21  and  C_5 
REMARK    4  A    between atoms: C_6  and  N_19 
REMARK    5  A    between atoms: C_10  and  C_7 
REMARK    6  A    between atoms: C_7  and  O_22 
REMARK    7  A    between atoms: C_12  and  C_8 
REMARK    8  A    between atoms: C_9  and  N_17 
REMARK    9  A    between atoms: C_11  and  C_10 
REMARK   10  A    between atoms: C_10  and  O_25 
REMARK   11  A    between atoms: O_24  and  C_12 
REMARK       I    between atoms: N_16  and  C_13 
REMARK       I    between atoms: N_19  and  C_13 
ROOT
HETATM    1  C   UNK N   1       2.304  -1.895  -0.393  0.00  0.00     0.044 C 
HETATM    2  C   UNK N   1       3.687  -1.361  -0.611  0.00  0.00     0.150 C 
HETATM    3  C   UNK N   1       1.288  -1.020  -0.279  0.00  0.00     0.141 C 
HETATM    4  C   UNK N   1       3.839  -0.122   0.316  0.00  0.00     0.142 C 
HETATM    5  C   UNK N   1       2.794   0.923  -0.234  0.00  0.00     0.185 C 
HETATM    6  O   UNK N   1       1.533   0.321  -0.322  0.00  0.00    -0.335 OA
ENDROOT
BRANCH   2   7
HETATM    7  N   UNK N   1       4.669  -2.424  -0.510  0.00  0.00    -0.217 N 
HETATM    8  C   UNK N   1       4.993  -3.178   0.644  0.00  0.00     0.665 C 
HETATM    9  N   UNK N   1       4.891  -2.668   1.813  0.00  0.00    -0.235 N 
HETATM   10  N   UNK N   1       5.549  -4.467   0.488  0.00  0.00    -0.235 N 
HETATM   11  H   UNK N   1       5.192  -2.403   2.713  0.00  0.00     0.174 HD
ATOM     12  HN  UNK N   1       3.925  -2.341   1.813  1.00  0.00     0.174 HD
HETATM   13  H   UNK N   1       4.965  -5.252   0.379  0.00  0.00     0.174 HD
HETATM   14  H   UNK N   1       6.527  -4.581   0.488  0.00  0.00     0.174 HD
HETATM   15  H   UNK N   1       5.164  -2.645  -1.332  0.00  0.00     0.178 HD
ENDBRANCH   2   7
BRANCH   4  16
HETATM   16  N   UNK N   1       5.205   0.371   0.446  0.00  0.00    -0.365 N 
HETATM   17  C   UNK N   1       6.023   0.734  -0.484  0.00  0.00     0.107 C 
HETATM   18  C   UNK N   1       5.667   0.687  -1.932  0.00  0.00     0.097 C 
ATOM     19  HN  UNK N   1       5.562   0.438   1.400  1.00  0.00     0.161 HD
BRANCH  17  20
HETATM   20  O   UNK N   1       7.249   1.167  -0.136  0.00  0.00    -0.350 OA
HETATM   21  H   UNK N   1       7.937   0.579   0.106  0.00  0.00     0.219 HD
ENDBRANCH  17  20
ENDBRANCH   4  16
BRANCH   3  22
HETATM   22  C   UNK N   1      -0.093  -1.504  -0.077  0.00  0.00     0.200 C 
HETATM   23  O   UNK N   1      -0.334  -2.694  -0.005  0.00  0.00    -0.645 OA
BRANCH  22  24
HETATM   24  O   UNK N   1      -1.098  -0.611   0.052  0.00  0.00    -0.771 OA
HETATM   25  H   UNK N   1      -0.910   0.302   0.141  0.00  0.00     0.167 HD
ENDBRANCH  22  24
ENDBRANCH   3  22
BRANCH   5  26
HETATM   26  C   UNK N   1       2.648   2.260   0.556  0.00  0.00     0.183 C 
BRANCH  26  27
HETATM   27  C   UNK N   1       1.575   3.199  -0.098  0.00  0.00     0.173 C 
BRANCH  27  28
HETATM   28  C   UNK N   1       1.462   4.523   0.647  0.00  0.00     0.198 C 
BRANCH  28  29
HETATM   29  O   UNK N   1       0.549   5.359  -0.001  0.00  0.00    -0.398 OA
HETATM   30  H   UNK N   1       0.735   6.198  -0.450  0.00  0.00     0.209 HD
ENDBRANCH  28  29
ENDBRANCH  27  28
BRANCH  27  31
HETATM   31  O   UNK N   1       0.316   2.591  -0.104  0.00  0.00    -0.391 OA
HETATM   32  H   UNK N   1      -0.486   3.137  -0.108  0.00  0.00     0.210 HD
ENDBRANCH  27  31
ENDBRANCH  26  27
BRANCH  26  33
HETATM   33  O   UNK N   1       3.896   2.914   0.737  0.00  0.00    -0.385 OA
HETATM   34  C   UNK N   1       4.373   3.434  -0.481  0.00  0.00     0.202 C 
ENDBRANCH  26  33
ENDBRANCH   5  26
TORSDOF 11
