REMARK  5 active torsions:
REMARK  status: ('A' for Active; 'I' for Inactive)
REMARK    1  A    between atoms: C_3  and  C_2 
REMARK    2  A    between atoms: C_26  and  C_27 
REMARK    3  A    between atoms: C_27  and  C_28 
REMARK    4  A    between atoms: C_28  and  N_29 
REMARK    5  A    between atoms: N_29  and  C_30 
ROOT
HETATM    1  C   UNK N   1       6.918  -1.333  -0.315  0.00  0.00     0.173 C 
HETATM    2  C   UNK N   1       5.955  -0.217  -0.013  0.00  0.00     0.002 A 
HETATM    3  C   UNK N   1       4.588  -0.477   0.172  0.00  0.00     0.043 A 
HETATM    4  C   UNK N   1       3.717   0.600   0.225  0.00  0.00     0.065 A 
HETATM    5  N   UNK N   1       4.145   1.869   0.090  0.00  0.00    -0.307 N 
HETATM    6  C   UNK N   1       5.475   2.174  -0.059  0.00  0.00     0.257 A 
HETATM    7  O   UNK N   1       5.832   3.334  -0.177  0.00  0.00    -0.267 OA
HETATM    8  C   UNK N   1       6.409   1.121  -0.123  0.00  0.00     0.044 A 
HETATM    9  C   UNK N   1       7.880   1.399  -0.359  0.00  0.00     0.224 C 
HETATM   10  O   UNK N   1       8.707   0.349   0.027  0.00  0.00    -0.314 OA
HETATM   11  C   UNK N   1       8.273  -0.926   0.212  0.00  0.00     0.298 C 
HETATM   12  O   UNK N   1       8.977  -1.718   0.818  0.00  0.00    -0.261 OA
HETATM   13  C   UNK N   1       3.011   2.809   0.043  0.00  0.00     0.174 A 
HETATM   14  C   UNK N   1       1.841   1.848   0.115  0.00  0.00    -0.004 A 
HETATM   15  C   UNK N   1       2.297   0.567   0.273  0.00  0.00     0.068 A 
HETATM   16  N   UNK N   1       1.479  -0.508   0.343  0.00  0.00    -0.353 N 
ATOM     17  HN  UNK N   1       1.866  -1.444   0.461  1.00  0.00     0.166 HD
HETATM   18  C   UNK N   1       0.132  -0.326   0.252  0.00  0.00     0.043 A 
HETATM   19  C   UNK N   1      -0.719  -1.432   0.301  0.00  0.00     0.030 A 
HETATM   20  C   UNK N   1      -2.098  -1.262   0.161  0.00  0.00     0.002 A 
HETATM   21  C   UNK N   1      -2.633   0.015  -0.033  0.00  0.00     0.001 A 
HETATM   22  C   UNK N   1      -1.794   1.133  -0.082  0.00  0.00     0.014 A 
HETATM   23  C   UNK N   1      -0.408   0.982   0.062  0.00  0.00    -0.002 A 
HETATM   24  C   UNK N   1       0.467   2.095  -0.008  0.00  0.00    -0.034 A 
HETATM   25  O   UNK N   1       7.007  -1.402  -1.709  0.00  0.00    -0.375 OA
HETATM   26  H   UNK N   1       6.996  -1.479  -2.676  0.00  0.00     0.211 HD
ENDROOT
BRANCH   1  27
HETATM   27  C   UNK N   1       6.424  -2.692   0.217  0.00  0.00     0.049 C 
HETATM   28  C   UNK N   1       7.240  -3.865  -0.305  0.00  0.00     0.009 C 
ENDBRANCH   1  27
BRANCH  24  29
HETATM   29  C   UNK N   1      -0.057   3.475  -0.301  0.00  0.00     0.059 C 
BRANCH  29  30
HETATM   30  C   UNK N   1       0.483   4.540   0.632  0.00  0.00     0.118 C 
BRANCH  30  31
HETATM   31  N   UNK N   1       1.070   5.597  -0.177  0.00  0.00    -0.417 N 
HETATM   32  H   UNK N   1       0.679   5.986  -1.035  0.00  0.00     0.153 HD
BRANCH  31  33
HETATM   33  C   UNK N   1       2.313   5.999   0.459  0.00  0.00     0.068 C 
HETATM   34  C   UNK N   1       2.123   7.338   1.140  0.00  0.00     0.031 C 
HETATM   35  C   UNK N   1       3.400   6.123  -0.589  0.00  0.00     0.031 C 
ENDBRANCH  31  33
ENDBRANCH  30  31
ENDBRANCH  29  30
ENDBRANCH  24  29
TORSDOF 5
