REMARK  13 active torsions:
REMARK  status: ('A' for Active; 'I' for Inactive)
REMARK    1  A    between atoms: C_8  and  C_6 
REMARK    2  A    between atoms: N_20  and  C_6 
REMARK    3  A    between atoms: C_9  and  N_21 
REMARK    4  A    between atoms: C_10  and  N_22 
REMARK    5  A    between atoms: C_11  and  N_23 
REMARK    6  A    between atoms: C_12  and  O_25 
REMARK    7  A    between atoms: C_13  and  O_26 
REMARK    8  A    between atoms: C_14  and  O_30 
REMARK    9  A    between atoms: C_15  and  O_31 
REMARK   10  A    between atoms: C_16  and  N_24 
REMARK   11  A    between atoms: C_17  and  O_30 
REMARK   12  A    between atoms: C_18  and  O_31 
REMARK   13  A    between atoms: C_19  and  O_27 
ROOT
HETATM    1  C   UNK N   1       2.694   1.948  -0.806  0.00  0.00     0.054 C 
HETATM    2  C   UNK N   1       1.603   2.678  -0.013  0.00  0.00     0.107 C 
HETATM    3  C   UNK N   1       2.881   0.496  -0.351  0.00  0.00     0.107 C 
HETATM    4  C   UNK N   1       0.454   0.473   0.416  0.00  0.00     0.180 C 
HETATM    5  C   UNK N   1       0.261   1.923  -0.114  0.00  0.00     0.178 C 
HETATM    6  C   UNK N   1       1.541  -0.268  -0.424  0.00  0.00     0.178 C 
ENDROOT
BRANCH   6   7
HETATM    7  O   UNK N   1       1.767  -1.623  -0.040  0.00  0.00    -0.349 OA
BRANCH   7   8
HETATM    8  C   UNK N   1       0.576  -2.389   0.084  0.00  0.00     0.291 C 
HETATM    9  C   UNK N   1       0.943  -3.881   0.113  0.00  0.00     0.198 C 
HETATM   10  C   UNK N   1      -0.331  -4.737   0.413  0.00  0.00     0.146 C 
HETATM   11  C   UNK N   1      -1.622  -4.000  -0.055  0.00  0.00     0.098 C 
HETATM   12  C   UNK N   1      -2.763  -4.958  -0.361  0.00  0.00     0.050 C 
HETATM   13  C   UNK N   1      -1.279  -3.151  -1.276  0.00  0.00     0.210 C 
HETATM   14  O   UNK N   1      -0.341  -2.110  -0.991  0.00  0.00    -0.356 OA
BRANCH   9  15
HETATM   15  O   UNK N   1       1.466  -4.206  -1.146  0.00  0.00    -0.388 OA
HETATM   16  H   UNK N   1       1.452  -4.633  -2.017  0.00  0.00     0.210 HD
ENDBRANCH   9  15
BRANCH  10  17
HETATM   17  N   UNK N   1      -0.210  -6.055  -0.227  0.00  0.00    -0.416 N 
HETATM   18  C   UNK N   1       0.782  -6.862   0.471  0.00  0.00     0.140 C 
HETATM   19  H   UNK N   1      -0.744  -6.360  -1.041  0.00  0.00     0.153 HD
ENDBRANCH  10  17
BRANCH  11  20
HETATM   20  O   UNK N   1      -2.072  -3.137   0.952  0.00  0.00    -0.386 OA
HETATM   21  H   UNK N   1      -1.711  -2.568   1.649  0.00  0.00     0.210 HD
ENDBRANCH  11  20
ENDBRANCH   7   8
ENDBRANCH   6   7
BRANCH   3  22
HETATM   22  N   UNK N   1       3.434   0.464   0.996  0.00  0.00    -0.423 N 
HETATM   23  H   UNK N   1       3.607   0.117   1.940  0.00  0.00     0.150 HD
HETATM   24  H   UNK N   1       3.994   1.316   0.996  0.00  0.00     0.150 HD
ENDBRANCH   3  22
BRANCH   4  25
HETATM   25  O   UNK N   1       0.784   0.482   1.775  0.00  0.00    -0.390 OA
HETATM   26  H   UNK N   1       0.904   0.287   2.717  0.00  0.00     0.210 HD
ENDBRANCH   4  25
BRANCH   5  27
HETATM   27  O   UNK N   1      -0.728   2.666   0.595  0.00  0.00    -0.349 OA
BRANCH  27  28
HETATM   28  C   UNK N   1      -1.984   2.010   0.707  0.00  0.00     0.288 C 
HETATM   29  C   UNK N   1      -3.087   3.024   1.032  0.00  0.00     0.133 C 
HETATM   30  C   UNK N   1      -4.409   2.264   1.214  0.00  0.00     0.059 C 
HETATM   31  C   UNK N   1      -4.609   1.200   0.159  0.00  0.00     0.009 C 
HETATM   32  C   UNK N   1      -3.585   0.790  -0.613  0.00  0.00     0.063 C 
HETATM   33  O   UNK N   1      -2.344   1.326  -0.451  0.00  0.00    -0.321 OA
BRANCH  29  34
HETATM   34  N   UNK N   1      -3.221   3.984  -0.055  0.00  0.00    -0.422 N 
HETATM   35  H   UNK N   1      -2.686   4.402  -0.816  0.00  0.00     0.150 HD
HETATM   36  H   UNK N   1      -4.167   4.367  -0.055  0.00  0.00     0.150 HD
ENDBRANCH  29  34
BRANCH  32  37
HETATM   37  C   UNK N   1      -3.813  -0.235  -1.675  0.00  0.00     0.175 C 
BRANCH  37  38
HETATM   38  N   UNK N   1      -4.224  -1.494  -1.076  0.00  0.00    -0.425 N 
HETATM   39  H   UNK N   1      -5.133  -1.686  -0.656  0.00  0.00     0.150 HD
HETATM   40  H   UNK N   1      -3.542  -2.253  -1.076  0.00  0.00     0.150 HD
ENDBRANCH  37  38
ENDBRANCH  32  37
ENDBRANCH  27  28
ENDBRANCH   5  27
BRANCH   2  41
HETATM   41  N   UNK N   1       1.459   4.022  -0.547  0.00  0.00    -0.423 N 
HETATM   42  H   UNK N   1       2.226   4.581  -0.922  0.00  0.00     0.150 HD
HETATM   43  H   UNK N   1       0.527   4.435  -0.547  0.00  0.00     0.150 HD
ENDBRANCH   2  41
TORSDOF 13
