MODEL 1
REMARK VINA RESULT:      -8.4      0.000      0.000
REMARK  7 active torsions:
REMARK  status: ('A' for Active; 'I' for Inactive)
REMARK    1  A    between atoms: C_2  and  C_3 
REMARK    2  A    between atoms: C_2  and  O_30 
REMARK    3  A    between atoms: C_15  and  O_28 
REMARK    4  A    between atoms: C_16  and  O_18 
REMARK    5  A    between atoms: O_18  and  C_19 
REMARK    6  A    between atoms: C_19  and  C_20 
REMARK    7  A    between atoms: C_23  and  O_26 
ROOT
HETATM    1  C   UNK N   1      31.962  20.808  -4.592  0.00  0.00    -0.029 A 
HETATM    2  C   UNK N   1      31.322  20.891  -5.833  0.00  0.00     0.011 A 
HETATM    3  C   UNK N   1      30.176  21.667  -5.987  0.00  0.00     0.014 A 
HETATM    4  C   UNK N   1      29.654  22.386  -4.900  0.00  0.00    -0.007 A 
HETATM    5  C   UNK N   1      30.299  22.325  -3.650  0.00  0.00     0.051 A 
HETATM    6  C   UNK N   1      31.449  21.534  -3.501  0.00  0.00     0.028 A 
HETATM    7  C   UNK N   1      29.766  23.059  -2.575  0.00  0.00     0.299 A 
HETATM    8  O   UNK N   1      30.301  23.023  -1.479  0.00  0.00    -0.259 OA
HETATM    9  O   UNK N   1      28.672  23.801  -2.741  0.00  0.00    -0.274 OA
HETATM   10  C   UNK N   1      28.027  23.878  -3.906  0.00  0.00     0.093 A 
HETATM   11  C   UNK N   1      28.497  23.161  -5.028  0.00  0.00     0.012 A 
HETATM   12  C   UNK N   1      27.796  23.229  -6.238  0.00  0.00     0.054 A 
HETATM   13  C   UNK N   1      26.631  23.996  -6.342  0.00  0.00     0.102 A 
HETATM   14  C   UNK N   1      26.177  24.719  -5.234  0.00  0.00     0.105 A 
HETATM   15  C   UNK N   1      26.877  24.667  -4.016  0.00  0.00     0.078 A 
ENDROOT
BRANCH  14  16
HETATM   16  O   UNK N   1      25.061  25.458  -5.379  0.00  0.00    -0.344 OA
BRANCH  16  17
HETATM   17  C   UNK N   1      24.974  26.598  -6.139  0.00  0.00     0.214 C 
BRANCH  17  18
HETATM   18  C   UNK N   1      25.805  27.629  -5.452  0.00  0.00    -0.034 A 
HETATM   19  C   UNK N   1      25.450  28.060  -4.165  0.00  0.00     0.012 A 
HETATM   20  C   UNK N   1      26.275  28.936  -3.464  0.00  0.00     0.037 A 
HETATM   21  C   UNK N   1      27.465  29.403  -4.046  0.00  0.00     0.068 A 
HETATM   22  C   UNK N   1      27.802  28.993  -5.343  0.00  0.00     0.037 A 
HETATM   23  C   UNK N   1      26.981  28.100  -6.041  0.00  0.00     0.012 A 
BRANCH  21  24
HETATM   24  O   UNK N   1      28.305  30.227  -3.377  0.00  0.00    -0.356 OA
HETATM   25  C   UNK N   1      28.292  30.360  -2.005  0.00  0.00     0.210 C 
ENDBRANCH  21  24
ENDBRANCH  17  18
ENDBRANCH  16  17
ENDBRANCH  14  16
BRANCH  13  26
HETATM   26  O   UNK N   1      25.941  24.076  -7.507  0.00  0.00    -0.353 OA
HETATM   27  C   UNK N   1      25.795  23.020  -8.376  0.00  0.00     0.210 C 
ENDBRANCH  13  26
BRANCH   1  28
HETATM   28  C   UNK N   1      33.181  19.935  -4.464  0.00  0.00     0.147 C 
HETATM   29  C   UNK N   1      34.243  20.498  -3.532  0.00  0.00     0.044 C 
BRANCH  28  30
HETATM   30  O   UNK N   1      32.808  18.667  -4.015  0.00  0.00    -0.391 OA
HETATM   31  H   UNK N   1      33.162  17.858  -3.615  0.00  0.00     0.210 HD
ENDBRANCH  28  30
ENDBRANCH   1  28
TORSDOF 7
ENDMDL
MODEL 2
REMARK VINA RESULT:      -8.2     16.481     21.022
REMARK  7 active torsions:
REMARK  status: ('A' for Active; 'I' for Inactive)
REMARK    1  A    between atoms: C_2  and  C_3 
REMARK    2  A    between atoms: C_2  and  O_30 
REMARK    3  A    between atoms: C_15  and  O_28 
REMARK    4  A    between atoms: C_16  and  O_18 
REMARK    5  A    between atoms: O_18  and  C_19 
REMARK    6  A    between atoms: C_19  and  C_20 
REMARK    7  A    between atoms: C_23  and  O_26 
ROOT
HETATM    1  C   UNK N   1      32.210  16.724   6.289  0.00  0.00    -0.029 A 
HETATM    2  C   UNK N   1      31.992  15.438   6.795  0.00  0.00     0.011 A 
HETATM    3  C   UNK N   1      32.692  14.992   7.915  0.00  0.00     0.014 A 
HETATM    4  C   UNK N   1      33.616  15.831   8.556  0.00  0.00    -0.007 A 
HETATM    5  C   UNK N   1      33.831  17.134   8.066  0.00  0.00     0.051 A 
HETATM    6  C   UNK N   1      33.128  17.573   6.933  0.00  0.00     0.028 A 
HETATM    7  C   UNK N   1      34.755  17.963   8.727  0.00  0.00     0.299 A 
HETATM    8  O   UNK N   1      34.965  19.096   8.324  0.00  0.00    -0.259 OA
HETATM    9  O   UNK N   1      35.411  17.523   9.799  0.00  0.00    -0.274 OA
HETATM   10  C   UNK N   1      35.242  16.294  10.288  0.00  0.00     0.093 A 
HETATM   11  C   UNK N   1      34.339  15.400   9.673  0.00  0.00     0.012 A 
HETATM   12  C   UNK N   1      34.191  14.104  10.180  0.00  0.00     0.054 A 
HETATM   13  C   UNK N   1      34.935  13.685  11.287  0.00  0.00     0.102 A 
HETATM   14  C   UNK N   1      35.817  14.577  11.907  0.00  0.00     0.105 A 
HETATM   15  C   UNK N   1      35.968  15.884  11.413  0.00  0.00     0.078 A 
ENDROOT
BRANCH  14  16
HETATM   16  O   UNK N   1      36.503  14.141  12.980  0.00  0.00    -0.344 OA
BRANCH  16  17
HETATM   17  C   UNK N   1      36.438  14.706  14.229  0.00  0.00     0.214 C 
BRANCH  17  18
HETATM   18  C   UNK N   1      36.256  13.582  15.193  0.00  0.00    -0.034 A 
HETATM   19  C   UNK N   1      35.587  13.811  16.405  0.00  0.00     0.012 A 
HETATM   20  C   UNK N   1      35.309  12.751  17.265  0.00  0.00     0.037 A 
HETATM   21  C   UNK N   1      35.705  11.446  16.928  0.00  0.00     0.068 A 
HETATM   22  C   UNK N   1      36.398  11.227  15.731  0.00  0.00     0.037 A 
HETATM   23  C   UNK N   1      36.663  12.289  14.859  0.00  0.00     0.012 A 
BRANCH  21  24
HETATM   24  O   UNK N   1      35.418  10.392  17.727  0.00  0.00    -0.356 OA
HETATM   25  C   UNK N   1      35.617  10.405  19.090  0.00  0.00     0.210 C 
ENDBRANCH  21  24
ENDBRANCH  17  18
ENDBRANCH  16  17
ENDBRANCH  14  16
BRANCH  13  26
HETATM   26  O   UNK N   1      34.803  12.434  11.794  0.00  0.00    -0.353 OA
HETATM   27  C   UNK N   1      35.322  11.312  11.190  0.00  0.00     0.210 C 
ENDBRANCH  13  26
BRANCH   1  28
HETATM   28  C   UNK N   1      31.453  17.154   5.061  0.00  0.00     0.147 C 
HETATM   29  C   UNK N   1      32.350  17.554   3.899  0.00  0.00     0.044 C 
BRANCH  28  30
HETATM   30  O   UNK N   1      30.604  16.127   4.646  0.00  0.00    -0.391 OA
HETATM   31  H   UNK N   1      30.510  15.162   4.639  0.00  0.00     0.210 HD
ENDBRANCH  28  30
ENDBRANCH   1  28
TORSDOF 7
ENDMDL
MODEL 3
REMARK VINA RESULT:      -8.1     10.352     14.208
REMARK  7 active torsions:
REMARK  status: ('A' for Active; 'I' for Inactive)
REMARK    1  A    between atoms: C_2  and  C_3 
REMARK    2  A    between atoms: C_2  and  O_30 
REMARK    3  A    between atoms: C_15  and  O_28 
REMARK    4  A    between atoms: C_16  and  O_18 
REMARK    5  A    between atoms: O_18  and  C_19 
REMARK    6  A    between atoms: C_19  and  C_20 
REMARK    7  A    between atoms: C_23  and  O_26 
ROOT
HETATM    1  C   UNK N   1      22.017  19.659   3.268  0.00  0.00    -0.029 A 
HETATM    2  C   UNK N   1      22.083  18.485   4.025  0.00  0.00     0.011 A 
HETATM    3  C   UNK N   1      23.316  17.957   4.404  0.00  0.00     0.014 A 
HETATM    4  C   UNK N   1      24.508  18.604   4.041  0.00  0.00    -0.007 A 
HETATM    5  C   UNK N   1      24.453  19.797   3.294  0.00  0.00     0.051 A 
HETATM    6  C   UNK N   1      23.208  20.316   2.908  0.00  0.00     0.028 A 
HETATM    7  C   UNK N   1      25.658  20.434   2.946  0.00  0.00     0.299 A 
HETATM    8  O   UNK N   1      25.643  21.467   2.296  0.00  0.00    -0.259 OA
HETATM    9  O   UNK N   1      26.827  19.919   3.322  0.00  0.00    -0.274 OA
HETATM   10  C   UNK N   1      26.921  18.789   4.022  0.00  0.00     0.093 A 
HETATM   11  C   UNK N   1      25.756  18.086   4.399  0.00  0.00     0.012 A 
HETATM   12  C   UNK N   1      25.869  16.886   5.111  0.00  0.00     0.054 A 
HETATM   13  C   UNK N   1      27.127  16.374   5.446  0.00  0.00     0.102 A 
HETATM   14  C   UNK N   1      28.280  17.081   5.087  0.00  0.00     0.105 A 
HETATM   15  C   UNK N   1      28.179  18.292   4.380  0.00  0.00     0.078 A 
ENDROOT
BRANCH  14  16
HETATM   16  O   UNK N   1      29.471  16.564   5.441  0.00  0.00    -0.344 OA
BRANCH  16  17
HETATM   17  C   UNK N   1      30.672  16.911   4.875  0.00  0.00     0.214 C 
BRANCH  17  18
HETATM   18  C   UNK N   1      31.597  17.226   6.002  0.00  0.00    -0.034 A 
HETATM   19  C   UNK N   1      31.090  17.322   7.307  0.00  0.00     0.012 A 
HETATM   20  C   UNK N   1      31.954  17.503   8.385  0.00  0.00     0.037 A 
HETATM   21  C   UNK N   1      33.339  17.601   8.170  0.00  0.00     0.068 A 
HETATM   22  C   UNK N   1      33.838  17.534   6.863  0.00  0.00     0.037 A 
HETATM   23  C   UNK N   1      32.972  17.335   5.782  0.00  0.00     0.012 A 
BRANCH  21  24
HETATM   24  O   UNK N   1      34.206  17.742   9.201  0.00  0.00    -0.356 OA
HETATM   25  C   UNK N   1      34.949  16.697   9.706  0.00  0.00     0.210 C 
ENDBRANCH  21  24
ENDBRANCH  17  18
ENDBRANCH  16  17
ENDBRANCH  14  16
BRANCH  13  26
HETATM   26  O   UNK N   1      27.256  15.215   6.138  0.00  0.00    -0.353 OA
HETATM   27  C   UNK N   1      26.636  14.042   5.774  0.00  0.00     0.210 C 
ENDBRANCH  13  26
BRANCH   1  28
HETATM   28  C   UNK N   1      20.666  20.177   2.855  0.00  0.00     0.147 C 
HETATM   29  C   UNK N   1      19.614  19.089   2.701  0.00  0.00     0.044 C 
BRANCH  28  30
HETATM   30  O   UNK N   1      20.216  21.116   3.786  0.00  0.00    -0.391 OA
HETATM   31  H   UNK N   1      19.948  22.043   3.874  0.00  0.00     0.210 HD
ENDBRANCH  28  30
ENDBRANCH   1  28
TORSDOF 7
ENDMDL
MODEL 4
REMARK VINA RESULT:      -7.6     16.963     20.548
REMARK  7 active torsions:
REMARK  status: ('A' for Active; 'I' for Inactive)
REMARK    1  A    between atoms: C_2  and  C_3 
REMARK    2  A    between atoms: C_2  and  O_30 
REMARK    3  A    between atoms: C_15  and  O_28 
REMARK    4  A    between atoms: C_16  and  O_18 
REMARK    5  A    between atoms: O_18  and  C_19 
REMARK    6  A    between atoms: C_19  and  C_20 
REMARK    7  A    between atoms: C_23  and  O_26 
ROOT
HETATM    1  C   UNK N   1      35.312  11.398  16.254  0.00  0.00    -0.029 A 
HETATM    2  C   UNK N   1      34.568  10.957  15.154  0.00  0.00     0.011 A 
HETATM    3  C   UNK N   1      34.536  11.705  13.978  0.00  0.00     0.014 A 
HETATM    4  C   UNK N   1      35.259  12.904  13.879  0.00  0.00    -0.007 A 
HETATM    5  C   UNK N   1      36.025  13.348  14.974  0.00  0.00     0.051 A 
HETATM    6  C   UNK N   1      36.045  12.594  16.158  0.00  0.00     0.028 A 
HETATM    7  C   UNK N   1      36.748  14.549  14.852  0.00  0.00     0.299 A 
HETATM    8  O   UNK N   1      37.418  14.961  15.786  0.00  0.00    -0.259 OA
HETATM    9  O   UNK N   1      36.711  15.248  13.719  0.00  0.00    -0.274 OA
HETATM   10  C   UNK N   1      35.992  14.865  12.664  0.00  0.00     0.093 A 
HETATM   11  C   UNK N   1      35.231  13.677  12.714  0.00  0.00     0.012 A 
HETATM   12  C   UNK N   1      34.459  13.300  11.609  0.00  0.00     0.054 A 
HETATM   13  C   UNK N   1      34.429  14.095  10.459  0.00  0.00     0.102 A 
HETATM   14  C   UNK N   1      35.197  15.263  10.404  0.00  0.00     0.105 A 
HETATM   15  C   UNK N   1      35.985  15.647  11.504  0.00  0.00     0.078 A 
ENDROOT
BRANCH  14  16
HETATM   16  O   UNK N   1      35.155  15.992   9.273  0.00  0.00    -0.344 OA
BRANCH  16  17
HETATM   17  C   UNK N   1      34.676  17.275   9.190  0.00  0.00     0.214 C 
BRANCH  17  18
HETATM   18  C   UNK N   1      33.613  17.263   8.143  0.00  0.00    -0.034 A 
HETATM   19  C   UNK N   1      33.959  17.484   6.802  0.00  0.00     0.012 A 
HETATM   20  C   UNK N   1      32.999  17.364   5.799  0.00  0.00     0.037 A 
HETATM   21  C   UNK N   1      31.675  17.031   6.127  0.00  0.00     0.068 A 
HETATM   22  C   UNK N   1      31.327  16.840   7.470  0.00  0.00     0.037 A 
HETATM   23  C   UNK N   1      32.294  16.944   8.476  0.00  0.00     0.012 A 
BRANCH  21  24
HETATM   24  O   UNK N   1      30.728  16.873   5.172  0.00  0.00    -0.356 OA
HETATM   25  C   UNK N   1      29.660  17.731   5.024  0.00  0.00     0.210 C 
ENDBRANCH  21  24
ENDBRANCH  17  18
ENDBRANCH  16  17
ENDBRANCH  14  16
BRANCH  13  26
HETATM   26  O   UNK N   1      33.690  13.744   9.377  0.00  0.00    -0.353 OA
HETATM   27  C   UNK N   1      34.034  12.721   8.523  0.00  0.00     0.210 C 
ENDBRANCH  13  26
BRANCH   1  28
HETATM   28  C   UNK N   1      35.295  10.574  17.514  0.00  0.00     0.147 C 
HETATM   29  C   UNK N   1      36.448   9.587  17.615  0.00  0.00     0.044 C 
BRANCH  28  30
HETATM   30  O   UNK N   1      35.316  11.415  18.628  0.00  0.00    -0.391 OA
HETATM   31  H   UNK N   1      35.867  11.681  19.380  0.00  0.00     0.210 HD
ENDBRANCH  28  30
ENDBRANCH   1  28
TORSDOF 7
ENDMDL
MODEL 5
REMARK VINA RESULT:      -7.5     20.471     24.303
REMARK  7 active torsions:
REMARK  status: ('A' for Active; 'I' for Inactive)
REMARK    1  A    between atoms: C_2  and  C_3 
REMARK    2  A    between atoms: C_2  and  O_30 
REMARK    3  A    between atoms: C_15  and  O_28 
REMARK    4  A    between atoms: C_16  and  O_18 
REMARK    5  A    between atoms: O_18  and  C_19 
REMARK    6  A    between atoms: C_19  and  C_20 
REMARK    7  A    between atoms: C_23  and  O_26 
ROOT
HETATM    1  C   UNK N   1      34.896  10.469  19.950  0.00  0.00    -0.029 A 
HETATM    2  C   UNK N   1      34.937   9.454  18.988  0.00  0.00     0.011 A 
HETATM    3  C   UNK N   1      35.116   9.764  17.642  0.00  0.00     0.014 A 
HETATM    4  C   UNK N   1      35.269  11.098  17.234  0.00  0.00    -0.007 A 
HETATM    5  C   UNK N   1      35.247  12.127  18.195  0.00  0.00     0.051 A 
HETATM    6  C   UNK N   1      35.057  11.807  19.549  0.00  0.00     0.028 A 
HETATM    7  C   UNK N   1      35.410  13.457  17.768  0.00  0.00     0.299 A 
HETATM    8  O   UNK N   1      35.391  14.371  18.577  0.00  0.00    -0.259 OA
HETATM    9  O   UNK N   1      35.586  13.735  16.477  0.00  0.00    -0.274 OA
HETATM   10  C   UNK N   1      35.605  12.791  15.536  0.00  0.00     0.093 A 
HETATM   11  C   UNK N   1      35.437  11.433  15.887  0.00  0.00     0.012 A 
HETATM   12  C   UNK N   1      35.432  10.454  14.887  0.00  0.00     0.054 A 
HETATM   13  C   UNK N   1      35.584  10.810  13.543  0.00  0.00     0.102 A 
HETATM   14  C   UNK N   1      35.767  12.154  13.198  0.00  0.00     0.105 A 
HETATM   15  C   UNK N   1      35.784  13.145  14.194  0.00  0.00     0.078 A 
ENDROOT
BRANCH  14  16
HETATM   16  O   UNK N   1      35.927  12.454  11.896  0.00  0.00    -0.344 OA
BRANCH  16  17
HETATM   17  C   UNK N   1      36.925  13.253  11.397  0.00  0.00     0.214 C 
BRANCH  17  18
HETATM   18  C   UNK N   1      36.253  14.432  10.777  0.00  0.00    -0.034 A 
HETATM   19  C   UNK N   1      35.709  14.320   9.488  0.00  0.00     0.012 A 
HETATM   20  C   UNK N   1      34.980  15.373   8.939  0.00  0.00     0.037 A 
HETATM   21  C   UNK N   1      34.794  16.558   9.670  0.00  0.00     0.068 A 
HETATM   22  C   UNK N   1      35.363  16.676  10.944  0.00  0.00     0.037 A 
HETATM   23  C   UNK N   1      36.081  15.613  11.502  0.00  0.00     0.012 A 
BRANCH  21  24
HETATM   24  O   UNK N   1      34.061  17.584   9.177  0.00  0.00    -0.356 OA
HETATM   25  C   UNK N   1      34.439  18.314   8.071  0.00  0.00     0.210 C 
ENDBRANCH  21  24
ENDBRANCH  17  18
ENDBRANCH  16  17
ENDBRANCH  14  16
BRANCH  13  26
HETATM   26  O   UNK N   1      35.585   9.874  12.561  0.00  0.00    -0.353 OA
HETATM   27  C   UNK N   1      36.631   9.008  12.340  0.00  0.00     0.210 C 
ENDBRANCH  13  26
BRANCH   1  28
HETATM   28  C   UNK N   1      34.671  10.091  21.389  0.00  0.00     0.147 C 
HETATM   29  C   UNK N   1      33.280  10.433  21.902  0.00  0.00     0.044 C 
BRANCH  28  30
HETATM   30  O   UNK N   1      34.895   8.724  21.559  0.00  0.00    -0.391 OA
HETATM   31  H   UNK N   1      34.462   7.859  21.490  0.00  0.00     0.210 HD
ENDBRANCH  28  30
ENDBRANCH   1  28
TORSDOF 7
ENDMDL
MODEL 6
REMARK VINA RESULT:      -7.5     18.468     22.369
REMARK  7 active torsions:
REMARK  status: ('A' for Active; 'I' for Inactive)
REMARK    1  A    between atoms: C_2  and  C_3 
REMARK    2  A    between atoms: C_2  and  O_30 
REMARK    3  A    between atoms: C_15  and  O_28 
REMARK    4  A    between atoms: C_16  and  O_18 
REMARK    5  A    between atoms: O_18  and  C_19 
REMARK    6  A    between atoms: C_19  and  C_20 
REMARK    7  A    between atoms: C_23  and  O_26 
ROOT
HETATM    1  C   UNK N   1      35.319  12.113  18.110  0.00  0.00    -0.029 A 
HETATM    2  C   UNK N   1      35.462  13.423  17.639  0.00  0.00     0.011 A 
HETATM    3  C   UNK N   1      35.612  13.671  16.277  0.00  0.00     0.014 A 
HETATM    4  C   UNK N   1      35.612  12.611  15.357  0.00  0.00    -0.007 A 
HETATM    5  C   UNK N   1      35.452  11.289  15.817  0.00  0.00     0.051 A 
HETATM    6  C   UNK N   1      35.310  11.047  17.193  0.00  0.00     0.028 A 
HETATM    7  C   UNK N   1      35.447  10.241  14.879  0.00  0.00     0.299 A 
HETATM    8  O   UNK N   1      35.314   9.085  15.249  0.00  0.00    -0.259 OA
HETATM    9  O   UNK N   1      35.587  10.497  13.580  0.00  0.00    -0.274 OA
HETATM   10  C   UNK N   1      35.749  11.732  13.106  0.00  0.00     0.093 A 
HETATM   11  C   UNK N   1      35.776  12.835  13.987  0.00  0.00     0.012 A 
HETATM   12  C   UNK N   1      35.973  14.124  13.479  0.00  0.00     0.054 A 
HETATM   13  C   UNK N   1      36.152  14.328  12.107  0.00  0.00     0.102 A 
HETATM   14  C   UNK N   1      36.108  13.236  11.233  0.00  0.00     0.105 A 
HETATM   15  C   UNK N   1      35.901  11.937  11.730  0.00  0.00     0.078 A 
ENDROOT
BRANCH  14  16
HETATM   16  O   UNK N   1      36.268  13.475   9.918  0.00  0.00    -0.344 OA
BRANCH  16  17
HETATM   17  C   UNK N   1      35.414  13.037   8.936  0.00  0.00     0.214 C 
BRANCH  17  18
HETATM   18  C   UNK N   1      34.513  14.182   8.617  0.00  0.00    -0.034 A 
HETATM   19  C   UNK N   1      33.250  14.260   9.224  0.00  0.00     0.012 A 
HETATM   20  C   UNK N   1      32.442  15.377   9.026  0.00  0.00     0.037 A 
HETATM   21  C   UNK N   1      32.884  16.430   8.208  0.00  0.00     0.068 A 
HETATM   22  C   UNK N   1      34.133  16.337   7.582  0.00  0.00     0.037 A 
HETATM   23  C   UNK N   1      34.952  15.221   7.794  0.00  0.00     0.012 A 
BRANCH  21  24
HETATM   24  O   UNK N   1      32.137  17.544   8.025  0.00  0.00    -0.356 OA
HETATM   25  C   UNK N   1      30.951  17.771   8.688  0.00  0.00     0.210 C 
ENDBRANCH  21  24
ENDBRANCH  17  18
ENDBRANCH  16  17
ENDBRANCH  14  16
BRANCH  13  26
HETATM   26  O   UNK N   1      36.342  15.570  11.596  0.00  0.00    -0.353 OA
HETATM   27  C   UNK N   1      35.312  16.438  11.312  0.00  0.00     0.210 C 
ENDBRANCH  13  26
BRANCH   1  28
HETATM   28  C   UNK N   1      35.188  11.889  19.593  0.00  0.00     0.147 C 
HETATM   29  C   UNK N   1      36.057  10.757  20.120  0.00  0.00     0.044 C 
BRANCH  28  30
HETATM   30  O   UNK N   1      35.505  13.063  20.278  0.00  0.00    -0.391 OA
HETATM   31  H   UNK N   1      35.611  14.019  20.157  0.00  0.00     0.210 HD
ENDBRANCH  28  30
ENDBRANCH   1  28
TORSDOF 7
ENDMDL
MODEL 7
REMARK VINA RESULT:      -7.2     12.142     14.176
REMARK  7 active torsions:
REMARK  status: ('A' for Active; 'I' for Inactive)
REMARK    1  A    between atoms: C_2  and  C_3 
REMARK    2  A    between atoms: C_2  and  O_30 
REMARK    3  A    between atoms: C_15  and  O_28 
REMARK    4  A    between atoms: C_16  and  O_18 
REMARK    5  A    between atoms: O_18  and  C_19 
REMARK    6  A    between atoms: C_19  and  C_20 
REMARK    7  A    between atoms: C_23  and  O_26 
ROOT
HETATM    1  C   UNK N   1      32.768  17.649   7.856  0.00  0.00    -0.029 A 
HETATM    2  C   UNK N   1      32.734  17.367   6.486  0.00  0.00     0.011 A 
HETATM    3  C   UNK N   1      31.524  17.096   5.850  0.00  0.00     0.014 A 
HETATM    4  C   UNK N   1      30.322  17.113   6.574  0.00  0.00    -0.007 A 
HETATM    5  C   UNK N   1      30.341  17.413   7.950  0.00  0.00     0.051 A 
HETATM    6  C   UNK N   1      31.566  17.676   8.585  0.00  0.00     0.028 A 
HETATM    7  C   UNK N   1      29.125  17.433   8.657  0.00  0.00     0.299 A 
HETATM    8  O   UNK N   1      29.111  17.685   9.851  0.00  0.00    -0.259 OA
HETATM    9  O   UNK N   1      27.977  17.178   8.033  0.00  0.00    -0.274 OA
HETATM   10  C   UNK N   1      27.917  16.882   6.734  0.00  0.00     0.093 A 
HETATM   11  C   UNK N   1      29.097  16.832   5.960  0.00  0.00     0.012 A 
HETATM   12  C   UNK N   1      29.024  16.494   4.604  0.00  0.00     0.054 A 
HETATM   13  C   UNK N   1      27.793  16.198   4.011  0.00  0.00     0.102 A 
HETATM   14  C   UNK N   1      26.622  16.265   4.775  0.00  0.00     0.105 A 
HETATM   15  C   UNK N   1      26.681  16.613   6.136  0.00  0.00     0.078 A 
ENDROOT
BRANCH  14  16
HETATM   16  O   UNK N   1      25.455  15.990   4.164  0.00  0.00    -0.344 OA
BRANCH  16  17
HETATM   17  C   UNK N   1      24.518  16.930   3.812  0.00  0.00     0.214 C 
BRANCH  17  18
HETATM   18  C   UNK N   1      23.475  16.907   4.879  0.00  0.00    -0.034 A 
HETATM   19  C   UNK N   1      22.794  18.089   5.206  0.00  0.00     0.012 A 
HETATM   20  C   UNK N   1      21.741  18.065   6.118  0.00  0.00     0.037 A 
HETATM   21  C   UNK N   1      21.360  16.855   6.722  0.00  0.00     0.068 A 
HETATM   22  C   UNK N   1      22.061  15.682   6.415  0.00  0.00     0.037 A 
HETATM   23  C   UNK N   1      23.109  15.704   5.486  0.00  0.00     0.012 A 
BRANCH  21  24
HETATM   24  O   UNK N   1      20.319  16.793   7.585  0.00  0.00    -0.356 OA
HETATM   25  C   UNK N   1      20.298  15.956   8.679  0.00  0.00     0.210 C 
ENDBRANCH  21  24
ENDBRANCH  17  18
ENDBRANCH  16  17
ENDBRANCH  14  16
BRANCH  13  26
HETATM   26  O   UNK N   1      27.702  15.872   2.697  0.00  0.00    -0.353 OA
HETATM   27  C   UNK N   1      28.368  14.809   2.133  0.00  0.00     0.210 C 
ENDBRANCH  13  26
BRANCH   1  28
HETATM   28  C   UNK N   1      34.100  17.907   8.507  0.00  0.00     0.147 C 
HETATM   29  C   UNK N   1      34.780  16.650   9.028  0.00  0.00     0.044 C 
BRANCH  28  30
HETATM   30  O   UNK N   1      34.952  18.543   7.602  0.00  0.00    -0.391 OA
HETATM   31  H   UNK N   1      35.166  19.411   7.228  0.00  0.00     0.210 HD
ENDBRANCH  28  30
ENDBRANCH   1  28
TORSDOF 7
ENDMDL
MODEL 8
REMARK VINA RESULT:      -7.2      1.600      2.426
REMARK  7 active torsions:
REMARK  status: ('A' for Active; 'I' for Inactive)
REMARK    1  A    between atoms: C_2  and  C_3 
REMARK    2  A    between atoms: C_2  and  O_30 
REMARK    3  A    between atoms: C_15  and  O_28 
REMARK    4  A    between atoms: C_16  and  O_18 
REMARK    5  A    between atoms: O_18  and  C_19 
REMARK    6  A    between atoms: C_19  and  C_20 
REMARK    7  A    between atoms: C_23  and  O_26 
ROOT
HETATM    1  C   UNK N   1      33.909  19.448  -5.315  0.00  0.00    -0.029 A 
HETATM    2  C   UNK N   1      33.218  19.550  -6.527  0.00  0.00     0.011 A 
HETATM    3  C   UNK N   1      32.059  20.318  -6.617  0.00  0.00     0.014 A 
HETATM    4  C   UNK N   1      31.575  21.008  -5.495  0.00  0.00    -0.007 A 
HETATM    5  C   UNK N   1      32.272  20.928  -4.273  0.00  0.00     0.051 A 
HETATM    6  C   UNK N   1      33.433  20.144  -4.189  0.00  0.00     0.028 A 
HETATM    7  C   UNK N   1      31.775  21.633  -3.162  0.00  0.00     0.299 A 
HETATM    8  O   UNK N   1      32.355  21.578  -2.089  0.00  0.00    -0.259 OA
HETATM    9  O   UNK N   1      30.669  22.367  -3.268  0.00  0.00    -0.274 OA
HETATM   10  C   UNK N   1      29.977  22.462  -4.403  0.00  0.00     0.093 A 
HETATM   11  C   UNK N   1      30.407  21.774  -5.559  0.00  0.00     0.012 A 
HETATM   12  C   UNK N   1      29.657  21.861  -6.738  0.00  0.00     0.054 A 
HETATM   13  C   UNK N   1      28.482  22.618  -6.778  0.00  0.00     0.102 A 
HETATM   14  C   UNK N   1      28.066  23.313  -5.637  0.00  0.00     0.105 A 
HETATM   15  C   UNK N   1      28.816  23.242  -4.450  0.00  0.00     0.078 A 
ENDROOT
BRANCH  14  16
HETATM   16  O   UNK N   1      26.939  24.044  -5.720  0.00  0.00    -0.344 OA
BRANCH  16  17
HETATM   17  C   UNK N   1      26.049  24.226  -4.691  0.00  0.00     0.214 C 
BRANCH  17  18
HETATM   18  C   UNK N   1      25.973  25.697  -4.452  0.00  0.00    -0.034 A 
HETATM   19  C   UNK N   1      26.745  26.274  -3.434  0.00  0.00     0.012 A 
HETATM   20  C   UNK N   1      26.773  27.657  -3.270  0.00  0.00     0.037 A 
HETATM   21  C   UNK N   1      26.019  28.483  -4.120  0.00  0.00     0.068 A 
HETATM   22  C   UNK N   1      25.226  27.901  -5.118  0.00  0.00     0.037 A 
HETATM   23  C   UNK N   1      25.211  26.512  -5.292  0.00  0.00     0.012 A 
BRANCH  21  24
HETATM   24  O   UNK N   1      26.053  29.832  -4.008  0.00  0.00    -0.356 OA
HETATM   25  C   UNK N   1      26.875  30.492  -3.122  0.00  0.00     0.210 C 
ENDBRANCH  21  24
ENDBRANCH  17  18
ENDBRANCH  16  17
ENDBRANCH  14  16
BRANCH  13  26
HETATM   26  O   UNK N   1      27.744  22.717  -7.912  0.00  0.00    -0.353 OA
HETATM   27  C   UNK N   1      28.277  23.052  -9.136  0.00  0.00     0.210 C 
ENDBRANCH  13  26
BRANCH   1  28
HETATM   28  C   UNK N   1      35.140  18.584  -5.255  0.00  0.00     0.147 C 
HETATM   29  C   UNK N   1      36.442  19.369  -5.311  0.00  0.00     0.044 C 
BRANCH  28  30
HETATM   30  O   UNK N   1      35.122  17.816  -4.090  0.00  0.00    -0.391 OA
HETATM   31  H   UNK N   1      35.634  17.619  -3.290  0.00  0.00     0.210 HD
ENDBRANCH  28  30
ENDBRANCH   1  28
TORSDOF 7
ENDMDL
MODEL 9
REMARK VINA RESULT:      -7.1     13.852     16.023
REMARK  7 active torsions:
REMARK  status: ('A' for Active; 'I' for Inactive)
REMARK    1  A    between atoms: C_2  and  C_3 
REMARK    2  A    between atoms: C_2  and  O_30 
REMARK    3  A    between atoms: C_15  and  O_28 
REMARK    4  A    between atoms: C_16  and  O_18 
REMARK    5  A    between atoms: O_18  and  C_19 
REMARK    6  A    between atoms: C_19  and  C_20 
REMARK    7  A    between atoms: C_23  and  O_26 
ROOT
HETATM    1  C   UNK N   1      22.996  12.165  10.564  0.00  0.00    -0.029 A 
HETATM    2  C   UNK N   1      24.352  12.496  10.475  0.00  0.00     0.011 A 
HETATM    3  C   UNK N   1      24.871  13.039   9.301  0.00  0.00     0.014 A 
HETATM    4  C   UNK N   1      24.037  13.271   8.196  0.00  0.00    -0.007 A 
HETATM    5  C   UNK N   1      22.666  12.957   8.280  0.00  0.00     0.051 A 
HETATM    6  C   UNK N   1      22.153  12.402   9.463  0.00  0.00     0.028 A 
HETATM    7  C   UNK N   1      21.845  13.204   7.165  0.00  0.00     0.299 A 
HETATM    8  O   UNK N   1      20.654  12.939   7.207  0.00  0.00    -0.259 OA
HETATM    9  O   UNK N   1      22.356  13.729   6.053  0.00  0.00    -0.274 OA
HETATM   10  C   UNK N   1      23.649  14.031   5.931  0.00  0.00     0.093 A 
HETATM   11  C   UNK N   1      24.538  13.802   7.004  0.00  0.00     0.012 A 
HETATM   12  C   UNK N   1      25.897  14.099   6.854  0.00  0.00     0.054 A 
HETATM   13  C   UNK N   1      26.384  14.613   5.648  0.00  0.00     0.102 A 
HETATM   14  C   UNK N   1      25.499  14.856   4.591  0.00  0.00     0.105 A 
HETATM   15  C   UNK N   1      24.129  14.571   4.733  0.00  0.00     0.078 A 
ENDROOT
BRANCH  14  16
HETATM   16  O   UNK N   1      26.002  15.368   3.453  0.00  0.00    -0.344 OA
BRANCH  16  17
HETATM   17  C   UNK N   1      25.471  16.437   2.776  0.00  0.00     0.214 C 
BRANCH  17  18
HETATM   18  C   UNK N   1      25.890  17.660   3.520  0.00  0.00    -0.034 A 
HETATM   19  C   UNK N   1      27.251  17.878   3.783  0.00  0.00     0.012 A 
HETATM   20  C   UNK N   1      27.671  19.066   4.375  0.00  0.00     0.037 A 
HETATM   21  C   UNK N   1      26.732  20.052   4.722  0.00  0.00     0.068 A 
HETATM   22  C   UNK N   1      25.372  19.819   4.485  0.00  0.00     0.037 A 
HETATM   23  C   UNK N   1      24.951  18.631   3.874  0.00  0.00     0.012 A 
BRANCH  21  24
HETATM   24  O   UNK N   1      27.114  21.231   5.267  0.00  0.00    -0.356 OA
HETATM   25  C   UNK N   1      26.747  21.626   6.535  0.00  0.00     0.210 C 
ENDBRANCH  21  24
ENDBRANCH  17  18
ENDBRANCH  16  17
ENDBRANCH  14  16
BRANCH  13  26
HETATM   26  O   UNK N   1      27.697  14.910   5.485  0.00  0.00    -0.353 OA
HETATM   27  C   UNK N   1      28.614  14.028   4.960  0.00  0.00     0.210 C 
ENDBRANCH  13  26
BRANCH   1  28
HETATM   28  C   UNK N   1      22.484  11.554  11.841  0.00  0.00     0.147 C 
HETATM   29  C   UNK N   1      23.238  12.009  13.082  0.00  0.00     0.044 C 
BRANCH  28  30
HETATM   30  O   UNK N   1      21.129  11.852  11.997  0.00  0.00    -0.391 OA
HETATM   31  H   UNK N   1      20.417  11.869  12.654  0.00  0.00     0.210 HD
ENDBRANCH  28  30
ENDBRANCH   1  28
TORSDOF 7
ENDMDL
