MODEL 1
REMARK VINA RESULT:      -8.2      0.000      0.000
REMARK  19 active torsions:
REMARK  status: ('A' for Active; 'I' for Inactive)
REMARK    1  A    between atoms: S_2  and  C_3 
REMARK    2  A    between atoms: C_3  and  C_4 
REMARK    3  A    between atoms: C_4  and  C_5 
REMARK    4  A    between atoms: C_5  and  C_6 
REMARK    5  A    between atoms: C_5  and  N_9 
REMARK    6  A    between atoms: C_6  and  O_8 
REMARK       I    between atoms: N_9  and  C_10 
REMARK    7  A    between atoms: C_10  and  C_12 
REMARK    8  A    between atoms: C_12  and  C_13 
REMARK    9  A    between atoms: C_12  and  N_20 
REMARK   10  A    between atoms: C_13  and  C_14 
REMARK       I    between atoms: N_20  and  C_21 
REMARK   11  A    between atoms: C_21  and  C_23 
REMARK   12  A    between atoms: C_23  and  N_24 
REMARK       I    between atoms: N_24  and  C_25 
REMARK   13  A    between atoms: C_25  and  C_27 
REMARK   14  A    between atoms: C_27  and  N_28 
REMARK       I    between atoms: N_28  and  C_29 
REMARK   15  A    between atoms: C_29  and  C_31 
REMARK   16  A    between atoms: C_31  and  C_32 
REMARK   17  A    between atoms: C_31  and  N_40 
REMARK   18  A    between atoms: C_32  and  C_33 
REMARK   19  A    between atoms: C_36  and  O_39 
ROOT
HETATM    1  N   UNK N   1      33.798  17.536   9.378  0.00  0.00    -0.346 N 
HETATM    2  C   UNK N   1      34.777  16.757   9.893  0.00  0.00     0.236 C 
HETATM    3  O   UNK N   1      35.353  17.102  10.912  0.00  0.00    -0.272 OA
HETATM    4  H   UNK N   1      33.532  18.364   9.838  0.00  0.00     0.163 HD
ENDROOT
BRANCH   2   5
HETATM    5  C   UNK N   1      35.180  15.489   9.202  0.00  0.00     0.225 C 
BRANCH   5   6
HETATM    6  N   UNK N   1      34.455  14.385   9.784  0.00  0.00    -0.351 N 
HETATM    7  C   UNK N   1      35.009  13.573  10.720  0.00  0.00     0.235 C 
HETATM    8  O   UNK N   1      34.332  12.692  11.221  0.00  0.00    -0.272 OA
HETATM    9  H   UNK N   1      33.531  14.215   9.492  0.00  0.00     0.163 HD
BRANCH   7  10
HETATM   10  C   UNK N   1      36.443  13.731  11.152  0.00  0.00     0.225 C 
BRANCH  10  11
HETATM   11  N   UNK N   1      36.541  14.664  12.253  0.00  0.00    -0.351 N 
HETATM   12  C   UNK N   1      36.515  14.318  13.561  0.00  0.00     0.240 C 
HETATM   13  O   UNK N   1      36.602  15.193  14.405  0.00  0.00    -0.271 OA
HETATM   14  H   UNK N   1      36.634  15.619  12.035  0.00  0.00     0.163 HD
BRANCH  12  15
HETATM   15  C   UNK N   1      36.396  12.896  14.004  0.00  0.00     0.171 C 
BRANCH  15  16
HETATM   16  C   UNK N   1      35.027  12.673  14.632  0.00  0.00     0.072 C 
BRANCH  16  17
HETATM   17  C   UNK N   1      35.132  12.448  16.095  0.00  0.00    -0.056 A 
HETATM   18  C   UNK N   1      35.069  13.538  16.966  0.00  0.00     0.010 A 
HETATM   19  C   UNK N   1      35.180  13.338  18.344  0.00  0.00     0.037 A 
HETATM   20  C   UNK N   1      35.362  12.048  18.849  0.00  0.00     0.065 A 
HETATM   21  C   UNK N   1      35.432  10.957  17.977  0.00  0.00     0.037 A 
HETATM   22  C   UNK N   1      35.317  11.156  16.599  0.00  0.00     0.010 A 
BRANCH  20  23
HETATM   23  O   UNK N   1      35.473  11.856  20.172  0.00  0.00    -0.361 OA
HETATM   24  H   UNK N   1      35.258  11.030  20.559  0.00  0.00     0.217 HD
ENDBRANCH  20  23
ENDBRANCH  16  17
ENDBRANCH  15  16
BRANCH  15  25
HETATM   25  N   UNK N   1      37.464  12.568  14.936  0.00  0.00    -0.418 N 
HETATM   26  H   UNK N   1      38.289  12.011  14.715  0.00  0.00     0.150 HD
HETATM   27  H   UNK N   1      37.381  12.925  15.889  0.00  0.00     0.150 HD
ENDBRANCH  15  25
ENDBRANCH  12  15
ENDBRANCH  10  11
ENDBRANCH   7  10
ENDBRANCH   5   6
ENDBRANCH   2   5
BRANCH   1  28
HETATM   28  C   UNK N   1      33.144  17.146   8.153  0.00  0.00     0.180 C 
BRANCH  28  29
HETATM   29  C   UNK N   1      31.647  17.135   8.262  0.00  0.00     0.241 C 
HETATM   30  N   UNK N   1      31.016  18.138   8.925  0.00  0.00    -0.345 N 
HETATM   31  H   UNK N   1      31.572  18.814   9.374  0.00  0.00     0.163 HD
HETATM   32  O   UNK N   1      31.005  16.264   7.696  0.00  0.00    -0.271 OA
BRANCH  30  33
HETATM   33  C   UNK N   1      29.578  18.273   9.009  0.00  0.00     0.183 C 
BRANCH  33  34
HETATM   34  C   UNK N   1      28.999  18.067   7.619  0.00  0.00     0.046 C 
BRANCH  34  35
HETATM   35  C   UNK N   1      28.194  19.279   7.187  0.00  0.00     0.076 C 
BRANCH  35  36
HETATM   36  S   UNK N   1      27.455  18.974   5.557  0.00  0.00    -0.173 SA
HETATM   37  C   UNK N   1      28.954  18.173   4.918  0.00  0.00     0.089 C 
ENDBRANCH  35  36
ENDBRANCH  34  35
ENDBRANCH  33  34
BRANCH  33  38
HETATM   38  C   UNK N   1      28.976  17.250   9.941  0.00  0.00     0.163 C 
HETATM   39  O   UNK N   1      27.822  16.888   9.775  0.00  0.00    -0.648 OA
BRANCH  38  40
HETATM   40  O   UNK N   1      29.694  16.730  10.958  0.00  0.00    -0.775 OA
HETATM   41  H   UNK N   1      29.757  16.921  11.873  0.00  0.00     0.167 HD
ENDBRANCH  38  40
ENDBRANCH  33  38
ENDBRANCH  30  33
ENDBRANCH  28  29
BRANCH  28  42
HETATM   42  C   UNK N   1      33.750  17.874   6.947  0.00  0.00     0.073 C 
BRANCH  42  43
HETATM   43  C   UNK N   1      33.572  17.160   5.644  0.00  0.00    -0.056 A 
HETATM   44  C   UNK N   1      32.813  17.728   4.615  0.00  0.00     0.007 A 
HETATM   45  C   UNK N   1      32.621  17.034   3.418  0.00  0.00     0.001 A 
HETATM   46  C   UNK N   1      33.187  15.768   3.246  0.00  0.00     0.000 A 
HETATM   47  C   UNK N   1      33.946  15.196   4.272  0.00  0.00     0.001 A 
HETATM   48  C   UNK N   1      34.133  15.890   5.472  0.00  0.00     0.007 A 
ENDBRANCH  42  43
ENDBRANCH  28  42
ENDBRANCH   1  28
TORSDOF 19
ENDMDL
MODEL 2
REMARK VINA RESULT:      -8.1      3.008     10.018
REMARK  19 active torsions:
REMARK  status: ('A' for Active; 'I' for Inactive)
REMARK    1  A    between atoms: S_2  and  C_3 
REMARK    2  A    between atoms: C_3  and  C_4 
REMARK    3  A    between atoms: C_4  and  C_5 
REMARK    4  A    between atoms: C_5  and  C_6 
REMARK    5  A    between atoms: C_5  and  N_9 
REMARK    6  A    between atoms: C_6  and  O_8 
REMARK       I    between atoms: N_9  and  C_10 
REMARK    7  A    between atoms: C_10  and  C_12 
REMARK    8  A    between atoms: C_12  and  C_13 
REMARK    9  A    between atoms: C_12  and  N_20 
REMARK   10  A    between atoms: C_13  and  C_14 
REMARK       I    between atoms: N_20  and  C_21 
REMARK   11  A    between atoms: C_21  and  C_23 
REMARK   12  A    between atoms: C_23  and  N_24 
REMARK       I    between atoms: N_24  and  C_25 
REMARK   13  A    between atoms: C_25  and  C_27 
REMARK   14  A    between atoms: C_27  and  N_28 
REMARK       I    between atoms: N_28  and  C_29 
REMARK   15  A    between atoms: C_29  and  C_31 
REMARK   16  A    between atoms: C_31  and  C_32 
REMARK   17  A    between atoms: C_31  and  N_40 
REMARK   18  A    between atoms: C_32  and  C_33 
REMARK   19  A    between atoms: C_36  and  O_39 
ROOT
HETATM    1  N   UNK N   1      36.689  11.676  13.017  0.00  0.00    -0.346 N 
HETATM    2  C   UNK N   1      36.822  12.871  12.400  0.00  0.00     0.236 C 
HETATM    3  O   UNK N   1      37.769  13.068  11.655  0.00  0.00    -0.272 OA
HETATM    4  H   UNK N   1      37.339  10.957  12.846  0.00  0.00     0.163 HD
ENDROOT
BRANCH   2   5
HETATM    5  C   UNK N   1      35.831  13.968  12.647  0.00  0.00     0.225 C 
BRANCH   5   6
HETATM    6  N   UNK N   1      36.348  15.202  12.106  0.00  0.00    -0.351 N 
HETATM    7  C   UNK N   1      35.714  15.874  11.112  0.00  0.00     0.235 C 
HETATM    8  O   UNK N   1      36.163  16.942  10.734  0.00  0.00    -0.272 OA
HETATM    9  H   UNK N   1      37.186  15.568  12.469  0.00  0.00     0.163 HD
BRANCH   7  10
HETATM   10  C   UNK N   1      34.470  15.329  10.460  0.00  0.00     0.225 C 
BRANCH  10  11
HETATM   11  N   UNK N   1      34.697  15.095   9.051  0.00  0.00    -0.351 N 
HETATM   12  C   UNK N   1      34.285  15.915   8.057  0.00  0.00     0.240 C 
HETATM   13  O   UNK N   1      34.531  15.613   6.902  0.00  0.00    -0.271 OA
HETATM   14  H   UNK N   1      35.186  14.280   8.797  0.00  0.00     0.163 HD
BRANCH  12  15
HETATM   15  C   UNK N   1      33.551  17.188   8.331  0.00  0.00     0.171 C 
BRANCH  15  16
HETATM   16  C   UNK N   1      32.529  17.431   7.229  0.00  0.00     0.072 C 
BRANCH  16  17
HETATM   17  C   UNK N   1      31.167  17.619   7.786  0.00  0.00    -0.056 A 
HETATM   18  C   UNK N   1      31.004  18.306   8.991  0.00  0.00     0.010 A 
HETATM   19  C   UNK N   1      29.726  18.476   9.530  0.00  0.00     0.037 A 
HETATM   20  C   UNK N   1      28.614  17.954   8.865  0.00  0.00     0.065 A 
HETATM   21  C   UNK N   1      28.777  17.262   7.661  0.00  0.00     0.037 A 
HETATM   22  C   UNK N   1      30.054  17.094   7.120  0.00  0.00     0.010 A 
BRANCH  20  23
HETATM   23  O   UNK N   1      27.387  18.115   9.385  0.00  0.00    -0.361 OA
HETATM   24  H   UNK N   1      27.256  18.622  10.162  0.00  0.00     0.217 HD
ENDBRANCH  20  23
ENDBRANCH  16  17
ENDBRANCH  15  16
BRANCH  15  25
HETATM   25  N   UNK N   1      34.488  18.296   8.437  0.00  0.00    -0.418 N 
HETATM   26  H   UNK N   1      35.502  18.208   8.482  0.00  0.00     0.150 HD
HETATM   27  H   UNK N   1      34.097  19.239   8.470  0.00  0.00     0.150 HD
ENDBRANCH  15  25
ENDBRANCH  12  15
ENDBRANCH  10  11
ENDBRANCH   7  10
ENDBRANCH   5   6
ENDBRANCH   2   5
BRANCH   1  28
HETATM   28  C   UNK N   1      35.590  11.459  13.926  0.00  0.00     0.180 C 
BRANCH  28  29
HETATM   29  C   UNK N   1      34.395  10.834  13.266  0.00  0.00     0.241 C 
HETATM   30  N   UNK N   1      34.481  10.424  11.974  0.00  0.00    -0.345 N 
HETATM   31  H   UNK N   1      35.314  10.613  11.485  0.00  0.00     0.163 HD
HETATM   32  O   UNK N   1      33.380  10.635  13.915  0.00  0.00    -0.271 OA
BRANCH  30  33
HETATM   33  C   UNK N   1      33.424   9.728  11.274  0.00  0.00     0.183 C 
BRANCH  33  34
HETATM   34  C   UNK N   1      33.031  10.556  10.061  0.00  0.00     0.046 C 
BRANCH  34  35
HETATM   35  C   UNK N   1      34.108  11.574   9.734  0.00  0.00     0.076 C 
BRANCH  35  36
HETATM   36  S   UNK N   1      34.953  11.101   8.199  0.00  0.00    -0.173 SA
HETATM   37  C   UNK N   1      33.601  11.708   7.152  0.00  0.00     0.089 C 
ENDBRANCH  35  36
ENDBRANCH  34  35
ENDBRANCH  33  34
BRANCH  33  38
HETATM   38  C   UNK N   1      33.870   8.364  10.806  0.00  0.00     0.163 C 
HETATM   39  O   UNK N   1      33.046   7.476  10.662  0.00  0.00    -0.648 OA
BRANCH  38  40
HETATM   40  O   UNK N   1      35.169   8.111  10.545  0.00  0.00    -0.775 OA
HETATM   41  H   UNK N   1      35.618   7.667   9.853  0.00  0.00     0.167 HD
ENDBRANCH  38  40
ENDBRANCH  33  38
ENDBRANCH  30  33
ENDBRANCH  28  29
BRANCH  28  42
HETATM   42  C   UNK N   1      36.073  10.827  15.236  0.00  0.00     0.073 C 
BRANCH  42  43
HETATM   43  C   UNK N   1      35.770  11.635  16.459  0.00  0.00    -0.056 A 
HETATM   44  C   UNK N   1      35.624  11.019  17.706  0.00  0.00     0.007 A 
HETATM   45  C   UNK N   1      35.302  11.779  18.832  0.00  0.00     0.001 A 
HETATM   46  C   UNK N   1      35.121  13.160  18.714  0.00  0.00     0.000 A 
HETATM   47  C   UNK N   1      35.265  13.780  17.470  0.00  0.00     0.001 A 
HETATM   48  C   UNK N   1      35.583  13.017  16.342  0.00  0.00     0.007 A 
ENDBRANCH  42  43
ENDBRANCH  28  42
ENDBRANCH   1  28
TORSDOF 19
ENDMDL
MODEL 3
REMARK VINA RESULT:      -8.0     10.500     13.743
REMARK  19 active torsions:
REMARK  status: ('A' for Active; 'I' for Inactive)
REMARK    1  A    between atoms: S_2  and  C_3 
REMARK    2  A    between atoms: C_3  and  C_4 
REMARK    3  A    between atoms: C_4  and  C_5 
REMARK    4  A    between atoms: C_5  and  C_6 
REMARK    5  A    between atoms: C_5  and  N_9 
REMARK    6  A    between atoms: C_6  and  O_8 
REMARK       I    between atoms: N_9  and  C_10 
REMARK    7  A    between atoms: C_10  and  C_12 
REMARK    8  A    between atoms: C_12  and  C_13 
REMARK    9  A    between atoms: C_12  and  N_20 
REMARK   10  A    between atoms: C_13  and  C_14 
REMARK       I    between atoms: N_20  and  C_21 
REMARK   11  A    between atoms: C_21  and  C_23 
REMARK   12  A    between atoms: C_23  and  N_24 
REMARK       I    between atoms: N_24  and  C_25 
REMARK   13  A    between atoms: C_25  and  C_27 
REMARK   14  A    between atoms: C_27  and  N_28 
REMARK       I    between atoms: N_28  and  C_29 
REMARK   15  A    between atoms: C_29  and  C_31 
REMARK   16  A    between atoms: C_31  and  C_32 
REMARK   17  A    between atoms: C_31  and  N_40 
REMARK   18  A    between atoms: C_32  and  C_33 
REMARK   19  A    between atoms: C_36  and  O_39 
ROOT
HETATM    1  N   UNK N   1      19.202  17.427   3.287  0.00  0.00    -0.346 N 
HETATM    2  C   UNK N   1      19.881  18.589   3.158  0.00  0.00     0.236 C 
HETATM    3  O   UNK N   1      19.381  19.520   2.547  0.00  0.00    -0.272 OA
HETATM    4  H   UNK N   1      18.296  17.340   2.912  0.00  0.00     0.163 HD
ENDROOT
BRANCH   2   5
HETATM    5  C   UNK N   1      21.258  18.731   3.734  0.00  0.00     0.225 C 
BRANCH   5   6
HETATM    6  N   UNK N   1      21.948  19.797   3.049  0.00  0.00    -0.351 N 
HETATM    7  C   UNK N   1      23.284  19.992   3.182  0.00  0.00     0.235 C 
HETATM    8  O   UNK N   1      23.826  20.870   2.533  0.00  0.00    -0.272 OA
HETATM    9  H   UNK N   1      21.434  20.402   2.467  0.00  0.00     0.163 HD
BRANCH   7  10
HETATM   10  C   UNK N   1      24.115  19.152   4.116  0.00  0.00     0.225 C 
BRANCH  10  11
HETATM   11  N   UNK N   1      25.520  19.455   3.957  0.00  0.00    -0.351 N 
HETATM   12  C   UNK N   1      26.511  18.533   3.938  0.00  0.00     0.240 C 
HETATM   13  O   UNK N   1      27.663  18.907   3.801  0.00  0.00    -0.271 OA
HETATM   14  H   UNK N   1      25.774  20.400   3.855  0.00  0.00     0.163 HD
BRANCH  12  15
HETATM   15  C   UNK N   1      26.236  17.070   4.067  0.00  0.00     0.171 C 
BRANCH  15  16
HETATM   16  C   UNK N   1      26.512  16.626   5.497  0.00  0.00     0.072 C 
BRANCH  16  17
HETATM   17  C   UNK N   1      25.663  15.470   5.878  0.00  0.00    -0.056 A 
HETATM   18  C   UNK N   1      26.237  14.201   5.989  0.00  0.00     0.010 A 
HETATM   19  C   UNK N   1      25.443  13.104   6.335  0.00  0.00     0.037 A 
HETATM   20  C   UNK N   1      24.075  13.277   6.562  0.00  0.00     0.065 A 
HETATM   21  C   UNK N   1      23.500  14.546   6.445  0.00  0.00     0.037 A 
HETATM   22  C   UNK N   1      24.294  15.644   6.103  0.00  0.00     0.010 A 
BRANCH  20  23
HETATM   23  O   UNK N   1      23.313  12.223   6.890  0.00  0.00    -0.361 OA
HETATM   24  H   UNK N   1      23.476  11.377   6.523  0.00  0.00     0.217 HD
ENDBRANCH  20  23
ENDBRANCH  16  17
ENDBRANCH  15  16
BRANCH  15  25
HETATM   25  N   UNK N   1      27.043  16.321   3.116  0.00  0.00    -0.418 N 
HETATM   26  H   UNK N   1      27.707  15.586   3.356  0.00  0.00     0.150 HD
HETATM   27  H   UNK N   1      26.936  16.551   2.127  0.00  0.00     0.150 HD
ENDBRANCH  15  25
ENDBRANCH  12  15
ENDBRANCH  10  11
ENDBRANCH   7  10
ENDBRANCH   5   6
ENDBRANCH   2   5
BRANCH   1  28
HETATM   28  C   UNK N   1      19.810  16.316   3.977  0.00  0.00     0.180 C 
BRANCH  28  29
HETATM   29  C   UNK N   1      19.333  16.170   5.393  0.00  0.00     0.241 C 
HETATM   30  N   UNK N   1      20.178  16.456   6.417  0.00  0.00    -0.345 N 
HETATM   31  H   UNK N   1      21.108  16.689   6.196  0.00  0.00     0.163 HD
HETATM   32  O   UNK N   1      18.172  15.865   5.612  0.00  0.00    -0.271 OA
BRANCH  30  33
HETATM   33  C   UNK N   1      19.793  16.440   7.812  0.00  0.00     0.183 C 
BRANCH  33  34
HETATM   34  C   UNK N   1      20.899  15.758   8.601  0.00  0.00     0.046 C 
BRANCH  34  35
HETATM   35  C   UNK N   1      20.341  14.616   9.431  0.00  0.00     0.076 C 
BRANCH  35  36
HETATM   36  S   UNK N   1      21.684  13.490   9.903  0.00  0.00    -0.173 SA
HETATM   37  C   UNK N   1      20.600  12.477  10.948  0.00  0.00     0.089 C 
ENDBRANCH  35  36
ENDBRANCH  34  35
ENDBRANCH  33  34
BRANCH  33  38
HETATM   38  C   UNK N   1      19.602  17.836   8.353  0.00  0.00     0.163 C 
HETATM   39  O   UNK N   1      20.383  18.719   8.034  0.00  0.00    -0.648 OA
BRANCH  38  40
HETATM   40  O   UNK N   1      18.581  18.124   9.185  0.00  0.00    -0.775 OA
HETATM   41  H   UNK N   1      18.517  18.572  10.005  0.00  0.00     0.167 HD
ENDBRANCH  38  40
ENDBRANCH  33  38
ENDBRANCH  30  33
ENDBRANCH  28  29
BRANCH  28  42
HETATM   42  C   UNK N   1      19.804  15.054   3.107  0.00  0.00     0.073 C 
BRANCH  42  43
HETATM   43  C   UNK N   1      21.118  14.745   2.459  0.00  0.00    -0.056 A 
HETATM   44  C   UNK N   1      22.315  15.208   3.015  0.00  0.00     0.007 A 
HETATM   45  C   UNK N   1      23.531  14.948   2.379  0.00  0.00     0.001 A 
HETATM   46  C   UNK N   1      23.554  14.225   1.183  0.00  0.00     0.000 A 
HETATM   47  C   UNK N   1      22.359  13.762   0.624  0.00  0.00     0.001 A 
HETATM   48  C   UNK N   1      21.142  14.026   1.259  0.00  0.00     0.007 A 
ENDBRANCH  42  43
ENDBRANCH  28  42
ENDBRANCH   1  28
TORSDOF 19
ENDMDL
MODEL 4
REMARK VINA RESULT:      -8.0      1.691      2.219
REMARK  19 active torsions:
REMARK  status: ('A' for Active; 'I' for Inactive)
REMARK    1  A    between atoms: S_2  and  C_3 
REMARK    2  A    between atoms: C_3  and  C_4 
REMARK    3  A    between atoms: C_4  and  C_5 
REMARK    4  A    between atoms: C_5  and  C_6 
REMARK    5  A    between atoms: C_5  and  N_9 
REMARK    6  A    between atoms: C_6  and  O_8 
REMARK       I    between atoms: N_9  and  C_10 
REMARK    7  A    between atoms: C_10  and  C_12 
REMARK    8  A    between atoms: C_12  and  C_13 
REMARK    9  A    between atoms: C_12  and  N_20 
REMARK   10  A    between atoms: C_13  and  C_14 
REMARK       I    between atoms: N_20  and  C_21 
REMARK   11  A    between atoms: C_21  and  C_23 
REMARK   12  A    between atoms: C_23  and  N_24 
REMARK       I    between atoms: N_24  and  C_25 
REMARK   13  A    between atoms: C_25  and  C_27 
REMARK   14  A    between atoms: C_27  and  N_28 
REMARK       I    between atoms: N_28  and  C_29 
REMARK   15  A    between atoms: C_29  and  C_31 
REMARK   16  A    between atoms: C_31  and  C_32 
REMARK   17  A    between atoms: C_31  and  N_40 
REMARK   18  A    between atoms: C_32  and  C_33 
REMARK   19  A    between atoms: C_36  and  O_39 
ROOT
HETATM    1  N   UNK N   1      33.990  17.553   9.403  0.00  0.00    -0.346 N 
HETATM    2  C   UNK N   1      34.755  16.670  10.083  0.00  0.00     0.236 C 
HETATM    3  O   UNK N   1      35.382  17.039  11.064  0.00  0.00    -0.272 OA
HETATM    4  H   UNK N   1      33.917  18.484   9.712  0.00  0.00     0.163 HD
ENDROOT
BRANCH   2   5
HETATM    5  C   UNK N   1      34.863  15.247   9.624  0.00  0.00     0.225 C 
BRANCH   5   6
HETATM    6  N   UNK N   1      36.224  14.981   9.227  0.00  0.00    -0.351 N 
HETATM    7  C   UNK N   1      37.085  14.294  10.019  0.00  0.00     0.235 C 
HETATM    8  O   UNK N   1      38.205  14.046   9.608  0.00  0.00    -0.272 OA
HETATM    9  H   UNK N   1      36.538  15.308   8.353  0.00  0.00     0.163 HD
BRANCH   7  10
HETATM   10  C   UNK N   1      36.691  13.834  11.398  0.00  0.00     0.225 C 
BRANCH  10  11
HETATM   11  N   UNK N   1      37.113  12.468  11.617  0.00  0.00    -0.351 N 
HETATM   12  C   UNK N   1      36.642  11.662  12.596  0.00  0.00     0.240 C 
HETATM   13  O   UNK N   1      37.075  10.526  12.686  0.00  0.00    -0.271 OA
HETATM   14  H   UNK N   1      37.793  12.098  11.009  0.00  0.00     0.163 HD
BRANCH  12  15
HETATM   15  C   UNK N   1      35.596  12.115  13.563  0.00  0.00     0.171 C 
BRANCH  15  16
HETATM   16  C   UNK N   1      35.993  11.699  14.972  0.00  0.00     0.072 C 
BRANCH  16  17
HETATM   17  C   UNK N   1      36.060  12.868  15.884  0.00  0.00    -0.056 A 
HETATM   18  C   UNK N   1      35.267  12.892  17.033  0.00  0.00     0.010 A 
HETATM   19  C   UNK N   1      35.313  13.994  17.890  0.00  0.00     0.037 A 
HETATM   20  C   UNK N   1      36.147  15.074  17.592  0.00  0.00     0.065 A 
HETATM   21  C   UNK N   1      36.937  15.054  16.439  0.00  0.00     0.037 A 
HETATM   22  C   UNK N   1      36.894  13.950  15.583  0.00  0.00     0.010 A 
BRANCH  20  23
HETATM   23  O   UNK N   1      36.188  16.134  18.414  0.00  0.00    -0.361 OA
HETATM   24  H   UNK N   1      35.854  16.080  19.288  0.00  0.00     0.217 HD
ENDBRANCH  20  23
ENDBRANCH  16  17
ENDBRANCH  15  16
BRANCH  15  25
HETATM   25  N   UNK N   1      34.299  11.567  13.194  0.00  0.00    -0.418 N 
HETATM   26  H   UNK N   1      34.129  10.925  12.421  0.00  0.00     0.150 HD
HETATM   27  H   UNK N   1      33.495  11.849  13.756  0.00  0.00     0.150 HD
ENDBRANCH  15  25
ENDBRANCH  12  15
ENDBRANCH  10  11
ENDBRANCH   7  10
ENDBRANCH   5   6
ENDBRANCH   2   5
BRANCH   1  28
HETATM   28  C   UNK N   1      33.280  17.123   8.223  0.00  0.00     0.180 C 
BRANCH  28  29
HETATM   29  C   UNK N   1      31.791  17.082   8.415  0.00  0.00     0.241 C 
HETATM   30  N   UNK N   1      31.030  18.117   7.977  0.00  0.00    -0.345 N 
HETATM   31  H   UNK N   1      31.492  18.902   7.602  0.00  0.00     0.163 HD
HETATM   32  O   UNK N   1      31.270  16.089   8.899  0.00  0.00    -0.271 OA
BRANCH  30  33
HETATM   33  C   UNK N   1      29.585  18.138   8.027  0.00  0.00     0.183 C 
BRANCH  33  34
HETATM   34  C   UNK N   1      29.063  16.988   7.179  0.00  0.00     0.046 C 
BRANCH  34  35
HETATM   35  C   UNK N   1      28.885  17.423   5.736  0.00  0.00     0.076 C 
BRANCH  35  36
HETATM   36  S   UNK N   1      27.212  18.087   5.499  0.00  0.00    -0.173 SA
HETATM   37  C   UNK N   1      27.818  19.768   5.183  0.00  0.00     0.089 C 
ENDBRANCH  35  36
ENDBRANCH  34  35
ENDBRANCH  33  34
BRANCH  33  38
HETATM   38  C   UNK N   1      29.074  17.970   9.437  0.00  0.00     0.163 C 
HETATM   39  O   UNK N   1      28.060  17.320   9.639  0.00  0.00    -0.648 OA
BRANCH  38  40
HETATM   40  O   UNK N   1      29.720  18.529  10.481  0.00  0.00    -0.775 OA
HETATM   41  H   UNK N   1      29.472  19.137  11.149  0.00  0.00     0.167 HD
ENDBRANCH  38  40
ENDBRANCH  33  38
ENDBRANCH  30  33
ENDBRANCH  28  29
BRANCH  28  42
HETATM   42  C   UNK N   1      33.802  17.838   6.972  0.00  0.00     0.073 C 
BRANCH  42  43
HETATM   43  C   UNK N   1      33.613  17.072   5.700  0.00  0.00    -0.056 A 
HETATM   44  C   UNK N   1      34.189  15.808   5.534  0.00  0.00     0.007 A 
HETATM   45  C   UNK N   1      34.038  15.121   4.327  0.00  0.00     0.001 A 
HETATM   46  C   UNK N   1      33.312  15.696   3.281  0.00  0.00     0.000 A 
HETATM   47  C   UNK N   1      32.736  16.960   3.443  0.00  0.00     0.001 A 
HETATM   48  C   UNK N   1      32.891  17.649   4.650  0.00  0.00     0.007 A 
ENDBRANCH  42  43
ENDBRANCH  28  42
ENDBRANCH   1  28
TORSDOF 19
ENDMDL
MODEL 5
REMARK VINA RESULT:      -7.8     16.267     20.344
REMARK  19 active torsions:
REMARK  status: ('A' for Active; 'I' for Inactive)
REMARK    1  A    between atoms: S_2  and  C_3 
REMARK    2  A    between atoms: C_3  and  C_4 
REMARK    3  A    between atoms: C_4  and  C_5 
REMARK    4  A    between atoms: C_5  and  C_6 
REMARK    5  A    between atoms: C_5  and  N_9 
REMARK    6  A    between atoms: C_6  and  O_8 
REMARK       I    between atoms: N_9  and  C_10 
REMARK    7  A    between atoms: C_10  and  C_12 
REMARK    8  A    between atoms: C_12  and  C_13 
REMARK    9  A    between atoms: C_12  and  N_20 
REMARK   10  A    between atoms: C_13  and  C_14 
REMARK       I    between atoms: N_20  and  C_21 
REMARK   11  A    between atoms: C_21  and  C_23 
REMARK   12  A    between atoms: C_23  and  N_24 
REMARK       I    between atoms: N_24  and  C_25 
REMARK   13  A    between atoms: C_25  and  C_27 
REMARK   14  A    between atoms: C_27  and  N_28 
REMARK       I    between atoms: N_28  and  C_29 
REMARK   15  A    between atoms: C_29  and  C_31 
REMARK   16  A    between atoms: C_31  and  C_32 
REMARK   17  A    between atoms: C_31  and  N_40 
REMARK   18  A    between atoms: C_32  and  C_33 
REMARK   19  A    between atoms: C_36  and  O_39 
ROOT
HETATM    1  N   UNK N   1      25.798  24.627  -4.358  0.00  0.00    -0.346 N 
HETATM    2  C   UNK N   1      26.949  24.238  -3.765  0.00  0.00     0.236 C 
HETATM    3  O   UNK N   1      26.927  23.795  -2.628  0.00  0.00    -0.272 OA
HETATM    4  H   UNK N   1      24.941  24.530  -3.883  0.00  0.00     0.163 HD
ENDROOT
BRANCH   2   5
HETATM    5  C   UNK N   1      28.257  24.374  -4.485  0.00  0.00     0.225 C 
BRANCH   5   6
HETATM    6  N   UNK N   1      29.076  25.344  -3.798  0.00  0.00    -0.351 N 
HETATM    7  C   UNK N   1      30.413  25.177  -3.643  0.00  0.00     0.235 C 
HETATM    8  O   UNK N   1      31.065  26.056  -3.106  0.00  0.00    -0.272 OA
HETATM    9  H   UNK N   1      28.650  26.151  -3.429  0.00  0.00     0.163 HD
BRANCH   7  10
HETATM   10  C   UNK N   1      31.112  23.929  -4.114  0.00  0.00     0.225 C 
BRANCH  10  11
HETATM   11  N   UNK N   1      31.462  23.088  -2.990  0.00  0.00    -0.351 N 
HETATM   12  C   UNK N   1      32.240  21.984  -3.065  0.00  0.00     0.240 C 
HETATM   13  O   UNK N   1      32.465  21.349  -2.049  0.00  0.00    -0.271 OA
HETATM   14  H   UNK N   1      31.107  23.338  -2.107  0.00  0.00     0.163 HD
BRANCH  12  15
HETATM   15  C   UNK N   1      32.844  21.525  -4.353  0.00  0.00     0.171 C 
BRANCH  15  16
HETATM   16  C   UNK N   1      32.294  20.151  -4.710  0.00  0.00     0.072 C 
BRANCH  16  17
HETATM   17  C   UNK N   1      31.504  20.195  -5.966  0.00  0.00    -0.056 A 
HETATM   18  C   UNK N   1      30.211  20.722  -5.950  0.00  0.00     0.010 A 
HETATM   19  C   UNK N   1      29.456  20.755  -7.124  0.00  0.00     0.037 A 
HETATM   20  C   UNK N   1      29.993  20.254  -8.313  0.00  0.00     0.065 A 
HETATM   21  C   UNK N   1      31.285  19.720  -8.329  0.00  0.00     0.037 A 
HETATM   22  C   UNK N   1      32.042  19.690  -7.155  0.00  0.00     0.010 A 
BRANCH  20  23
HETATM   23  O   UNK N   1      29.265  20.282  -9.440  0.00  0.00    -0.361 OA
HETATM   24  H   UNK N   1      28.476  19.784  -9.516  0.00  0.00     0.217 HD
ENDBRANCH  20  23
ENDBRANCH  16  17
ENDBRANCH  15  16
BRANCH  15  25
HETATM   25  N   UNK N   1      34.296  21.502  -4.247  0.00  0.00    -0.418 N 
HETATM   26  H   UNK N   1      34.943  21.863  -4.946  0.00  0.00     0.150 HD
HETATM   27  H   UNK N   1      34.698  21.090  -3.404  0.00  0.00     0.150 HD
ENDBRANCH  15  25
ENDBRANCH  12  15
ENDBRANCH  10  11
ENDBRANCH   7  10
ENDBRANCH   5   6
ENDBRANCH   2   5
BRANCH   1  28
HETATM   28  C   UNK N   1      25.831  25.185  -5.687  0.00  0.00     0.180 C 
BRANCH  28  29
HETATM   29  C   UNK N   1      25.519  24.177  -6.756  0.00  0.00     0.241 C 
HETATM   30  N   UNK N   1      25.749  24.488  -8.057  0.00  0.00    -0.345 N 
HETATM   31  H   UNK N   1      26.056  25.399  -8.267  0.00  0.00     0.163 HD
HETATM   32  O   UNK N   1      25.128  23.064  -6.442  0.00  0.00    -0.271 OA
BRANCH  30  33
HETATM   33  C   UNK N   1      25.573  23.561  -9.154  0.00  0.00     0.183 C 
BRANCH  33  34
HETATM   34  C   UNK N   1      25.580  24.353 -10.451  0.00  0.00     0.046 C 
BRANCH  34  35
HETATM   35  C   UNK N   1      25.565  25.844 -10.171  0.00  0.00     0.076 C 
BRANCH  35  36
HETATM   36  S   UNK N   1      25.475  26.760 -11.736  0.00  0.00    -0.173 SA
HETATM   37  C   UNK N   1      23.685  27.020 -11.595  0.00  0.00     0.089 C 
ENDBRANCH  35  36
ENDBRANCH  34  35
ENDBRANCH  33  34
BRANCH  33  38
HETATM   38  C   UNK N   1      26.684  22.540  -9.204  0.00  0.00     0.163 C 
HETATM   39  O   UNK N   1      27.733  22.816  -9.763  0.00  0.00    -0.648 OA
BRANCH  38  40
HETATM   40  O   UNK N   1      26.534  21.324  -8.640  0.00  0.00    -0.775 OA
HETATM   41  H   UNK N   1      26.144  21.020  -7.845  0.00  0.00     0.167 HD
ENDBRANCH  38  40
ENDBRANCH  33  38
ENDBRANCH  30  33
ENDBRANCH  28  29
BRANCH  28  42
HETATM   42  C   UNK N   1      25.078  26.519  -5.746  0.00  0.00     0.073 C 
BRANCH  42  43
HETATM   43  C   UNK N   1      25.912  27.713  -5.402  0.00  0.00    -0.056 A 
HETATM   44  C   UNK N   1      26.975  28.104  -6.223  0.00  0.00     0.007 A 
HETATM   45  C   UNK N   1      27.771  29.196  -5.869  0.00  0.00     0.001 A 
HETATM   46  C   UNK N   1      27.508  29.900  -4.691  0.00  0.00     0.000 A 
HETATM   47  C   UNK N   1      26.448  29.511  -3.867  0.00  0.00     0.001 A 
HETATM   48  C   UNK N   1      25.654  28.415  -4.219  0.00  0.00     0.007 A 
ENDBRANCH  42  43
ENDBRANCH  28  42
ENDBRANCH   1  28
TORSDOF 19
ENDMDL
MODEL 6
REMARK VINA RESULT:      -7.7      3.499      9.437
REMARK  19 active torsions:
REMARK  status: ('A' for Active; 'I' for Inactive)
REMARK    1  A    between atoms: S_2  and  C_3 
REMARK    2  A    between atoms: C_3  and  C_4 
REMARK    3  A    between atoms: C_4  and  C_5 
REMARK    4  A    between atoms: C_5  and  C_6 
REMARK    5  A    between atoms: C_5  and  N_9 
REMARK    6  A    between atoms: C_6  and  O_8 
REMARK       I    between atoms: N_9  and  C_10 
REMARK    7  A    between atoms: C_10  and  C_12 
REMARK    8  A    between atoms: C_12  and  C_13 
REMARK    9  A    between atoms: C_12  and  N_20 
REMARK   10  A    between atoms: C_13  and  C_14 
REMARK       I    between atoms: N_20  and  C_21 
REMARK   11  A    between atoms: C_21  and  C_23 
REMARK   12  A    between atoms: C_23  and  N_24 
REMARK       I    between atoms: N_24  and  C_25 
REMARK   13  A    between atoms: C_25  and  C_27 
REMARK   14  A    between atoms: C_27  and  N_28 
REMARK       I    between atoms: N_28  and  C_29 
REMARK   15  A    between atoms: C_29  and  C_31 
REMARK   16  A    between atoms: C_31  and  C_32 
REMARK   17  A    between atoms: C_31  and  N_40 
REMARK   18  A    between atoms: C_32  and  C_33 
REMARK   19  A    between atoms: C_36  and  O_39 
ROOT
HETATM    1  N   UNK N   1      36.704  12.168  14.176  0.00  0.00    -0.346 N 
HETATM    2  C   UNK N   1      36.496  13.495  14.329  0.00  0.00     0.236 C 
HETATM    3  O   UNK N   1      37.030  14.091  15.251  0.00  0.00    -0.272 OA
HETATM    4  H   UNK N   1      37.305  11.688  14.791  0.00  0.00     0.163 HD
ENDROOT
BRANCH   2   5
HETATM    5  C   UNK N   1      35.590  14.234  13.391  0.00  0.00     0.225 C 
BRANCH   5   6
HETATM    6  N   UNK N   1      36.385  15.094  12.547  0.00  0.00    -0.351 N 
HETATM    7  C   UNK N   1      35.898  15.624  11.397  0.00  0.00     0.235 C 
HETATM    8  O   UNK N   1      36.592  16.392  10.754  0.00  0.00    -0.272 OA
HETATM    9  H   UNK N   1      37.309  15.302  12.813  0.00  0.00     0.163 HD
BRANCH   7  10
HETATM   10  C   UNK N   1      34.520  15.285  10.893  0.00  0.00     0.225 C 
BRANCH  10  11
HETATM   11  N   UNK N   1      34.569  14.904   9.499  0.00  0.00    -0.351 N 
HETATM   12  C   UNK N   1      34.144  15.677   8.473  0.00  0.00     0.240 C 
HETATM   13  O   UNK N   1      34.231  15.248   7.335  0.00  0.00    -0.271 OA
HETATM   14  H   UNK N   1      34.938  14.018   9.281  0.00  0.00     0.163 HD
BRANCH  12  15
HETATM   15  C   UNK N   1      33.583  17.045   8.689  0.00  0.00     0.171 C 
BRANCH  15  16
HETATM   16  C   UNK N   1      32.651  17.398   7.538  0.00  0.00     0.072 C 
BRANCH  16  17
HETATM   17  C   UNK N   1      31.263  17.620   8.015  0.00  0.00    -0.056 A 
HETATM   18  C   UNK N   1      30.197  17.027   7.333  0.00  0.00     0.010 A 
HETATM   19  C   UNK N   1      28.886  17.241   7.766  0.00  0.00     0.037 A 
HETATM   20  C   UNK N   1      28.642  18.053   8.877  0.00  0.00     0.065 A 
HETATM   21  C   UNK N   1      29.708  18.651   9.556  0.00  0.00     0.037 A 
HETATM   22  C   UNK N   1      31.020  18.436   9.125  0.00  0.00     0.010 A 
BRANCH  20  23
HETATM   23  O   UNK N   1      27.383  18.261   9.290  0.00  0.00    -0.361 OA
HETATM   24  H   UNK N   1      26.845  18.914   8.888  0.00  0.00     0.217 HD
ENDBRANCH  20  23
ENDBRANCH  16  17
ENDBRANCH  15  16
BRANCH  15  25
HETATM   25  N   UNK N   1      34.659  18.016   8.815  0.00  0.00    -0.418 N 
HETATM   26  H   UNK N   1      34.558  19.025   8.715  0.00  0.00     0.150 HD
HETATM   27  H   UNK N   1      35.593  17.657   9.019  0.00  0.00     0.150 HD
ENDBRANCH  15  25
ENDBRANCH  12  15
ENDBRANCH  10  11
ENDBRANCH   7  10
ENDBRANCH   5   6
ENDBRANCH   2   5
BRANCH   1  28
HETATM   28  C   UNK N   1      36.043  11.458  13.108  0.00  0.00     0.180 C 
BRANCH  28  29
HETATM   29  C   UNK N   1      36.874  11.365  11.861  0.00  0.00     0.241 C 
HETATM   30  N   UNK N   1      36.492  12.041  10.748  0.00  0.00    -0.345 N 
HETATM   31  H   UNK N   1      35.635  12.526  10.775  0.00  0.00     0.163 HD
HETATM   32  O   UNK N   1      37.923  10.739  11.878  0.00  0.00    -0.271 OA
BRANCH  30  33
HETATM   33  C   UNK N   1      37.266  12.095   9.527  0.00  0.00     0.183 C 
BRANCH  33  34
HETATM   34  C   UNK N   1      36.374  11.650   8.379  0.00  0.00     0.046 C 
BRANCH  34  35
HETATM   35  C   UNK N   1      37.077  10.614   7.523  0.00  0.00     0.076 C 
BRANCH  35  36
HETATM   36  S   UNK N   1      36.103  10.295   6.024  0.00  0.00    -0.173 SA
HETATM   37  C   UNK N   1      35.707  12.051   5.790  0.00  0.00     0.089 C 
ENDBRANCH  35  36
ENDBRANCH  34  35
ENDBRANCH  33  34
BRANCH  33  38
HETATM   38  C   UNK N   1      37.761  13.492   9.243  0.00  0.00     0.163 C 
HETATM   39  O   UNK N   1      37.418  14.057   8.217  0.00  0.00    -0.648 OA
BRANCH  38  40
HETATM   40  O   UNK N   1      38.580  14.128  10.106  0.00  0.00    -0.775 OA
HETATM   41  H   UNK N   1      39.051  14.937  10.079  0.00  0.00     0.167 HD
ENDBRANCH  38  40
ENDBRANCH  33  38
ENDBRANCH  30  33
ENDBRANCH  28  29
BRANCH  28  42
HETATM   42  C   UNK N   1      35.403  10.162  13.618  0.00  0.00     0.073 C 
BRANCH  42  43
HETATM   43  C   UNK N   1      34.703   9.364  12.563  0.00  0.00    -0.056 A 
HETATM   44  C   UNK N   1      35.094   8.050  12.283  0.00  0.00     0.007 A 
HETATM   45  C   UNK N   1      34.459   7.330  11.269  0.00  0.00     0.001 A 
HETATM   46  C   UNK N   1      33.432   7.922  10.529  0.00  0.00     0.000 A 
HETATM   47  C   UNK N   1      33.040   9.235  10.805  0.00  0.00     0.001 A 
HETATM   48  C   UNK N   1      33.679   9.957  11.818  0.00  0.00     0.007 A 
ENDBRANCH  42  43
ENDBRANCH  28  42
ENDBRANCH   1  28
TORSDOF 19
ENDMDL
MODEL 7
REMARK VINA RESULT:      -7.7      7.348     12.520
REMARK  19 active torsions:
REMARK  status: ('A' for Active; 'I' for Inactive)
REMARK    1  A    between atoms: S_2  and  C_3 
REMARK    2  A    between atoms: C_3  and  C_4 
REMARK    3  A    between atoms: C_4  and  C_5 
REMARK    4  A    between atoms: C_5  and  C_6 
REMARK    5  A    between atoms: C_5  and  N_9 
REMARK    6  A    between atoms: C_6  and  O_8 
REMARK       I    between atoms: N_9  and  C_10 
REMARK    7  A    between atoms: C_10  and  C_12 
REMARK    8  A    between atoms: C_12  and  C_13 
REMARK    9  A    between atoms: C_12  and  N_20 
REMARK   10  A    between atoms: C_13  and  C_14 
REMARK       I    between atoms: N_20  and  C_21 
REMARK   11  A    between atoms: C_21  and  C_23 
REMARK   12  A    between atoms: C_23  and  N_24 
REMARK       I    between atoms: N_24  and  C_25 
REMARK   13  A    between atoms: C_25  and  C_27 
REMARK   14  A    between atoms: C_27  and  N_28 
REMARK       I    between atoms: N_28  and  C_29 
REMARK   15  A    between atoms: C_29  and  C_31 
REMARK   16  A    between atoms: C_31  and  C_32 
REMARK   17  A    between atoms: C_31  and  N_40 
REMARK   18  A    between atoms: C_32  and  C_33 
REMARK   19  A    between atoms: C_36  and  O_39 
ROOT
HETATM    1  N   UNK N   1      19.933  18.301   3.921  0.00  0.00    -0.346 N 
HETATM    2  C   UNK N   1      20.775  19.354   3.817  0.00  0.00     0.236 C 
HETATM    3  O   UNK N   1      20.327  20.469   3.601  0.00  0.00    -0.272 OA
HETATM    4  H   UNK N   1      18.961  18.436   3.849  0.00  0.00     0.163 HD
ENDROOT
BRANCH   2   5
HETATM    5  C   UNK N   1      22.256  19.156   3.934  0.00  0.00     0.225 C 
BRANCH   5   6
HETATM    6  N   UNK N   1      22.927  20.095   3.068  0.00  0.00    -0.351 N 
HETATM    7  C   UNK N   1      24.279  20.210   3.041  0.00  0.00     0.235 C 
HETATM    8  O   UNK N   1      24.796  20.977   2.246  0.00  0.00    -0.272 OA
HETATM    9  H   UNK N   1      22.388  20.670   2.478  0.00  0.00     0.163 HD
BRANCH   7  10
HETATM   10  C   UNK N   1      25.157  19.417   3.972  0.00  0.00     0.225 C 
BRANCH  10  11
HETATM   11  N   UNK N   1      26.026  20.296   4.723  0.00  0.00    -0.351 N 
HETATM   12  C   UNK N   1      27.229  19.943   5.231  0.00  0.00     0.240 C 
HETATM   13  O   UNK N   1      27.874  20.770   5.852  0.00  0.00    -0.271 OA
HETATM   14  H   UNK N   1      25.719  21.219   4.875  0.00  0.00     0.163 HD
BRANCH  12  15
HETATM   15  C   UNK N   1      27.798  18.574   5.044  0.00  0.00     0.171 C 
BRANCH  15  16
HETATM   16  C   UNK N   1      27.617  17.770   6.324  0.00  0.00     0.072 C 
BRANCH  16  17
HETATM   17  C   UNK N   1      28.895  17.640   7.068  0.00  0.00    -0.056 A 
HETATM   18  C   UNK N   1      29.163  18.503   8.133  0.00  0.00     0.010 A 
HETATM   19  C   UNK N   1      30.369  18.398   8.830  0.00  0.00     0.037 A 
HETATM   20  C   UNK N   1      31.308  17.433   8.457  0.00  0.00     0.065 A 
HETATM   21  C   UNK N   1      31.042  16.572   7.387  0.00  0.00     0.037 A 
HETATM   22  C   UNK N   1      29.835  16.675   6.691  0.00  0.00     0.010 A 
BRANCH  20  23
HETATM   23  O   UNK N   1      32.467  17.334   9.124  0.00  0.00    -0.361 OA
HETATM   24  H   UNK N   1      32.927  16.519   9.175  0.00  0.00     0.217 HD
ENDBRANCH  20  23
ENDBRANCH  16  17
ENDBRANCH  15  16
BRANCH  15  25
HETATM   25  N   UNK N   1      29.201  18.660   4.668  0.00  0.00    -0.418 N 
HETATM   26  H   UNK N   1      29.644  19.462   4.223  0.00  0.00     0.150 HD
HETATM   27  H   UNK N   1      29.790  17.850   4.866  0.00  0.00     0.150 HD
ENDBRANCH  15  25
ENDBRANCH  12  15
ENDBRANCH  10  11
ENDBRANCH   7  10
ENDBRANCH   5   6
ENDBRANCH   2   5
BRANCH   1  28
HETATM   28  C   UNK N   1      20.466  16.978   4.139  0.00  0.00     0.180 C 
BRANCH  28  29
HETATM   29  C   UNK N   1      19.980  16.351   5.413  0.00  0.00     0.241 C 
HETATM   30  N   UNK N   1      20.250  16.950   6.601  0.00  0.00    -0.345 N 
HETATM   31  H   UNK N   1      20.820  17.753   6.593  0.00  0.00     0.163 HD
HETATM   32  O   UNK N   1      19.288  15.346   5.367  0.00  0.00    -0.271 OA
BRANCH  30  33
HETATM   33  C   UNK N   1      19.751  16.482   7.876  0.00  0.00     0.183 C 
BRANCH  33  34
HETATM   34  C   UNK N   1      20.877  15.748   8.586  0.00  0.00     0.046 C 
BRANCH  34  35
HETATM   35  C   UNK N   1      20.341  14.549   9.348  0.00  0.00     0.076 C 
BRANCH  35  36
HETATM   36  S   UNK N   1      21.519  13.173   9.229  0.00  0.00    -0.173 SA
HETATM   37  C   UNK N   1      21.260  12.976   7.443  0.00  0.00     0.089 C 
ENDBRANCH  35  36
ENDBRANCH  34  35
ENDBRANCH  33  34
BRANCH  33  38
HETATM   38  C   UNK N   1      19.292  17.625   8.748  0.00  0.00     0.163 C 
HETATM   39  O   UNK N   1      20.110  18.427   9.171  0.00  0.00    -0.648 OA
BRANCH  38  40
HETATM   40  O   UNK N   1      17.991  17.775   9.068  0.00  0.00    -0.775 OA
HETATM   41  H   UNK N   1      17.540  18.076   9.832  0.00  0.00     0.167 HD
ENDBRANCH  38  40
ENDBRANCH  33  38
ENDBRANCH  30  33
ENDBRANCH  28  29
BRANCH  28  42
HETATM   42  C   UNK N   1      20.377  16.129   2.866  0.00  0.00     0.073 C 
BRANCH  42  43
HETATM   43  C   UNK N   1      21.673  15.508   2.448  0.00  0.00    -0.056 A 
HETATM   44  C   UNK N   1      22.824  15.661   3.227  0.00  0.00     0.007 A 
HETATM   45  C   UNK N   1      24.036  15.110   2.806  0.00  0.00     0.001 A 
HETATM   46  C   UNK N   1      24.102  14.404   1.601  0.00  0.00     0.000 A 
HETATM   47  C   UNK N   1      22.954  14.251   0.818  0.00  0.00     0.001 A 
HETATM   48  C   UNK N   1      21.742  14.807   1.239  0.00  0.00     0.007 A 
ENDBRANCH  42  43
ENDBRANCH  28  42
ENDBRANCH   1  28
TORSDOF 19
ENDMDL
MODEL 8
REMARK VINA RESULT:      -7.7     10.176     13.619
REMARK  19 active torsions:
REMARK  status: ('A' for Active; 'I' for Inactive)
REMARK    1  A    between atoms: S_2  and  C_3 
REMARK    2  A    between atoms: C_3  and  C_4 
REMARK    3  A    between atoms: C_4  and  C_5 
REMARK    4  A    between atoms: C_5  and  C_6 
REMARK    5  A    between atoms: C_5  and  N_9 
REMARK    6  A    between atoms: C_6  and  O_8 
REMARK       I    between atoms: N_9  and  C_10 
REMARK    7  A    between atoms: C_10  and  C_12 
REMARK    8  A    between atoms: C_12  and  C_13 
REMARK    9  A    between atoms: C_12  and  N_20 
REMARK   10  A    between atoms: C_13  and  C_14 
REMARK       I    between atoms: N_20  and  C_21 
REMARK   11  A    between atoms: C_21  and  C_23 
REMARK   12  A    between atoms: C_23  and  N_24 
REMARK       I    between atoms: N_24  and  C_25 
REMARK   13  A    between atoms: C_25  and  C_27 
REMARK   14  A    between atoms: C_27  and  N_28 
REMARK       I    between atoms: N_28  and  C_29 
REMARK   15  A    between atoms: C_29  and  C_31 
REMARK   16  A    between atoms: C_31  and  C_32 
REMARK   17  A    between atoms: C_31  and  N_40 
REMARK   18  A    between atoms: C_32  and  C_33 
REMARK   19  A    between atoms: C_36  and  O_39 
ROOT
HETATM    1  N   UNK N   1      20.621  16.044   3.726  0.00  0.00    -0.346 N 
HETATM    2  C   UNK N   1      20.903  17.268   3.224  0.00  0.00     0.236 C 
HETATM    3  O   UNK N   1      20.257  17.702   2.283  0.00  0.00    -0.272 OA
HETATM    4  H   UNK N   1      19.880  15.516   3.350  0.00  0.00     0.163 HD
ENDROOT
BRANCH   2   5
HETATM    5  C   UNK N   1      22.023  18.083   3.797  0.00  0.00     0.225 C 
BRANCH   5   6
HETATM    6  N   UNK N   1      21.844  19.464   3.417  0.00  0.00    -0.351 N 
HETATM    7  C   UNK N   1      22.893  20.267   3.107  0.00  0.00     0.235 C 
HETATM    8  O   UNK N   1      22.680  21.408   2.734  0.00  0.00    -0.272 OA
HETATM    9  H   UNK N   1      20.933  19.835   3.381  0.00  0.00     0.163 HD
BRANCH   7  10
HETATM   10  C   UNK N   1      24.315  19.785   3.217  0.00  0.00     0.225 C 
BRANCH  10  11
HETATM   11  N   UNK N   1      24.877  20.149   4.499  0.00  0.00    -0.351 N 
HETATM   12  C   UNK N   1      26.069  19.717   4.969  0.00  0.00     0.240 C 
HETATM   13  O   UNK N   1      26.440  20.088   6.070  0.00  0.00    -0.271 OA
HETATM   14  H   UNK N   1      24.353  20.755   5.071  0.00  0.00     0.163 HD
BRANCH  12  15
HETATM   15  C   UNK N   1      26.954  18.809   4.177  0.00  0.00     0.171 C 
BRANCH  15  16
HETATM   16  C   UNK N   1      27.172  17.514   4.947  0.00  0.00     0.072 C 
BRANCH  16  17
HETATM   17  C   UNK N   1      26.830  16.329   4.121  0.00  0.00    -0.056 A 
HETATM   18  C   UNK N   1      25.869  16.445   3.115  0.00  0.00     0.010 A 
HETATM   19  C   UNK N   1      25.531  15.332   2.341  0.00  0.00     0.037 A 
HETATM   20  C   UNK N   1      26.150  14.102   2.581  0.00  0.00     0.065 A 
HETATM   21  C   UNK N   1      27.108  13.984   3.593  0.00  0.00     0.037 A 
HETATM   22  C   UNK N   1      27.449  15.098   4.364  0.00  0.00     0.010 A 
BRANCH  20  23
HETATM   23  O   UNK N   1      25.823  13.032   1.840  0.00  0.00    -0.361 OA
HETATM   24  H   UNK N   1      26.125  12.176   2.071  0.00  0.00     0.217 HD
ENDBRANCH  20  23
ENDBRANCH  16  17
ENDBRANCH  15  16
BRANCH  15  25
HETATM   25  N   UNK N   1      28.217  19.468   3.883  0.00  0.00    -0.418 N 
HETATM   26  H   UNK N   1      28.317  20.377   3.431  0.00  0.00     0.150 HD
HETATM   27  H   UNK N   1      29.073  18.982   4.150  0.00  0.00     0.150 HD
ENDBRANCH  15  25
ENDBRANCH  12  15
ENDBRANCH  10  11
ENDBRANCH   7  10
ENDBRANCH   5   6
ENDBRANCH   2   5
BRANCH   1  28
HETATM   28  C   UNK N   1      21.409  15.518   4.813  0.00  0.00     0.180 C 
BRANCH  28  29
HETATM   29  C   UNK N   1      20.592  15.197   6.030  0.00  0.00     0.241 C 
HETATM   30  N   UNK N   1      20.698  15.980   7.134  0.00  0.00    -0.345 N 
HETATM   31  H   UNK N   1      21.365  16.704   7.124  0.00  0.00     0.163 HD
HETATM   32  O   UNK N   1      19.788  14.278   5.995  0.00  0.00    -0.271 OA
BRANCH  30  33
HETATM   33  C   UNK N   1      19.891  15.816   8.324  0.00  0.00     0.183 C 
BRANCH  33  34
HETATM   34  C   UNK N   1      20.766  15.219   9.414  0.00  0.00     0.046 C 
BRANCH  34  35
HETATM   35  C   UNK N   1      20.488  13.736   9.576  0.00  0.00     0.076 C 
BRANCH  35  36
HETATM   36  S   UNK N   1      21.863  12.776   8.879  0.00  0.00    -0.173 SA
HETATM   37  C   UNK N   1      22.283  12.030  10.479  0.00  0.00     0.089 C 
ENDBRANCH  35  36
ENDBRANCH  34  35
ENDBRANCH  33  34
BRANCH  33  38
HETATM   38  C   UNK N   1      19.342  17.135   8.810  0.00  0.00     0.163 C 
HETATM   39  O   UNK N   1      18.238  17.174   9.329  0.00  0.00    -0.648 OA
BRANCH  38  40
HETATM   40  O   UNK N   1      20.053  18.273   8.680  0.00  0.00    -0.775 OA
HETATM   41  H   UNK N   1      20.774  18.647   9.147  0.00  0.00     0.167 HD
ENDBRANCH  38  40
ENDBRANCH  33  38
ENDBRANCH  30  33
ENDBRANCH  28  29
BRANCH  28  42
HETATM   42  C   UNK N   1      22.380  14.439   4.320  0.00  0.00     0.073 C 
BRANCH  42  43
HETATM   43  C   UNK N   1      23.485  14.120   5.278  0.00  0.00    -0.056 A 
HETATM   44  C   UNK N   1      23.969  12.814   5.402  0.00  0.00     0.007 A 
HETATM   45  C   UNK N   1      24.974  12.522   6.328  0.00  0.00     0.001 A 
HETATM   46  C   UNK N   1      25.495  13.536   7.135  0.00  0.00     0.000 A 
HETATM   47  C   UNK N   1      25.013  14.843   7.016  0.00  0.00     0.001 A 
HETATM   48  C   UNK N   1      24.004  15.133   6.091  0.00  0.00     0.007 A 
ENDBRANCH  42  43
ENDBRANCH  28  42
ENDBRANCH   1  28
TORSDOF 19
ENDMDL
MODEL 9
REMARK VINA RESULT:      -7.6     16.535     20.858
REMARK  19 active torsions:
REMARK  status: ('A' for Active; 'I' for Inactive)
REMARK    1  A    between atoms: S_2  and  C_3 
REMARK    2  A    between atoms: C_3  and  C_4 
REMARK    3  A    between atoms: C_4  and  C_5 
REMARK    4  A    between atoms: C_5  and  C_6 
REMARK    5  A    between atoms: C_5  and  N_9 
REMARK    6  A    between atoms: C_6  and  O_8 
REMARK       I    between atoms: N_9  and  C_10 
REMARK    7  A    between atoms: C_10  and  C_12 
REMARK    8  A    between atoms: C_12  and  C_13 
REMARK    9  A    between atoms: C_12  and  N_20 
REMARK   10  A    between atoms: C_13  and  C_14 
REMARK       I    between atoms: N_20  and  C_21 
REMARK   11  A    between atoms: C_21  and  C_23 
REMARK   12  A    between atoms: C_23  and  N_24 
REMARK       I    between atoms: N_24  and  C_25 
REMARK   13  A    between atoms: C_25  and  C_27 
REMARK   14  A    between atoms: C_27  and  N_28 
REMARK       I    between atoms: N_28  and  C_29 
REMARK   15  A    between atoms: C_29  and  C_31 
REMARK   16  A    between atoms: C_31  and  C_32 
REMARK   17  A    between atoms: C_31  and  N_40 
REMARK   18  A    between atoms: C_32  and  C_33 
REMARK   19  A    between atoms: C_36  and  O_39 
ROOT
HETATM    1  N   UNK N   1      28.515  24.195  -2.785  0.00  0.00    -0.346 N 
HETATM    2  C   UNK N   1      27.432  24.338  -3.581  0.00  0.00     0.236 C 
HETATM    3  O   UNK N   1      26.380  24.741  -3.109  0.00  0.00    -0.272 OA
HETATM    4  H   UNK N   1      28.464  24.441  -1.833  0.00  0.00     0.163 HD
ENDROOT
BRANCH   2   5
HETATM    5  C   UNK N   1      27.504  23.974  -5.034  0.00  0.00     0.225 C 
BRANCH   5   6
HETATM    6  N   UNK N   1      26.205  23.525  -5.473  0.00  0.00    -0.351 N 
HETATM    7  C   UNK N   1      26.036  22.828  -6.624  0.00  0.00     0.235 C 
HETATM    8  O   UNK N   1      24.925  22.421  -6.917  0.00  0.00    -0.272 OA
HETATM    9  H   UNK N   1      25.417  23.732  -4.921  0.00  0.00     0.163 HD
BRANCH   7  10
HETATM   10  C   UNK N   1      27.188  22.546  -7.553  0.00  0.00     0.225 C 
BRANCH  10  11
HETATM   11  N   UNK N   1      26.916  23.070  -8.873  0.00  0.00    -0.351 N 
HETATM   12  C   UNK N   1      27.196  24.331  -9.275  0.00  0.00     0.240 C 
HETATM   13  O   UNK N   1      26.917  24.663 -10.414  0.00  0.00    -0.271 OA
HETATM   14  H   UNK N   1      26.496  22.465  -9.526  0.00  0.00     0.163 HD
BRANCH  12  15
HETATM   15  C   UNK N   1      27.848  25.326  -8.371  0.00  0.00     0.171 C 
BRANCH  15  16
HETATM   16  C   UNK N   1      27.113  26.656  -8.466  0.00  0.00     0.072 C 
BRANCH  16  17
HETATM   17  C   UNK N   1      26.633  27.105  -7.135  0.00  0.00    -0.056 A 
HETATM   18  C   UNK N   1      27.431  27.954  -6.365  0.00  0.00     0.010 A 
HETATM   19  C   UNK N   1      26.994  28.371  -5.106  0.00  0.00     0.037 A 
HETATM   20  C   UNK N   1      25.761  27.933  -4.615  0.00  0.00     0.065 A 
HETATM   21  C   UNK N   1      24.964  27.079  -5.383  0.00  0.00     0.037 A 
HETATM   22  C   UNK N   1      25.400  26.663  -6.644  0.00  0.00     0.010 A 
BRANCH  20  23
HETATM   23  O   UNK N   1      25.343  28.331  -3.404  0.00  0.00    -0.361 OA
HETATM   24  H   UNK N   1      25.591  29.166  -3.059  0.00  0.00     0.217 HD
ENDBRANCH  20  23
ENDBRANCH  16  17
ENDBRANCH  15  16
BRANCH  15  25
HETATM   25  N   UNK N   1      29.254  25.474  -8.717  0.00  0.00    -0.418 N 
HETATM   26  H   UNK N   1      29.678  26.309  -9.118  0.00  0.00     0.150 HD
HETATM   27  H   UNK N   1      29.866  24.675  -8.543  0.00  0.00     0.150 HD
ENDBRANCH  15  25
ENDBRANCH  12  15
ENDBRANCH  10  11
ENDBRANCH   7  10
ENDBRANCH   5   6
ENDBRANCH   2   5
BRANCH   1  28
HETATM   28  C   UNK N   1      29.745  23.683  -3.336  0.00  0.00     0.180 C 
BRANCH  28  29
HETATM   29  C   UNK N   1      30.729  24.763  -3.684  0.00  0.00     0.241 C 
HETATM   30  N   UNK N   1      31.488  24.643  -4.803  0.00  0.00    -0.345 N 
HETATM   31  H   UNK N   1      31.415  23.810  -5.323  0.00  0.00     0.163 HD
HETATM   32  O   UNK N   1      30.789  25.770  -2.997  0.00  0.00    -0.271 OA
BRANCH  30  33
HETATM   33  C   UNK N   1      32.395  25.664  -5.279  0.00  0.00     0.183 C 
BRANCH  33  34
HETATM   34  C   UNK N   1      33.632  24.978  -5.838  0.00  0.00     0.046 C 
BRANCH  34  35
HETATM   35  C   UNK N   1      33.471  23.469  -5.804  0.00  0.00     0.076 C 
BRANCH  35  36
HETATM   36  S   UNK N   1      33.712  22.791  -7.471  0.00  0.00    -0.173 SA
HETATM   37  C   UNK N   1      31.929  22.689  -7.794  0.00  0.00     0.089 C 
ENDBRANCH  35  36
ENDBRANCH  34  35
ENDBRANCH  33  34
BRANCH  33  38
HETATM   38  C   UNK N   1      31.770  26.500  -6.370  0.00  0.00     0.163 C 
HETATM   39  O   UNK N   1      32.000  26.236  -7.539  0.00  0.00    -0.648 OA
BRANCH  38  40
HETATM   40  O   UNK N   1      30.961  27.537  -6.072  0.00  0.00    -0.775 OA
HETATM   41  H   UNK N   1      30.193  27.897  -6.469  0.00  0.00     0.167 HD
ENDBRANCH  38  40
ENDBRANCH  33  38
ENDBRANCH  30  33
ENDBRANCH  28  29
BRANCH  28  42
HETATM   42  C   UNK N   1      30.270  22.501  -2.513  0.00  0.00     0.073 C 
BRANCH  42  43
HETATM   43  C   UNK N   1      31.229  21.617  -3.247  0.00  0.00    -0.056 A 
HETATM   44  C   UNK N   1      30.814  20.880  -4.361  0.00  0.00     0.007 A 
HETATM   45  C   UNK N   1      31.708  20.028  -5.013  0.00  0.00     0.001 A 
HETATM   46  C   UNK N   1      33.021  19.907  -4.551  0.00  0.00     0.000 A 
HETATM   47  C   UNK N   1      33.440  20.641  -3.437  0.00  0.00     0.001 A 
HETATM   48  C   UNK N   1      32.543  21.490  -2.783  0.00  0.00     0.007 A 
ENDBRANCH  42  43
ENDBRANCH  28  42
ENDBRANCH   1  28
TORSDOF 19
ENDMDL
