MODEL 1
REMARK VINA RESULT:      -7.8      0.000      0.000
REMARK  9 active torsions:
REMARK  status: ('A' for Active; 'I' for Inactive)
REMARK    1  A    between atoms: N_2  and  C_4 
REMARK    2  A    between atoms: C_4  and  C_5 
REMARK    3  A    between atoms: C_13  and  C_14 
REMARK       I    between atoms: C_14  and  N_16 
REMARK    4  A    between atoms: N_16  and  C_17 
REMARK    5  A    between atoms: C_17  and  C_18 
REMARK    6  A    between atoms: C_18  and  O_19 
REMARK    7  A    between atoms: O_19  and  C_20 
REMARK    8  A    between atoms: C_23  and  C_26 
REMARK       I    between atoms: C_26  and  N_28 
REMARK    9  A    between atoms: N_28  and  O_29 
ROOT
HETATM    1  C   UNK N   1      25.639  14.298   7.040  0.00  0.00     0.276 C 
HETATM    2  O   UNK N   1      26.129  13.517   6.244  0.00  0.00    -0.265 OA
HETATM    3  N   UNK N   1      25.983  15.618   7.026  0.00  0.00    -0.353 N 
HETATM    4  H   UNK N   1      25.560  16.194   7.704  0.00  0.00     0.162 HD
ENDROOT
BRANCH   3   5
HETATM    5  C   UNK N   1      26.918  16.264   6.106  0.00  0.00     0.149 C 
BRANCH   5   6
HETATM    6  C   UNK N   1      28.083  17.048   6.736  0.00  0.00     0.195 C 
BRANCH   6   7
HETATM    7  O   UNK N   1      29.281  16.729   6.141  0.00  0.00    -0.350 OA
BRANCH   7   8
HETATM    8  C   UNK N   1      30.482  17.047   6.676  0.00  0.00     0.068 A 
HETATM    9  C   UNK N   1      30.506  17.653   7.931  0.00  0.00     0.038 A 
HETATM   10  C   UNK N   1      31.717  17.959   8.547  0.00  0.00     0.020 A 
HETATM   11  C   UNK N   1      32.935  17.698   7.907  0.00  0.00     0.034 A 
HETATM   12  C   UNK N   1      32.914  17.101   6.632  0.00  0.00     0.020 A 
HETATM   13  C   UNK N   1      31.696  16.763   6.024  0.00  0.00     0.038 A 
BRANCH  11  14
HETATM   14  C   UNK N   1      34.204  18.057   8.606  0.00  0.00     0.275 C 
HETATM   15  O   UNK N   1      34.849  19.011   8.198  0.00  0.00    -0.265 OA
HETATM   16  N   UNK N   1      34.684  17.362   9.669  0.00  0.00    -0.233 N 
HETATM   17  H   UNK N   1      35.510  17.673  10.103  0.00  0.00     0.197 HD
BRANCH  16  18
HETATM   18  O   UNK N   1      34.079  16.268  10.149  0.00  0.00    -0.287 OA
HETATM   19  H   UNK N   1      34.218  15.408   9.720  0.00  0.00     0.244 HD
ENDBRANCH  16  18
ENDBRANCH  11  14
ENDBRANCH   7   8
ENDBRANCH   6   7
ENDBRANCH   5   6
ENDBRANCH   3   5
BRANCH   1  20
HETATM   20  C   UNK N   1      24.685  13.780   8.043  0.00  0.00     0.152 A 
HETATM   21  O   UNK N   1      25.087  13.207   9.166  0.00  0.00    -0.304 OA
HETATM   22  C   UNK N   1      24.028  12.851   9.852  0.00  0.00     0.087 A 
HETATM   23  C   UNK N   1      23.994  12.220  11.094  0.00  0.00     0.038 A 
HETATM   24  C   UNK N   1      22.886  13.179   9.173  0.00  0.00     0.009 A 
HETATM   25  C   UNK N   1      22.733  11.922  11.641  0.00  0.00     0.003 A 
HETATM   26  C   UNK N   1      21.552  12.255  10.940  0.00  0.00     0.001 A 
HETATM   27  C   UNK N   1      21.623  12.895   9.687  0.00  0.00     0.015 A 
HETATM   28  C   UNK N   1      23.289  13.783   7.999  0.00  0.00     0.022 A 
BRANCH  28  29
HETATM   29  C   UNK N   1      22.406  14.296   6.899  0.00  0.00     0.314 C 
BRANCH  29  30
HETATM   30  N   UNK N   1      22.344  15.753   6.933  0.00  0.00     0.084 N 
HETATM   31  C   UNK N   1      21.111  16.113   7.606  0.00  0.00     0.309 C 
HETATM   32  C   UNK N   1      22.228  16.242   5.569  0.00  0.00     0.309 C 
ENDBRANCH  29  30
ENDBRANCH  28  29
ENDBRANCH   1  20
TORSDOF 9
ENDMDL
MODEL 2
REMARK VINA RESULT:      -7.5      7.260     11.716
REMARK  9 active torsions:
REMARK  status: ('A' for Active; 'I' for Inactive)
REMARK    1  A    between atoms: N_2  and  C_4 
REMARK    2  A    between atoms: C_4  and  C_5 
REMARK    3  A    between atoms: C_13  and  C_14 
REMARK       I    between atoms: C_14  and  N_16 
REMARK    4  A    between atoms: N_16  and  C_17 
REMARK    5  A    between atoms: C_17  and  C_18 
REMARK    6  A    between atoms: C_18  and  O_19 
REMARK    7  A    between atoms: O_19  and  C_20 
REMARK    8  A    between atoms: C_23  and  C_26 
REMARK       I    between atoms: C_26  and  N_28 
REMARK    9  A    between atoms: N_28  and  O_29 
ROOT
HETATM    1  C   UNK N   1      35.553  13.385  13.380  0.00  0.00     0.276 C 
HETATM    2  O   UNK N   1      34.573  13.153  12.693  0.00  0.00    -0.265 OA
HETATM    3  N   UNK N   1      36.637  14.026  12.856  0.00  0.00    -0.353 N 
HETATM    4  H   UNK N   1      37.400  14.172  13.462  0.00  0.00     0.162 HD
ENDROOT
BRANCH   3   5
HETATM    5  C   UNK N   1      36.780  14.519  11.487  0.00  0.00     0.149 C 
BRANCH   5   6
HETATM    6  C   UNK N   1      36.091  15.855  11.155  0.00  0.00     0.195 C 
BRANCH   6   7
HETATM    7  O   UNK N   1      35.840  15.967   9.807  0.00  0.00    -0.350 OA
BRANCH   7   8
HETATM    8  C   UNK N   1      34.651  16.370   9.306  0.00  0.00     0.068 A 
HETATM    9  C   UNK N   1      33.564  15.502   9.407  0.00  0.00     0.038 A 
HETATM   10  C   UNK N   1      32.306  15.886   8.949  0.00  0.00     0.020 A 
HETATM   11  C   UNK N   1      32.111  17.136   8.348  0.00  0.00     0.034 A 
HETATM   12  C   UNK N   1      33.209  18.009   8.230  0.00  0.00     0.020 A 
HETATM   13  C   UNK N   1      34.470  17.636   8.720  0.00  0.00     0.038 A 
BRANCH  11  14
HETATM   14  C   UNK N   1      30.744  17.493   7.864  0.00  0.00     0.275 C 
HETATM   15  O   UNK N   1      30.437  17.211   6.715  0.00  0.00    -0.265 OA
HETATM   16  N   UNK N   1      29.830  18.132   8.637  0.00  0.00    -0.233 N 
HETATM   17  H   UNK N   1      28.936  18.308   8.265  0.00  0.00     0.197 HD
BRANCH  16  18
HETATM   18  O   UNK N   1      30.096  18.533   9.887  0.00  0.00    -0.287 OA
HETATM   19  H   UNK N   1      29.646  19.311  10.253  0.00  0.00     0.244 HD
ENDBRANCH  16  18
ENDBRANCH  11  14
ENDBRANCH   7   8
ENDBRANCH   6   7
ENDBRANCH   5   6
ENDBRANCH   3   5
BRANCH   1  20
HETATM   20  C   UNK N   1      35.554  12.930  14.786  0.00  0.00     0.152 A 
HETATM   21  O   UNK N   1      35.262  13.743  15.789  0.00  0.00    -0.304 OA
HETATM   22  C   UNK N   1      35.344  13.066  16.908  0.00  0.00     0.087 A 
HETATM   23  C   UNK N   1      35.111  13.533  18.200  0.00  0.00     0.038 A 
HETATM   24  C   UNK N   1      35.710  11.772  16.659  0.00  0.00     0.009 A 
HETATM   25  C   UNK N   1      35.270  12.624  19.261  0.00  0.00     0.003 A 
HETATM   26  C   UNK N   1      35.653  11.287  19.007  0.00  0.00     0.001 A 
HETATM   27  C   UNK N   1      35.877  10.848  17.688  0.00  0.00     0.015 A 
HETATM   28  C   UNK N   1      35.851  11.661  15.290  0.00  0.00     0.022 A 
BRANCH  28  29
HETATM   29  C   UNK N   1      36.270  10.443  14.520  0.00  0.00     0.314 C 
BRANCH  29  30
HETATM   30  N   UNK N   1      37.651  10.576  14.068  0.00  0.00     0.084 N 
HETATM   31  C   UNK N   1      37.661  10.306  12.642  0.00  0.00     0.309 C 
HETATM   32  C   UNK N   1      38.443   9.531  14.692  0.00  0.00     0.309 C 
ENDBRANCH  29  30
ENDBRANCH  28  29
ENDBRANCH   1  20
TORSDOF 9
ENDMDL
MODEL 3
REMARK VINA RESULT:      -7.4      5.869     10.106
REMARK  9 active torsions:
REMARK  status: ('A' for Active; 'I' for Inactive)
REMARK    1  A    between atoms: N_2  and  C_4 
REMARK    2  A    between atoms: C_4  and  C_5 
REMARK    3  A    between atoms: C_13  and  C_14 
REMARK       I    between atoms: C_14  and  N_16 
REMARK    4  A    between atoms: N_16  and  C_17 
REMARK    5  A    between atoms: C_17  and  C_18 
REMARK    6  A    between atoms: C_18  and  O_19 
REMARK    7  A    between atoms: O_19  and  C_20 
REMARK    8  A    between atoms: C_23  and  C_26 
REMARK       I    between atoms: C_26  and  N_28 
REMARK    9  A    between atoms: N_28  and  O_29 
ROOT
HETATM    1  C   UNK N   1      34.379  17.655   8.480  0.00  0.00     0.276 C 
HETATM    2  O   UNK N   1      34.911  18.736   8.667  0.00  0.00    -0.265 OA
HETATM    3  N   UNK N   1      34.543  16.633   9.368  0.00  0.00    -0.353 N 
HETATM    4  H   UNK N   1      34.096  15.782   9.152  0.00  0.00     0.162 HD
ENDROOT
BRANCH   3   5
HETATM    5  C   UNK N   1      35.315  16.673  10.610  0.00  0.00     0.149 C 
BRANCH   5   6
HETATM    6  C   UNK N   1      35.721  15.320  11.218  0.00  0.00     0.195 C 
BRANCH   6   7
HETATM    7  O   UNK N   1      36.179  15.467  12.507  0.00  0.00    -0.350 OA
BRANCH   7   8
HETATM    8  C   UNK N   1      36.096  14.491  13.439  0.00  0.00     0.068 A 
HETATM    9  C   UNK N   1      36.721  14.697  14.668  0.00  0.00     0.038 A 
HETATM   10  C   UNK N   1      36.628  13.743  15.679  0.00  0.00     0.020 A 
HETATM   11  C   UNK N   1      35.935  12.543  15.473  0.00  0.00     0.034 A 
HETATM   12  C   UNK N   1      35.316  12.325  14.227  0.00  0.00     0.020 A 
HETATM   13  C   UNK N   1      35.382  13.299  13.220  0.00  0.00     0.038 A 
BRANCH  11  14
HETATM   14  C   UNK N   1      35.876  11.549  16.586  0.00  0.00     0.275 C 
HETATM   15  O   UNK N   1      35.164  11.790  17.550  0.00  0.00    -0.265 OA
HETATM   16  N   UNK N   1      36.589  10.394  16.583  0.00  0.00    -0.233 N 
HETATM   17  H   UNK N   1      36.477   9.768  17.334  0.00  0.00     0.197 HD
BRANCH  16  18
HETATM   18  O   UNK N   1      37.439  10.073  15.599  0.00  0.00    -0.287 OA
HETATM   19  H   UNK N   1      37.098   9.756  14.747  0.00  0.00     0.244 HD
ENDBRANCH  16  18
ENDBRANCH  11  14
ENDBRANCH   7   8
ENDBRANCH   6   7
ENDBRANCH   5   6
ENDBRANCH   3   5
BRANCH   1  20
HETATM   20  C   UNK N   1      33.576  17.465   7.254  0.00  0.00     0.152 A 
HETATM   21  O   UNK N   1      34.106  17.560   6.044  0.00  0.00    -0.304 OA
HETATM   22  C   UNK N   1      33.163  17.345   5.160  0.00  0.00     0.087 A 
HETATM   23  C   UNK N   1      33.285  17.345   3.772  0.00  0.00     0.038 A 
HETATM   24  C   UNK N   1      31.968  17.111   5.784  0.00  0.00     0.009 A 
HETATM   25  C   UNK N   1      32.127  17.097   3.015  0.00  0.00     0.003 A 
HETATM   26  C   UNK N   1      30.889  16.861   3.656  0.00  0.00     0.001 A 
HETATM   27  C   UNK N   1      30.802  16.865   5.061  0.00  0.00     0.015 A 
HETATM   28  C   UNK N   1      32.213  17.184   7.140  0.00  0.00     0.022 A 
BRANCH  28  29
HETATM   29  C   UNK N   1      31.213  17.029   8.248  0.00  0.00     0.314 C 
BRANCH  29  30
HETATM   30  N   UNK N   1      30.156  18.027   8.125  0.00  0.00     0.084 N 
HETATM   31  C   UNK N   1      30.138  18.786   9.361  0.00  0.00     0.309 C 
HETATM   32  C   UNK N   1      28.879  17.338   8.044  0.00  0.00     0.309 C 
ENDBRANCH  29  30
ENDBRANCH  28  29
ENDBRANCH   1  20
TORSDOF 9
ENDMDL
MODEL 4
REMARK VINA RESULT:      -7.4      6.847      9.009
REMARK  9 active torsions:
REMARK  status: ('A' for Active; 'I' for Inactive)
REMARK    1  A    between atoms: N_2  and  C_4 
REMARK    2  A    between atoms: C_4  and  C_5 
REMARK    3  A    between atoms: C_13  and  C_14 
REMARK       I    between atoms: C_14  and  N_16 
REMARK    4  A    between atoms: N_16  and  C_17 
REMARK    5  A    between atoms: C_17  and  C_18 
REMARK    6  A    between atoms: C_18  and  O_19 
REMARK    7  A    between atoms: O_19  and  C_20 
REMARK    8  A    between atoms: C_23  and  C_26 
REMARK       I    between atoms: C_26  and  N_28 
REMARK    9  A    between atoms: N_28  and  O_29 
ROOT
HETATM    1  C   UNK N   1      20.515  14.137   6.466  0.00  0.00     0.276 C 
HETATM    2  O   UNK N   1      20.160  15.303   6.455  0.00  0.00    -0.265 OA
HETATM    3  N   UNK N   1      20.172  13.293   5.451  0.00  0.00    -0.353 N 
HETATM    4  H   UNK N   1      20.481  12.360   5.527  0.00  0.00     0.162 HD
ENDROOT
BRANCH   3   5
HETATM    5  C   UNK N   1      19.392  13.632   4.262  0.00  0.00     0.149 C 
BRANCH   5   6
HETATM    6  C   UNK N   1      20.158  13.709   2.929  0.00  0.00     0.195 C 
BRANCH   6   7
HETATM    7  O   UNK N   1      21.178  14.630   2.989  0.00  0.00    -0.350 OA
BRANCH   7   8
HETATM    8  C   UNK N   1      20.988  15.958   2.814  0.00  0.00     0.068 A 
HETATM    9  C   UNK N   1      21.755  16.839   3.575  0.00  0.00     0.038 A 
HETATM   10  C   UNK N   1      21.632  18.216   3.402  0.00  0.00     0.020 A 
HETATM   11  C   UNK N   1      20.715  18.745   2.486  0.00  0.00     0.034 A 
HETATM   12  C   UNK N   1      19.928  17.858   1.727  0.00  0.00     0.020 A 
HETATM   13  C   UNK N   1      20.073  16.471   1.878  0.00  0.00     0.038 A 
BRANCH  11  14
HETATM   14  C   UNK N   1      20.615  20.229   2.347  0.00  0.00     0.275 C 
HETATM   15  O   UNK N   1      20.561  20.910   3.361  0.00  0.00    -0.265 OA
HETATM   16  N   UNK N   1      20.566  20.857   1.145  0.00  0.00    -0.233 N 
HETATM   17  H   UNK N   1      20.534  21.840   1.126  0.00  0.00     0.197 HD
BRANCH  16  18
HETATM   18  O   UNK N   1      20.560  20.192  -0.017  0.00  0.00    -0.287 OA
HETATM   19  H   UNK N   1      21.194  20.425  -0.714  0.00  0.00     0.244 HD
ENDBRANCH  16  18
ENDBRANCH  11  14
ENDBRANCH   7   8
ENDBRANCH   6   7
ENDBRANCH   5   6
ENDBRANCH   3   5
BRANCH   1  20
HETATM   20  C   UNK N   1      21.301  13.649   7.618  0.00  0.00     0.152 A 
HETATM   21  O   UNK N   1      20.725  13.175   8.712  0.00  0.00    -0.304 OA
HETATM   22  C   UNK N   1      21.665  12.821   9.555  0.00  0.00     0.087 A 
HETATM   23  C   UNK N   1      21.502  12.270  10.824  0.00  0.00     0.038 A 
HETATM   24  C   UNK N   1      22.901  13.070   9.025  0.00  0.00     0.009 A 
HETATM   25  C   UNK N   1      22.662  11.974  11.562  0.00  0.00     0.003 A 
HETATM   26  C   UNK N   1      23.941  12.236  11.019  0.00  0.00     0.001 A 
HETATM   27  C   UNK N   1      24.069  12.791   9.731  0.00  0.00     0.015 A 
HETATM   28  C   UNK N   1      22.689  13.606   7.771  0.00  0.00     0.022 A 
BRANCH  28  29
HETATM   29  C   UNK N   1      23.733  14.075   6.800  0.00  0.00     0.314 C 
BRANCH  29  30
HETATM   30  N   UNK N   1      23.772  13.202   5.632  0.00  0.00     0.084 N 
HETATM   31  C   UNK N   1      24.604  12.064   5.975  0.00  0.00     0.309 C 
HETATM   32  C   UNK N   1      24.452  13.902   4.556  0.00  0.00     0.309 C 
ENDBRANCH  29  30
ENDBRANCH  28  29
ENDBRANCH   1  20
TORSDOF 9
ENDMDL
MODEL 5
REMARK VINA RESULT:      -7.2      7.270     11.714
REMARK  9 active torsions:
REMARK  status: ('A' for Active; 'I' for Inactive)
REMARK    1  A    between atoms: N_2  and  C_4 
REMARK    2  A    between atoms: C_4  and  C_5 
REMARK    3  A    between atoms: C_13  and  C_14 
REMARK       I    between atoms: C_14  and  N_16 
REMARK    4  A    between atoms: N_16  and  C_17 
REMARK    5  A    between atoms: C_17  and  C_18 
REMARK    6  A    between atoms: C_18  and  O_19 
REMARK    7  A    between atoms: O_19  and  C_20 
REMARK    8  A    between atoms: C_23  and  C_26 
REMARK       I    between atoms: C_26  and  N_28 
REMARK    9  A    between atoms: N_28  and  O_29 
ROOT
HETATM    1  C   UNK N   1      35.472  13.559  13.570  0.00  0.00     0.276 C 
HETATM    2  O   UNK N   1      34.632  13.142  12.792  0.00  0.00    -0.265 OA
HETATM    3  N   UNK N   1      36.378  14.502  13.181  0.00  0.00    -0.353 N 
HETATM    4  H   UNK N   1      37.038  14.787  13.855  0.00  0.00     0.162 HD
ENDROOT
BRANCH   3   5
HETATM    5  C   UNK N   1      36.469  15.132  11.865  0.00  0.00     0.149 C 
BRANCH   5   6
HETATM    6  C   UNK N   1      35.417  16.206  11.536  0.00  0.00     0.195 C 
BRANCH   6   7
HETATM    7  O   UNK N   1      35.643  16.767  10.300  0.00  0.00    -0.350 OA
BRANCH   7   8
HETATM    8  C   UNK N   1      34.690  16.870   9.347  0.00  0.00     0.068 A 
HETATM    9  C   UNK N   1      33.743  15.851   9.248  0.00  0.00     0.038 A 
HETATM   10  C   UNK N   1      32.712  15.931   8.314  0.00  0.00     0.020 A 
HETATM   11  C   UNK N   1      32.622  17.016   7.434  0.00  0.00     0.034 A 
HETATM   12  C   UNK N   1      33.586  18.039   7.521  0.00  0.00     0.020 A 
HETATM   13  C   UNK N   1      34.606  17.976   8.482  0.00  0.00     0.038 A 
BRANCH  11  14
HETATM   14  C   UNK N   1      31.504  17.047   6.445  0.00  0.00     0.275 C 
HETATM   15  O   UNK N   1      30.402  17.425   6.816  0.00  0.00    -0.265 OA
HETATM   16  N   UNK N   1      31.650  16.659   5.153  0.00  0.00    -0.233 N 
HETATM   17  H   UNK N   1      30.880  16.735   4.545  0.00  0.00     0.197 HD
BRANCH  16  18
HETATM   18  O   UNK N   1      32.802  16.175   4.670  0.00  0.00    -0.287 OA
HETATM   19  H   UNK N   1      33.478  15.833   5.278  0.00  0.00     0.244 HD
ENDBRANCH  16  18
ENDBRANCH  11  14
ENDBRANCH   7   8
ENDBRANCH   6   7
ENDBRANCH   5   6
ENDBRANCH   3   5
BRANCH   1  20
HETATM   20  C   UNK N   1      35.509  12.999  14.937  0.00  0.00     0.152 A 
HETATM   21  O   UNK N   1      35.241  13.734  16.006  0.00  0.00    -0.304 OA
HETATM   22  C   UNK N   1      35.351  12.975  17.069  0.00  0.00     0.087 A 
HETATM   23  C   UNK N   1      35.151  13.343  18.397  0.00  0.00     0.038 A 
HETATM   24  C   UNK N   1      35.712  11.704  16.714  0.00  0.00     0.009 A 
HETATM   25  C   UNK N   1      35.336  12.357  19.383  0.00  0.00     0.003 A 
HETATM   26  C   UNK N   1      35.714  11.045  19.020  0.00  0.00     0.001 A 
HETATM   27  C   UNK N   1      35.905  10.706  17.667  0.00  0.00     0.015 A 
HETATM   28  C   UNK N   1      35.819  11.698  15.338  0.00  0.00     0.022 A 
BRANCH  28  29
HETATM   29  C   UNK N   1      36.220  10.542  14.468  0.00  0.00     0.314 C 
BRANCH  29  30
HETATM   30  N   UNK N   1      37.587  10.715  13.988  0.00  0.00     0.084 N 
HETATM   31  C   UNK N   1      37.555  10.567  12.545  0.00  0.00     0.309 C 
HETATM   32  C   UNK N   1      38.397   9.622  14.497  0.00  0.00     0.309 C 
ENDBRANCH  29  30
ENDBRANCH  28  29
ENDBRANCH   1  20
TORSDOF 9
ENDMDL
MODEL 6
REMARK VINA RESULT:      -7.2      8.662     12.039
REMARK  9 active torsions:
REMARK  status: ('A' for Active; 'I' for Inactive)
REMARK    1  A    between atoms: N_2  and  C_4 
REMARK    2  A    between atoms: C_4  and  C_5 
REMARK    3  A    between atoms: C_13  and  C_14 
REMARK       I    between atoms: C_14  and  N_16 
REMARK    4  A    between atoms: N_16  and  C_17 
REMARK    5  A    between atoms: C_17  and  C_18 
REMARK    6  A    between atoms: C_18  and  O_19 
REMARK    7  A    between atoms: O_19  and  C_20 
REMARK    8  A    between atoms: C_23  and  C_26 
REMARK       I    between atoms: C_26  and  N_28 
REMARK    9  A    between atoms: N_28  and  O_29 
ROOT
HETATM    1  C   UNK N   1      35.192  11.354  13.466  0.00  0.00     0.276 C 
HETATM    2  O   UNK N   1      34.195  10.861  12.967  0.00  0.00    -0.265 OA
HETATM    3  N   UNK N   1      36.281  11.653  12.702  0.00  0.00    -0.353 N 
HETATM    4  H   UNK N   1      37.058  12.038  13.169  0.00  0.00     0.162 HD
ENDROOT
BRANCH   3   5
HETATM    5  C   UNK N   1      36.412  11.460  11.258  0.00  0.00     0.149 C 
BRANCH   5   6
HETATM    6  C   UNK N   1      37.385  12.394  10.518  0.00  0.00     0.195 C 
BRANCH   6   7
HETATM    7  O   UNK N   1      37.326  13.676  11.015  0.00  0.00    -0.350 OA
BRANCH   7   8
HETATM    8  C   UNK N   1      36.493  14.622  10.526  0.00  0.00     0.068 A 
HETATM    9  C   UNK N   1      36.115  14.540   9.187  0.00  0.00     0.038 A 
HETATM   10  C   UNK N   1      35.223  15.462   8.644  0.00  0.00     0.020 A 
HETATM   11  C   UNK N   1      34.713  16.510   9.421  0.00  0.00     0.034 A 
HETATM   12  C   UNK N   1      35.105  16.605  10.769  0.00  0.00     0.020 A 
HETATM   13  C   UNK N   1      35.979  15.659  11.325  0.00  0.00     0.038 A 
BRANCH  11  14
HETATM   14  C   UNK N   1      33.769  17.478   8.787  0.00  0.00     0.275 C 
HETATM   15  O   UNK N   1      32.611  17.134   8.605  0.00  0.00    -0.265 OA
HETATM   16  N   UNK N   1      34.143  18.721   8.389  0.00  0.00    -0.233 N 
HETATM   17  H   UNK N   1      33.461  19.321   8.008  0.00  0.00     0.197 HD
BRANCH  16  18
HETATM   18  O   UNK N   1      35.402  19.164   8.493  0.00  0.00    -0.287 OA
HETATM   19  H   UNK N   1      35.818  19.245   9.367  0.00  0.00     0.244 HD
ENDBRANCH  16  18
ENDBRANCH  11  14
ENDBRANCH   7   8
ENDBRANCH   6   7
ENDBRANCH   5   6
ENDBRANCH   3   5
BRANCH   1  20
HETATM   20  C   UNK N   1      35.207  11.593  14.924  0.00  0.00     0.152 A 
HETATM   21  O   UNK N   1      35.144  12.812  15.438  0.00  0.00    -0.304 OA
HETATM   22  C   UNK N   1      35.176  12.713  16.745  0.00  0.00     0.087 A 
HETATM   23  C   UNK N   1      35.127  13.749  17.675  0.00  0.00     0.038 A 
HETATM   24  C   UNK N   1      35.275  11.402  17.123  0.00  0.00     0.009 A 
HETATM   25  C   UNK N   1      35.187  13.407  19.038  0.00  0.00     0.003 A 
HETATM   26  C   UNK N   1      35.294  12.053  19.431  0.00  0.00     0.001 A 
HETATM   27  C   UNK N   1      35.338  11.031  18.464  0.00  0.00     0.015 A 
HETATM   28  C   UNK N   1      35.296  10.659  15.959  0.00  0.00     0.022 A 
BRANCH  28  29
HETATM   29  C   UNK N   1      35.424   9.169  15.841  0.00  0.00     0.314 C 
BRANCH  29  30
HETATM   30  N   UNK N   1      36.823   8.789  15.675  0.00  0.00     0.084 N 
HETATM   31  C   UNK N   1      36.948   8.181  14.364  0.00  0.00     0.309 C 
HETATM   32  C   UNK N   1      37.136   7.751  16.643  0.00  0.00     0.309 C 
ENDBRANCH  29  30
ENDBRANCH  28  29
ENDBRANCH   1  20
TORSDOF 9
ENDMDL
MODEL 7
REMARK VINA RESULT:      -7.2      7.349     11.475
REMARK  9 active torsions:
REMARK  status: ('A' for Active; 'I' for Inactive)
REMARK    1  A    between atoms: N_2  and  C_4 
REMARK    2  A    between atoms: C_4  and  C_5 
REMARK    3  A    between atoms: C_13  and  C_14 
REMARK       I    between atoms: C_14  and  N_16 
REMARK    4  A    between atoms: N_16  and  C_17 
REMARK    5  A    between atoms: C_17  and  C_18 
REMARK    6  A    between atoms: C_18  and  O_19 
REMARK    7  A    between atoms: O_19  and  C_20 
REMARK    8  A    between atoms: C_23  and  C_26 
REMARK       I    between atoms: C_26  and  N_28 
REMARK    9  A    between atoms: N_28  and  O_29 
ROOT
HETATM    1  C   UNK N   1      35.466  13.469  13.540  0.00  0.00     0.276 C 
HETATM    2  O   UNK N   1      34.590  13.074  12.790  0.00  0.00    -0.265 OA
HETATM    3  N   UNK N   1      36.393  14.376  13.117  0.00  0.00    -0.353 N 
HETATM    4  H   UNK N   1      37.081  14.643  13.769  0.00  0.00     0.162 HD
ENDROOT
BRANCH   3   5
HETATM    5  C   UNK N   1      36.468  14.990  11.792  0.00  0.00     0.149 C 
BRANCH   5   6
HETATM    6  C   UNK N   1      35.501  16.153  11.511  0.00  0.00     0.195 C 
BRANCH   6   7
HETATM    7  O   UNK N   1      35.673  16.652  10.241  0.00  0.00    -0.350 OA
BRANCH   7   8
HETATM    8  C   UNK N   1      34.659  16.800   9.359  0.00  0.00     0.068 A 
HETATM    9  C   UNK N   1      33.693  15.797   9.290  0.00  0.00     0.038 A 
HETATM   10  C   UNK N   1      32.602  15.922   8.432  0.00  0.00     0.020 A 
HETATM   11  C   UNK N   1      32.469  17.038   7.597  0.00  0.00     0.034 A 
HETATM   12  C   UNK N   1      33.451  18.045   7.652  0.00  0.00     0.020 A 
HETATM   13  C   UNK N   1      34.533  17.936   8.539  0.00  0.00     0.038 A 
BRANCH  11  14
HETATM   14  C   UNK N   1      31.287  17.116   6.687  0.00  0.00     0.275 C 
HETATM   15  O   UNK N   1      30.216  17.481   7.148  0.00  0.00    -0.265 OA
HETATM   16  N   UNK N   1      31.344  16.785   5.372  0.00  0.00    -0.233 N 
HETATM   17  H   UNK N   1      30.535  16.891   4.822  0.00  0.00     0.197 HD
BRANCH  16  18
HETATM   18  O   UNK N   1      32.457  16.318   4.793  0.00  0.00    -0.287 OA
HETATM   19  H   UNK N   1      33.124  15.854   5.324  0.00  0.00     0.244 HD
ENDBRANCH  16  18
ENDBRANCH  11  14
ENDBRANCH   7   8
ENDBRANCH   6   7
ENDBRANCH   5   6
ENDBRANCH   3   5
BRANCH   1  20
HETATM   20  C   UNK N   1      35.522  12.920  14.912  0.00  0.00     0.152 A 
HETATM   21  O   UNK N   1      35.190  13.641  15.971  0.00  0.00    -0.304 OA
HETATM   22  C   UNK N   1      35.336  12.897  17.041  0.00  0.00     0.087 A 
HETATM   23  C   UNK N   1      35.093  13.258  18.364  0.00  0.00     0.038 A 
HETATM   24  C   UNK N   1      35.788  11.652  16.699  0.00  0.00     0.009 A 
HETATM   25  C   UNK N   1      35.331  12.293  19.359  0.00  0.00     0.003 A 
HETATM   26  C   UNK N   1      35.802  11.007  19.009  0.00  0.00     0.001 A 
HETATM   27  C   UNK N   1      36.035  10.675  17.661  0.00  0.00     0.015 A 
HETATM   28  C   UNK N   1      35.914  11.645  15.324  0.00  0.00     0.022 A 
BRANCH  28  29
HETATM   29  C   UNK N   1      36.405  10.514  14.468  0.00  0.00     0.314 C 
BRANCH  29  30
HETATM   30  N   UNK N   1      35.315   9.596  14.162  0.00  0.00     0.084 N 
HETATM   31  C   UNK N   1      35.714   8.284  14.635  0.00  0.00     0.309 C 
HETATM   32  C   UNK N   1      35.190   9.493  12.718  0.00  0.00     0.309 C 
ENDBRANCH  29  30
ENDBRANCH  28  29
ENDBRANCH   1  20
TORSDOF 9
ENDMDL
MODEL 8
REMARK VINA RESULT:      -7.1      5.269     10.515
REMARK  9 active torsions:
REMARK  status: ('A' for Active; 'I' for Inactive)
REMARK    1  A    between atoms: N_2  and  C_4 
REMARK    2  A    between atoms: C_4  and  C_5 
REMARK    3  A    between atoms: C_13  and  C_14 
REMARK       I    between atoms: C_14  and  N_16 
REMARK    4  A    between atoms: N_16  and  C_17 
REMARK    5  A    between atoms: C_17  and  C_18 
REMARK    6  A    between atoms: C_18  and  O_19 
REMARK    7  A    between atoms: O_19  and  C_20 
REMARK    8  A    between atoms: C_23  and  C_26 
REMARK       I    between atoms: C_26  and  N_28 
REMARK    9  A    between atoms: N_28  and  O_29 
ROOT
HETATM    1  C   UNK N   1      28.597  17.631   4.635  0.00  0.00     0.276 C 
HETATM    2  O   UNK N   1      27.858  16.678   4.456  0.00  0.00    -0.265 OA
HETATM    3  N   UNK N   1      28.217  18.889   4.268  0.00  0.00    -0.353 N 
HETATM    4  H   UNK N   1      28.865  19.612   4.429  0.00  0.00     0.162 HD
ENDROOT
BRANCH   3   5
HETATM    5  C   UNK N   1      26.943  19.270   3.660  0.00  0.00     0.149 C 
BRANCH   5   6
HETATM    6  C   UNK N   1      25.777  19.565   4.619  0.00  0.00     0.195 C 
BRANCH   6   7
HETATM    7  O   UNK N   1      24.791  20.299   3.999  0.00  0.00    -0.350 OA
BRANCH   7   8
HETATM    8  C   UNK N   1      23.609  19.771   3.609  0.00  0.00     0.068 A 
HETATM    9  C   UNK N   1      23.321  18.457   3.974  0.00  0.00     0.038 A 
HETATM   10  C   UNK N   1      22.098  17.880   3.638  0.00  0.00     0.020 A 
HETATM   11  C   UNK N   1      21.146  18.594   2.899  0.00  0.00     0.034 A 
HETATM   12  C   UNK N   1      21.441  19.916   2.516  0.00  0.00     0.020 A 
HETATM   13  C   UNK N   1      22.658  20.509   2.881  0.00  0.00     0.038 A 
BRANCH  11  14
HETATM   14  C   UNK N   1      19.856  17.925   2.556  0.00  0.00     0.275 C 
HETATM   15  O   UNK N   1      19.120  17.568   3.464  0.00  0.00    -0.265 OA
HETATM   16  N   UNK N   1      19.469  17.680   1.278  0.00  0.00    -0.233 N 
HETATM   17  H   UNK N   1      18.590  17.265   1.122  0.00  0.00     0.197 HD
BRANCH  16  18
HETATM   18  O   UNK N   1      20.234  17.981   0.221  0.00  0.00    -0.287 OA
HETATM   19  H   UNK N   1      21.193  18.089   0.331  0.00  0.00     0.244 HD
ENDBRANCH  16  18
ENDBRANCH  11  14
ENDBRANCH   7   8
ENDBRANCH   6   7
ENDBRANCH   5   6
ENDBRANCH   3   5
BRANCH   1  20
HETATM   20  C   UNK N   1      29.928  17.391   5.231  0.00  0.00     0.152 A 
HETATM   21  O   UNK N   1      31.018  17.265   4.490  0.00  0.00    -0.304 OA
HETATM   22  C   UNK N   1      32.039  17.062   5.287  0.00  0.00     0.087 A 
HETATM   23  C   UNK N   1      33.373  16.881   4.926  0.00  0.00     0.038 A 
HETATM   24  C   UNK N   1      31.630  17.038   6.592  0.00  0.00     0.009 A 
HETATM   25  C   UNK N   1      34.304  16.667   5.958  0.00  0.00     0.003 A 
HETATM   26  C   UNK N   1      33.884  16.637   7.307  0.00  0.00     0.001 A 
HETATM   27  C   UNK N   1      32.528  16.826   7.636  0.00  0.00     0.015 A 
HETATM   28  C   UNK N   1      30.266  17.250   6.579  0.00  0.00     0.022 A 
BRANCH  28  29
HETATM   29  C   UNK N   1      29.345  17.283   7.764  0.00  0.00     0.314 C 
BRANCH  29  30
HETATM   30  N   UNK N   1      29.253  18.636   8.300  0.00  0.00     0.084 N 
HETATM   31  C   UNK N   1      29.458  18.542   9.734  0.00  0.00     0.309 C 
HETATM   32  C   UNK N   1      27.896  19.117   8.107  0.00  0.00     0.309 C 
ENDBRANCH  29  30
ENDBRANCH  28  29
ENDBRANCH   1  20
TORSDOF 9
ENDMDL
MODEL 9
REMARK VINA RESULT:      -7.0      5.599      7.268
REMARK  9 active torsions:
REMARK  status: ('A' for Active; 'I' for Inactive)
REMARK    1  A    between atoms: N_2  and  C_4 
REMARK    2  A    between atoms: C_4  and  C_5 
REMARK    3  A    between atoms: C_13  and  C_14 
REMARK       I    between atoms: C_14  and  N_16 
REMARK    4  A    between atoms: N_16  and  C_17 
REMARK    5  A    between atoms: C_17  and  C_18 
REMARK    6  A    between atoms: C_18  and  O_19 
REMARK    7  A    between atoms: O_19  and  C_20 
REMARK    8  A    between atoms: C_23  and  C_26 
REMARK       I    between atoms: C_26  and  N_28 
REMARK    9  A    between atoms: N_28  and  O_29 
ROOT
HETATM    1  C   UNK N   1      30.288  15.968   5.453  0.00  0.00     0.276 C 
HETATM    2  O   UNK N   1      29.789  14.857   5.440  0.00  0.00    -0.265 OA
HETATM    3  N   UNK N   1      31.644  16.125   5.462  0.00  0.00    -0.353 N 
HETATM    4  H   UNK N   1      31.982  17.050   5.485  0.00  0.00     0.162 HD
ENDROOT
BRANCH   3   5
HETATM    5  C   UNK N   1      32.644  15.059   5.441  0.00  0.00     0.149 C 
BRANCH   5   6
HETATM    6  C   UNK N   1      34.063  15.429   5.908  0.00  0.00     0.195 C 
BRANCH   6   7
HETATM    7  O   UNK N   1      34.030  16.194   7.051  0.00  0.00    -0.350 OA
BRANCH   7   8
HETATM    8  C   UNK N   1      34.436  15.740   8.258  0.00  0.00     0.068 A 
HETATM    9  C   UNK N   1      34.549  14.363   8.441  0.00  0.00     0.038 A 
HETATM   10  C   UNK N   1      35.007  13.844   9.651  0.00  0.00     0.020 A 
HETATM   11  C   UNK N   1      35.332  14.691  10.718  0.00  0.00     0.034 A 
HETATM   12  C   UNK N   1      35.205  16.081  10.541  0.00  0.00     0.020 A 
HETATM   13  C   UNK N   1      34.774  16.607   9.313  0.00  0.00     0.038 A 
BRANCH  11  14
HETATM   14  C   UNK N   1      35.807  14.083  11.996  0.00  0.00     0.275 C 
HETATM   15  O   UNK N   1      35.026  14.001  12.933  0.00  0.00    -0.265 OA
HETATM   16  N   UNK N   1      37.074  13.629  12.172  0.00  0.00    -0.233 N 
HETATM   17  H   UNK N   1      37.311  13.208  13.030  0.00  0.00     0.197 HD
BRANCH  16  18
HETATM   18  O   UNK N   1      38.015  13.730  11.225  0.00  0.00    -0.287 OA
HETATM   19  H   UNK N   1      38.452  14.581  11.063  0.00  0.00     0.244 HD
ENDBRANCH  16  18
ENDBRANCH  11  14
ENDBRANCH   7   8
ENDBRANCH   6   7
ENDBRANCH   5   6
ENDBRANCH   3   5
BRANCH   1  20
HETATM   20  C   UNK N   1      29.395  17.145   5.490  0.00  0.00     0.152 A 
HETATM   21  O   UNK N   1      28.967  17.738   4.386  0.00  0.00    -0.304 OA
HETATM   22  C   UNK N   1      28.197  18.742   4.727  0.00  0.00     0.087 A 
HETATM   23  C   UNK N   1      27.535  19.629   3.880  0.00  0.00     0.038 A 
HETATM   24  C   UNK N   1      28.111  18.838   6.089  0.00  0.00     0.009 A 
HETATM   25  C   UNK N   1      26.765  20.646   4.472  0.00  0.00     0.003 A 
HETATM   26  C   UNK N   1      26.678  20.750   5.879  0.00  0.00     0.001 A 
HETATM   27  C   UNK N   1      27.358  19.835   6.706  0.00  0.00     0.015 A 
HETATM   28  C   UNK N   1      28.879  17.813   6.603  0.00  0.00     0.022 A 
BRANCH  28  29
HETATM   29  C   UNK N   1      29.130  17.510   8.051  0.00  0.00     0.314 C 
BRANCH  29  30
HETATM   30  N   UNK N   1      30.038  18.495   8.628  0.00  0.00     0.084 N 
HETATM   31  C   UNK N   1      31.371  17.922   8.590  0.00  0.00     0.309 C 
HETATM   32  C   UNK N   1      29.702  18.666  10.031  0.00  0.00     0.309 C 
ENDBRANCH  29  30
ENDBRANCH  28  29
ENDBRANCH   1  20
TORSDOF 9
ENDMDL
