MODEL 1
REMARK VINA RESULT:      -5.8      0.000      0.000
REMARK  6 active torsions:
REMARK  status: ('A' for Active; 'I' for Inactive)
REMARK    1  A    between atoms: C_9  and  N_3 
REMARK    2  A    between atoms: C_7  and  O_8 
REMARK    3  A    between atoms: C_10  and  O_17 
REMARK    4  A    between atoms: C_11  and  O_16 
REMARK    5  A    between atoms: C_12  and  C_14 
REMARK    6  A    between atoms: C_14  and  O_15 
ROOT
HETATM    1  C   UNK N   1      36.037  14.310  12.701  0.00  0.00     0.259 C 
HETATM    2  C   UNK N   1      36.569  13.729  11.418  0.00  0.00     0.198 C 
HETATM    3  C   UNK N   1      36.335  14.876  10.476  0.00  0.00     0.182 C 
HETATM    4  C   UNK N   1      35.002  15.388  11.002  0.00  0.00     0.179 C 
HETATM    5  O   UNK N   1      34.928  15.125  12.393  0.00  0.00    -0.354 OA
ENDROOT
BRANCH   1   6
HETATM    6  N   UNK N   1      35.736  13.292  13.699  0.00  0.00    -0.305 N 
HETATM    7  C   UNK N   1      34.815  12.235  13.306  0.00  0.00     0.135 C 
HETATM    8  C   UNK N   1      34.173  11.547  14.508  0.00  0.00     0.073 C 
HETATM    9  C   UNK N   1      35.285  11.136  15.448  0.00  0.00     0.223 C 
HETATM   10  N   UNK N   1      36.053  12.296  15.832  0.00  0.00    -0.316 N 
HETATM   11  C   UNK N   1      36.302  13.304  14.955  0.00  0.00     0.322 C 
HETATM   12  H   UNK N   1      36.404  12.358  16.749  0.00  0.00     0.166 HD
HETATM   13  O   UNK N   1      37.038  14.215  15.298  0.00  0.00    -0.247 OA
BRANCH   9  14
HETATM   14  O   UNK N   1      34.765  10.512  16.581  0.00  0.00    -0.377 OA
HETATM   15  H   UNK N   1      35.153  10.526  17.470  0.00  0.00     0.212 HD
ENDBRANCH   9  14
ENDBRANCH   1   6
BRANCH   2  16
HETATM   16  O   UNK N   1      37.927  13.417  11.537  0.00  0.00    -0.388 OA
HETATM   17  H   UNK N   1      38.543  13.533  10.797  0.00  0.00     0.210 HD
ENDBRANCH   2  16
BRANCH   3  18
HETATM   18  O   UNK N   1      37.298  15.873  10.672  0.00  0.00    -0.390 OA
HETATM   19  H   UNK N   1      37.568  16.360  11.465  0.00  0.00     0.210 HD
ENDBRANCH   3  18
BRANCH   4  20
HETATM   20  C   UNK N   1      33.836  14.724  10.283  0.00  0.00     0.198 C 
BRANCH  20  21
HETATM   21  O   UNK N   1      32.644  15.037  10.936  0.00  0.00    -0.398 OA
HETATM   22  H   UNK N   1      32.626  15.241  11.884  0.00  0.00     0.209 HD
ENDBRANCH  20  21
ENDBRANCH   4  20
TORSDOF 6
ENDMDL
MODEL 2
REMARK VINA RESULT:      -5.8      2.691      3.882
REMARK  6 active torsions:
REMARK  status: ('A' for Active; 'I' for Inactive)
REMARK    1  A    between atoms: C_9  and  N_3 
REMARK    2  A    between atoms: C_7  and  O_8 
REMARK    3  A    between atoms: C_10  and  O_17 
REMARK    4  A    between atoms: C_11  and  O_16 
REMARK    5  A    between atoms: C_12  and  C_14 
REMARK    6  A    between atoms: C_14  and  O_15 
ROOT
HETATM    1  C   UNK N   1      35.447  13.458  15.828  0.00  0.00     0.259 C 
HETATM    2  C   UNK N   1      36.778  13.316  15.138  0.00  0.00     0.198 C 
HETATM    3  C   UNK N   1      36.379  13.571  13.712  0.00  0.00     0.182 C 
HETATM    4  C   UNK N   1      35.026  12.876  13.683  0.00  0.00     0.179 C 
HETATM    5  O   UNK N   1      34.447  12.947  14.975  0.00  0.00    -0.354 OA
ENDROOT
BRANCH   1   6
HETATM    6  N   UNK N   1      35.431  12.852  17.153  0.00  0.00    -0.305 N 
HETATM    7  C   UNK N   1      35.546  11.403  17.216  0.00  0.00     0.135 C 
HETATM    8  C   UNK N   1      35.014  10.834  18.529  0.00  0.00     0.073 C 
HETATM    9  C   UNK N   1      35.673  11.597  19.658  0.00  0.00     0.223 C 
HETATM   10  N   UNK N   1      35.393  13.006  19.523  0.00  0.00    -0.316 N 
HETATM   11  C   UNK N   1      35.330  13.604  18.303  0.00  0.00     0.322 C 
HETATM   12  H   UNK N   1      35.244  13.546  20.332  0.00  0.00     0.166 HD
HETATM   13  O   UNK N   1      35.188  14.814  18.247  0.00  0.00    -0.247 OA
BRANCH   9  14
HETATM   14  O   UNK N   1      35.219  11.136  20.893  0.00  0.00    -0.377 OA
HETATM   15  H   UNK N   1      34.291  11.063  21.169  0.00  0.00     0.212 HD
ENDBRANCH   9  14
ENDBRANCH   1   6
BRANCH   2  16
HETATM   16  O   UNK N   1      37.687  14.269  15.607  0.00  0.00    -0.388 OA
HETATM   17  H   UNK N   1      38.592  14.028  15.861  0.00  0.00     0.210 HD
ENDBRANCH   2  16
BRANCH   3  18
HETATM   18  O   UNK N   1      36.177  14.939  13.498  0.00  0.00    -0.390 OA
HETATM   19  H   UNK N   1      35.481  15.421  13.025  0.00  0.00     0.210 HD
ENDBRANCH   3  18
BRANCH   4  20
HETATM   20  C   UNK N   1      35.163  11.423  13.253  0.00  0.00     0.198 C 
BRANCH  20  21
HETATM   21  O   UNK N   1      33.915  10.924  12.878  0.00  0.00    -0.398 OA
HETATM   22  H   UNK N   1      33.773   9.976  12.735  0.00  0.00     0.209 HD
ENDBRANCH  20  21
ENDBRANCH   4  20
TORSDOF 6
ENDMDL
MODEL 3
REMARK VINA RESULT:      -5.7      1.660      2.000
REMARK  6 active torsions:
REMARK  status: ('A' for Active; 'I' for Inactive)
REMARK    1  A    between atoms: C_9  and  N_3 
REMARK    2  A    between atoms: C_7  and  O_8 
REMARK    3  A    between atoms: C_10  and  O_17 
REMARK    4  A    between atoms: C_11  and  O_16 
REMARK    5  A    between atoms: C_12  and  C_14 
REMARK    6  A    between atoms: C_14  and  O_15 
ROOT
HETATM    1  C   UNK N   1      35.141  14.885  11.820  0.00  0.00     0.259 C 
HETATM    2  C   UNK N   1      35.978  15.227  10.617  0.00  0.00     0.198 C 
HETATM    3  C   UNK N   1      34.960  15.928   9.761  0.00  0.00     0.182 C 
HETATM    4  C   UNK N   1      33.729  15.086  10.064  0.00  0.00     0.179 C 
HETATM    5  O   UNK N   1      33.836  14.576  11.382  0.00  0.00    -0.354 OA
ENDROOT
BRANCH   1   6
HETATM    6  N   UNK N   1      35.731  13.835  12.638  0.00  0.00    -0.305 N 
HETATM    7  C   UNK N   1      35.495  12.461  12.218  0.00  0.00     0.135 C 
HETATM    8  C   UNK N   1      35.685  11.464  13.359  0.00  0.00     0.073 C 
HETATM    9  C   UNK N   1      37.034  11.738  13.986  0.00  0.00     0.223 C 
HETATM   10  N   UNK N   1      37.090  13.106  14.445  0.00  0.00    -0.316 N 
HETATM   11  C   UNK N   1      36.496  14.112  13.751  0.00  0.00     0.322 C 
HETATM   12  H   UNK N   1      37.570  13.313  15.279  0.00  0.00     0.166 HD
HETATM   13  O   UNK N   1      36.655  15.261  14.127  0.00  0.00    -0.247 OA
BRANCH   9  14
HETATM   14  O   UNK N   1      37.267  10.868  15.051  0.00  0.00    -0.377 OA
HETATM   15  H   UNK N   1      37.869  10.107  15.046  0.00  0.00     0.212 HD
ENDBRANCH   9  14
ENDBRANCH   1   6
BRANCH   2  16
HETATM   16  O   UNK N   1      37.037  16.068  10.967  0.00  0.00    -0.388 OA
HETATM   17  H   UNK N   1      37.954  15.751  10.990  0.00  0.00     0.210 HD
ENDBRANCH   2  16
BRANCH   3  18
HETATM   18  O   UNK N   1      34.735  17.225  10.235  0.00  0.00    -0.390 OA
HETATM   19  H   UNK N   1      35.259  17.799  10.815  0.00  0.00     0.210 HD
ENDBRANCH   3  18
BRANCH   4  20
HETATM   20  C   UNK N   1      33.588  13.941   9.072  0.00  0.00     0.198 C 
BRANCH  20  21
HETATM   21  O   UNK N   1      32.328  13.357   9.204  0.00  0.00    -0.398 OA
HETATM   22  H   UNK N   1      32.228  12.421   9.436  0.00  0.00     0.209 HD
ENDBRANCH  20  21
ENDBRANCH   4  20
TORSDOF 6
ENDMDL
MODEL 4
REMARK VINA RESULT:      -5.7      5.964      8.631
REMARK  6 active torsions:
REMARK  status: ('A' for Active; 'I' for Inactive)
REMARK    1  A    between atoms: C_9  and  N_3 
REMARK    2  A    between atoms: C_7  and  O_8 
REMARK    3  A    between atoms: C_10  and  O_17 
REMARK    4  A    between atoms: C_11  and  O_16 
REMARK    5  A    between atoms: C_12  and  C_14 
REMARK    6  A    between atoms: C_14  and  O_15 
ROOT
HETATM    1  C   UNK N   1      31.946  17.395   8.807  0.00  0.00     0.259 C 
HETATM    2  C   UNK N   1      32.346  15.946   8.887  0.00  0.00     0.198 C 
HETATM    3  C   UNK N   1      33.835  16.077   9.045  0.00  0.00     0.182 C 
HETATM    4  C   UNK N   1      34.099  17.260   8.125  0.00  0.00     0.179 C 
HETATM    5  O   UNK N   1      32.955  18.097   8.116  0.00  0.00    -0.354 OA
ENDROOT
BRANCH   1   6
HETATM    6  N   UNK N   1      30.622  17.584   8.229  0.00  0.00    -0.305 N 
HETATM    7  C   UNK N   1      30.378  16.979   6.929  0.00  0.00     0.135 C 
HETATM    8  C   UNK N   1      29.212  17.634   6.192  0.00  0.00     0.073 C 
HETATM    9  C   UNK N   1      28.031  17.661   7.138  0.00  0.00     0.223 C 
HETATM   10  N   UNK N   1      28.386  18.376   8.340  0.00  0.00    -0.316 N 
HETATM   11  C   UNK N   1      29.630  18.285   8.880  0.00  0.00     0.322 C 
HETATM   12  H   UNK N   1      27.711  18.943   8.779  0.00  0.00     0.166 HD
HETATM   13  O   UNK N   1      29.850  18.830   9.949  0.00  0.00    -0.247 OA
BRANCH   9  14
HETATM   14  O   UNK N   1      26.930  18.264   6.531  0.00  0.00    -0.377 OA
HETATM   15  H   UNK N   1      26.626  18.116   5.621  0.00  0.00     0.212 HD
ENDBRANCH   9  14
ENDBRANCH   1   6
BRANCH   2  16
HETATM   16  O   UNK N   1      31.754  15.325   9.990  0.00  0.00    -0.388 OA
HETATM   17  H   UNK N   1      31.749  14.360  10.090  0.00  0.00     0.210 HD
ENDBRANCH   2  16
BRANCH   3  18
HETATM   18  O   UNK N   1      34.155  16.456  10.354  0.00  0.00    -0.390 OA
HETATM   19  H   UNK N   1      34.338  15.932  11.149  0.00  0.00     0.210 HD
ENDBRANCH   3  18
BRANCH   4  20
HETATM   20  C   UNK N   1      34.417  16.797   6.711  0.00  0.00     0.198 C 
BRANCH  20  21
HETATM   21  O   UNK N   1      34.088  17.803   5.802  0.00  0.00    -0.398 OA
HETATM   22  H   UNK N   1      33.179  17.915   5.481  0.00  0.00     0.209 HD
ENDBRANCH  20  21
ENDBRANCH   4  20
TORSDOF 6
ENDMDL
MODEL 5
REMARK VINA RESULT:      -5.7      3.956      6.974
REMARK  6 active torsions:
REMARK  status: ('A' for Active; 'I' for Inactive)
REMARK    1  A    between atoms: C_9  and  N_3 
REMARK    2  A    between atoms: C_7  and  O_8 
REMARK    3  A    between atoms: C_10  and  O_17 
REMARK    4  A    between atoms: C_11  and  O_16 
REMARK    5  A    between atoms: C_12  and  C_14 
REMARK    6  A    between atoms: C_14  and  O_15 
ROOT
HETATM    1  C   UNK N   1      35.022  15.731   8.881  0.00  0.00     0.259 C 
HETATM    2  C   UNK N   1      34.989  16.322  10.265  0.00  0.00     0.198 C 
HETATM    3  C   UNK N   1      35.991  15.446  10.965  0.00  0.00     0.182 C 
HETATM    4  C   UNK N   1      35.676  14.107  10.314  0.00  0.00     0.179 C 
HETATM    5  O   UNK N   1      35.205  14.337   8.998  0.00  0.00    -0.354 OA
ENDROOT
BRANCH   1   6
HETATM    6  N   UNK N   1      33.853  16.087   8.088  0.00  0.00    -0.305 N 
HETATM    7  C   UNK N   1      32.718  15.178   8.141  0.00  0.00     0.135 C 
HETATM    8  C   UNK N   1      31.791  15.334   6.937  0.00  0.00     0.073 C 
HETATM    9  C   UNK N   1      31.453  16.803   6.808  0.00  0.00     0.223 C 
HETATM   10  N   UNK N   1      32.666  17.572   6.664  0.00  0.00    -0.316 N 
HETATM   11  C   UNK N   1      33.802  17.237   7.331  0.00  0.00     0.322 C 
HETATM   12  H   UNK N   1      32.670  18.356   6.068  0.00  0.00     0.166 HD
HETATM   13  O   UNK N   1      34.771  17.975   7.251  0.00  0.00    -0.247 OA
BRANCH   9  14
HETATM   14  O   UNK N   1      30.618  17.020   5.713  0.00  0.00    -0.377 OA
HETATM   15  H   UNK N   1      29.670  16.814   5.667  0.00  0.00     0.212 HD
ENDBRANCH   9  14
ENDBRANCH   1   6
BRANCH   2  16
HETATM   16  O   UNK N   1      35.388  17.662  10.245  0.00  0.00    -0.388 OA
HETATM   17  H   UNK N   1      36.253  17.931   9.897  0.00  0.00     0.210 HD
ENDBRANCH   2  16
BRANCH   3  18
HETATM   18  O   UNK N   1      37.294  15.814  10.609  0.00  0.00    -0.390 OA
HETATM   19  H   UNK N   1      37.865  16.536  10.914  0.00  0.00     0.210 HD
ENDBRANCH   3  18
BRANCH   4  20
HETATM   20  C   UNK N   1      34.635  13.338  11.114  0.00  0.00     0.198 C 
BRANCH  20  21
HETATM   21  O   UNK N   1      34.609  13.811  12.426  0.00  0.00    -0.398 OA
HETATM   22  H   UNK N   1      34.671  13.206  13.182  0.00  0.00     0.209 HD
ENDBRANCH  20  21
ENDBRANCH   4  20
TORSDOF 6
ENDMDL
MODEL 6
REMARK VINA RESULT:      -5.5      5.383      8.291
REMARK  6 active torsions:
REMARK  status: ('A' for Active; 'I' for Inactive)
REMARK    1  A    between atoms: C_9  and  N_3 
REMARK    2  A    between atoms: C_7  and  O_8 
REMARK    3  A    between atoms: C_10  and  O_17 
REMARK    4  A    between atoms: C_11  and  O_16 
REMARK    5  A    between atoms: C_12  and  C_14 
REMARK    6  A    between atoms: C_14  and  O_15 
ROOT
HETATM    1  C   UNK N   1      32.410  16.442   7.566  0.00  0.00     0.259 C 
HETATM    2  C   UNK N   1      33.607  17.329   7.776  0.00  0.00     0.198 C 
HETATM    3  C   UNK N   1      34.696  16.301   7.904  0.00  0.00     0.182 C 
HETATM    4  C   UNK N   1      33.955  15.221   8.680  0.00  0.00     0.179 C 
HETATM    5  O   UNK N   1      32.581  15.274   8.339  0.00  0.00    -0.354 OA
ENDROOT
BRANCH   1   6
HETATM    6  N   UNK N   1      31.150  17.122   7.832  0.00  0.00    -0.305 N 
HETATM    7  C   UNK N   1      31.152  18.125   8.886  0.00  0.00     0.135 C 
HETATM    8  C   UNK N   1      29.753  18.395   9.435  0.00  0.00     0.073 C 
HETATM    9  C   UNK N   1      28.847  18.680   8.257  0.00  0.00     0.223 C 
HETATM   10  N   UNK N   1      28.867  17.561   7.345  0.00  0.00    -0.316 N 
HETATM   11  C   UNK N   1      30.004  16.852   7.116  0.00  0.00     0.322 C 
HETATM   12  H   UNK N   1      28.038  17.306   6.879  0.00  0.00     0.166 HD
HETATM   13  O   UNK N   1      29.992  15.979   6.264  0.00  0.00    -0.247 OA
BRANCH   9  14
HETATM   14  O   UNK N   1      27.543  18.921   8.688  0.00  0.00    -0.377 OA
HETATM   15  H   UNK N   1      27.161  19.788   8.897  0.00  0.00     0.212 HD
ENDBRANCH   9  14
ENDBRANCH   1   6
BRANCH   2  16
HETATM   16  O   UNK N   1      33.806  18.169   6.677  0.00  0.00    -0.388 OA
HETATM   17  H   UNK N   1      33.148  18.244   5.968  0.00  0.00     0.210 HD
ENDBRANCH   2  16
BRANCH   3  18
HETATM   18  O   UNK N   1      35.033  15.788   6.647  0.00  0.00    -0.390 OA
HETATM   19  H   UNK N   1      34.753  16.039   5.753  0.00  0.00     0.210 HD
ENDBRANCH   3  18
BRANCH   4  20
HETATM   20  C   UNK N   1      34.127  15.406  10.180  0.00  0.00     0.198 C 
BRANCH  20  21
HETATM   21  O   UNK N   1      32.936  15.084  10.832  0.00  0.00    -0.398 OA
HETATM   22  H   UNK N   1      32.733  15.436  11.713  0.00  0.00     0.209 HD
ENDBRANCH  20  21
ENDBRANCH   4  20
TORSDOF 6
ENDMDL
MODEL 7
REMARK VINA RESULT:      -5.3      3.417      5.097
REMARK  6 active torsions:
REMARK  status: ('A' for Active; 'I' for Inactive)
REMARK    1  A    between atoms: C_9  and  N_3 
REMARK    2  A    between atoms: C_7  and  O_8 
REMARK    3  A    between atoms: C_10  and  O_17 
REMARK    4  A    between atoms: C_11  and  O_16 
REMARK    5  A    between atoms: C_12  and  C_14 
REMARK    6  A    between atoms: C_14  and  O_15 
ROOT
HETATM    1  C   UNK N   1      34.446  16.764   8.430  0.00  0.00     0.259 C 
HETATM    2  C   UNK N   1      34.161  15.971   7.183  0.00  0.00     0.198 C 
HETATM    3  C   UNK N   1      33.253  16.920   6.452  0.00  0.00     0.182 C 
HETATM    4  C   UNK N   1      32.461  17.486   7.622  0.00  0.00     0.179 C 
HETATM    5  O   UNK N   1      33.283  17.481   8.777  0.00  0.00    -0.354 OA
ENDROOT
BRANCH   1   6
HETATM    6  N   UNK N   1      34.953  15.939   9.519  0.00  0.00    -0.305 N 
HETATM    7  C   UNK N   1      34.602  14.527   9.495  0.00  0.00     0.135 C 
HETATM    8  C   UNK N   1      34.715  13.876  10.872  0.00  0.00     0.073 C 
HETATM    9  C   UNK N   1      36.086  14.204  11.421  0.00  0.00     0.223 C 
HETATM   10  N   UNK N   1      36.257  15.637  11.481  0.00  0.00    -0.316 N 
HETATM   11  C   UNK N   1      35.744  16.453  10.523  0.00  0.00     0.322 C 
HETATM   12  H   UNK N   1      36.757  16.030  12.233  0.00  0.00     0.166 HD
HETATM   13  O   UNK N   1      35.999  17.645  10.567  0.00  0.00    -0.247 OA
BRANCH   9  14
HETATM   14  O   UNK N   1      36.252  13.651  12.690  0.00  0.00    -0.377 OA
HETATM   15  H   UNK N   1      36.850  13.975  13.382  0.00  0.00     0.212 HD
ENDBRANCH   9  14
ENDBRANCH   1   6
BRANCH   2  16
HETATM   16  O   UNK N   1      35.338  15.720   6.471  0.00  0.00    -0.388 OA
HETATM   17  H   UNK N   1      36.151  15.435   6.916  0.00  0.00     0.210 HD
ENDBRANCH   2  16
BRANCH   3  18
HETATM   18  O   UNK N   1      33.993  17.959   5.877  0.00  0.00    -0.390 OA
HETATM   19  H   UNK N   1      33.719  18.794   5.468  0.00  0.00     0.210 HD
ENDBRANCH   3  18
BRANCH   4  20
HETATM   20  C   UNK N   1      31.200  16.674   7.877  0.00  0.00     0.198 C 
BRANCH  20  21
HETATM   21  O   UNK N   1      31.021  16.503   9.250  0.00  0.00    -0.398 OA
HETATM   22  H   UNK N   1      31.298  17.183   9.883  0.00  0.00     0.209 HD
ENDBRANCH  20  21
ENDBRANCH   4  20
TORSDOF 6
ENDMDL
MODEL 8
REMARK VINA RESULT:      -5.3      6.784      9.245
REMARK  6 active torsions:
REMARK  status: ('A' for Active; 'I' for Inactive)
REMARK    1  A    between atoms: C_9  and  N_3 
REMARK    2  A    between atoms: C_7  and  O_8 
REMARK    3  A    between atoms: C_10  and  O_17 
REMARK    4  A    between atoms: C_11  and  O_16 
REMARK    5  A    between atoms: C_12  and  C_14 
REMARK    6  A    between atoms: C_14  and  O_15 
ROOT
HETATM    1  C   UNK N   1      29.863  17.140   7.890  0.00  0.00     0.259 C 
HETATM    2  C   UNK N   1      29.697  18.464   8.587  0.00  0.00     0.198 C 
HETATM    3  C   UNK N   1      28.207  18.639   8.499  0.00  0.00     0.182 C 
HETATM    4  C   UNK N   1      27.952  18.067   7.112  0.00  0.00     0.179 C 
HETATM    5  O   UNK N   1      28.920  17.067   6.844  0.00  0.00    -0.354 OA
ENDROOT
BRANCH   1   6
HETATM    6  N   UNK N   1      31.229  16.905   7.443  0.00  0.00    -0.305 N 
HETATM    7  C   UNK N   1      31.596  17.438   6.139  0.00  0.00     0.135 C 
HETATM    8  C   UNK N   1      32.812  16.731   5.544  0.00  0.00     0.073 C 
HETATM    9  C   UNK N   1      33.905  16.741   6.591  0.00  0.00     0.223 C 
HETATM   10  N   UNK N   1      33.434  16.095   7.793  0.00  0.00    -0.316 N 
HETATM   11  C   UNK N   1      32.149  16.229   8.214  0.00  0.00     0.322 C 
HETATM   12  H   UNK N   1      34.059  15.545   8.319  0.00  0.00     0.166 HD
HETATM   13  O   UNK N   1      31.827  15.744   9.287  0.00  0.00    -0.247 OA
BRANCH   9  14
HETATM   14  O   UNK N   1      35.045  16.094   6.117  0.00  0.00    -0.377 OA
HETATM   15  H   UNK N   1      35.286  15.969   5.185  0.00  0.00     0.212 HD
ENDBRANCH   9  14
ENDBRANCH   1   6
BRANCH   2  16
HETATM   16  O   UNK N   1      30.138  18.389   9.912  0.00  0.00    -0.388 OA
HETATM   17  H   UNK N   1      30.304  17.538  10.347  0.00  0.00     0.210 HD
ENDBRANCH   2  16
BRANCH   3  18
HETATM   18  O   UNK N   1      27.563  17.825   9.438  0.00  0.00    -0.390 OA
HETATM   19  H   UNK N   1      26.894  17.131   9.336  0.00  0.00     0.210 HD
ENDBRANCH   3  18
BRANCH   4  20
HETATM   20  C   UNK N   1      28.015  19.153   6.049  0.00  0.00     0.198 C 
BRANCH  20  21
HETATM   21  O   UNK N   1      27.486  20.339   6.558  0.00  0.00    -0.398 OA
HETATM   22  H   UNK N   1      27.753  21.203   6.205  0.00  0.00     0.209 HD
ENDBRANCH  20  21
ENDBRANCH   4  20
TORSDOF 6
ENDMDL
MODEL 9
REMARK VINA RESULT:      -5.2     18.670     20.916
REMARK  6 active torsions:
REMARK  status: ('A' for Active; 'I' for Inactive)
REMARK    1  A    between atoms: C_9  and  N_3 
REMARK    2  A    between atoms: C_7  and  O_8 
REMARK    3  A    between atoms: C_10  and  O_17 
REMARK    4  A    between atoms: C_11  and  O_16 
REMARK    5  A    between atoms: C_12  and  C_14 
REMARK    6  A    between atoms: C_14  and  O_15 
ROOT
HETATM    1  C   UNK N   1      28.944  24.225  -3.573  0.00  0.00     0.259 C 
HETATM    2  C   UNK N   1      28.889  25.065  -4.821  0.00  0.00     0.198 C 
HETATM    3  C   UNK N   1      27.650  25.873  -4.558  0.00  0.00     0.182 C 
HETATM    4  C   UNK N   1      26.783  24.822  -3.879  0.00  0.00     0.179 C 
HETATM    5  O   UNK N   1      27.623  23.913  -3.189  0.00  0.00    -0.354 OA
ENDROOT
BRANCH   1   6
HETATM    6  N   UNK N   1      29.788  23.047  -3.722  0.00  0.00    -0.305 N 
HETATM    7  C   UNK N   1      29.833  22.431  -5.039  0.00  0.00     0.135 C 
HETATM    8  C   UNK N   1      30.291  20.975  -4.984  0.00  0.00     0.073 C 
HETATM    9  C   UNK N   1      31.580  20.931  -4.193  0.00  0.00     0.223 C 
HETATM   10  N   UNK N   1      31.363  21.483  -2.876  0.00  0.00    -0.316 N 
HETATM   11  C   UNK N   1      30.530  22.539  -2.678  0.00  0.00     0.322 C 
HETATM   12  H   UNK N   1      31.828  21.085  -2.106  0.00  0.00     0.166 HD
HETATM   13  O   UNK N   1      30.457  23.030  -1.564  0.00  0.00    -0.247 OA
BRANCH   9  14
HETATM   14  O   UNK N   1      32.048  19.622  -4.090  0.00  0.00    -0.377 OA
HETATM   15  H   UNK N   1      31.915  18.914  -4.740  0.00  0.00     0.212 HD
ENDBRANCH   9  14
ENDBRANCH   1   6
BRANCH   2  16
HETATM   16  O   UNK N   1      30.026  25.870  -4.932  0.00  0.00    -0.388 OA
HETATM   17  H   UNK N   1      30.785  25.765  -4.337  0.00  0.00     0.210 HD
ENDBRANCH   2  16
BRANCH   3  18
HETATM   18  O   UNK N   1      27.917  26.889  -3.633  0.00  0.00    -0.390 OA
HETATM   19  H   UNK N   1      28.742  27.176  -3.213  0.00  0.00     0.210 HD
ENDBRANCH   3  18
BRANCH   4  20
HETATM   20  C   UNK N   1      25.929  24.076  -4.893  0.00  0.00     0.198 C 
BRANCH  20  21
HETATM   21  O   UNK N   1      25.120  24.981  -5.581  0.00  0.00    -0.398 OA
HETATM   22  H   UNK N   1      24.290  24.700  -5.996  0.00  0.00     0.209 HD
ENDBRANCH  20  21
ENDBRANCH   4  20
TORSDOF 6
ENDMDL
