MODEL 1
REMARK VINA RESULT:      -6.8      0.000      0.000
REMARK  17 active torsions:
REMARK  status: ('A' for Active; 'I' for Inactive)
REMARK    1  A    between atoms: C_3  and  C_2 
REMARK    2  A    between atoms: C_2  and  O_82 
REMARK    3  A    between atoms: C_7  and  C_75 
REMARK    4  A    between atoms: N_10  and  C_71 
REMARK    5  A    between atoms: C_23  and  C_64 
REMARK    6  A    between atoms: C_27  and  C_54 
REMARK    7  A    between atoms: C_31  and  C_44 
REMARK    8  A    between atoms: C_35  and  C_39 
REMARK    9  A    between atoms: C_39  and  C_40 
REMARK   10  A    between atoms: C_40  and  C_41 
REMARK   11  A    between atoms: C_41  and  C_42 
REMARK   12  A    between atoms: C_42  and  N_43 
REMARK   13  A    between atoms: C_44  and  C_45 
REMARK   14  A    between atoms: C_54  and  C_55 
REMARK   15  A    between atoms: C_64  and  C_65 
REMARK   16  A    between atoms: C_71  and  C_72 
REMARK       I    between atoms: C_72  and  N_74 
REMARK   17  A    between atoms: C_75  and  C_76 
ROOT
HETATM    1  C   UNK N   1      34.075  14.657   9.732  0.00  0.00     0.205 C 
HETATM    2  C   UNK N   1      33.187  15.606   9.048  0.00  0.00     0.243 C 
HETATM    3  O   UNK N   1      33.207  16.773   9.385  0.00  0.00    -0.271 OA
HETATM    4  N   UNK N   1      32.474  15.218   7.966  0.00  0.00    -0.346 N 
HETATM    5  C   UNK N   1      31.847  16.226   7.271  0.00  0.00     0.172 C 
HETATM    6  C   UNK N   1      31.883  16.330   5.806  0.00  0.00     0.223 C 
HETATM    7  O   UNK N   1      32.517  17.253   5.319  0.00  0.00    -0.277 OA
HETATM    8  N   UNK N   1      30.806  15.820   5.180  0.00  0.00    -0.243 NA
HETATM    9  C   UNK N   1      30.373  14.581   5.713  0.00  0.00     0.099 C 
HETATM   10  C   UNK N   1      30.899  13.627   4.846  0.00  0.00     0.024 C 
HETATM   11  C   UNK N   1      29.852  12.814   4.517  0.00  0.00     0.104 C 
HETATM   12  C   UNK N   1      29.740  13.392   3.231  0.00  0.00     0.217 C 
HETATM   13  O   UNK N   1      28.695  13.925   2.919  0.00  0.00    -0.274 OA
HETATM   14  N   UNK N   1      30.587  12.932   2.304  0.00  0.00    -0.361 N 
HETATM   15  C   UNK N   1      29.996  12.528   1.110  0.00  0.00     0.123 C 
HETATM   16  C   UNK N   1      28.900  11.602   1.613  0.00  0.00     0.029 C 
HETATM   17  C   UNK N   1      28.329  11.086   0.437  0.00  0.00     0.104 C 
HETATM   18  C   UNK N   1      29.141   9.906   0.104  0.00  0.00     0.218 C 
HETATM   19  O   UNK N   1      28.520   9.021  -0.433  0.00  0.00    -0.274 OA
HETATM   20  N   UNK N   1      30.339   9.594   0.712  0.00  0.00    -0.347 N 
HETATM   21  C   UNK N   1      31.696  10.059   0.358  0.00  0.00     0.180 C 
HETATM   22  C   UNK N   1      32.555  10.362   1.478  0.00  0.00     0.241 C 
HETATM   23  O   UNK N   1      33.266   9.454   1.859  0.00  0.00    -0.271 OA
HETATM   24  N   UNK N   1      32.857  11.673   1.779  0.00  0.00    -0.346 N 
HETATM   25  C   UNK N   1      33.794  12.522   1.015  0.00  0.00     0.181 C 
HETATM   26  C   UNK N   1      34.153  13.883   1.589  0.00  0.00     0.241 C 
HETATM   27  O   UNK N   1      34.967  14.580   0.993  0.00  0.00    -0.271 OA
HETATM   28  N   UNK N   1      33.945  14.163   2.875  0.00  0.00    -0.346 N 
HETATM   29  C   UNK N   1      33.780  13.099   3.814  0.00  0.00     0.177 C 
HETATM   30  C   UNK N   1      33.402  13.570   5.032  0.00  0.00     0.241 C 
HETATM   31  O   UNK N   1      33.769  14.703   5.337  0.00  0.00    -0.271 OA
HETATM   32  N   UNK N   1      33.007  12.575   5.904  0.00  0.00    -0.346 N 
HETATM   33  C   UNK N   1      33.520  12.274   7.226  0.00  0.00     0.176 C 
HETATM   34  C   UNK N   1      34.154  13.308   7.812  0.00  0.00     0.241 C 
HETATM   35  O   UNK N   1      34.889  14.053   7.212  0.00  0.00    -0.271 OA
HETATM   36  N   UNK N   1      33.883  13.431   9.099  0.00  0.00    -0.344 N 
HETATM   37  H   UNK N   1      32.408  14.274   7.695  0.00  0.00     0.163 HD
HETATM   38  H   UNK N   1      31.558  12.883   2.454  0.00  0.00     0.162 HD
HETATM   39  H   UNK N   1      30.283   8.983   1.481  0.00  0.00     0.163 HD
HETATM   40  H   UNK N   1      32.416  12.073   2.564  0.00  0.00     0.163 HD
HETATM   41  H   UNK N   1      33.906  15.100   3.177  0.00  0.00     0.163 HD
HETATM   42  H   UNK N   1      32.281  11.991   5.585  0.00  0.00     0.163 HD
HETATM   43  H   UNK N   1      33.548  12.658   9.609  0.00  0.00     0.163 HD
ENDROOT
BRANCH  25  44
HETATM   44  C   UNK N   1      35.128  11.977   1.189  0.00  0.00     0.075 C 
BRANCH  44  45
HETATM   45  C   UNK N   1      35.687  11.557  -0.061  0.00  0.00    -0.028 A 
HETATM   46  C   UNK N   1      35.866  12.243  -1.210  0.00  0.00     0.096 A 
HETATM   47  N   UNK N   1      36.560  11.405  -2.073  0.00  0.00    -0.365 N 
HETATM   48  C   UNK N   1      36.757  10.312  -1.402  0.00  0.00     0.042 A 
HETATM   49  H   UNK N   1      36.844  11.598  -2.996  0.00  0.00     0.165 HD
HETATM   50  C   UNK N   1      36.233  10.318  -0.201  0.00  0.00    -0.002 A 
HETATM   51  C   UNK N   1      37.458   9.089  -1.760  0.00  0.00     0.030 A 
HETATM   52  C   UNK N   1      36.265   9.307   0.594  0.00  0.00     0.014 A 
HETATM   53  C   UNK N   1      36.912   8.133   0.396  0.00  0.00     0.001 A 
HETATM   54  C   UNK N   1      37.535   8.025  -0.823  0.00  0.00     0.002 A 
ENDBRANCH  44  45
ENDBRANCH  25  44
BRANCH  21  55
HETATM   55  C   UNK N   1      32.006  11.090  -0.741  0.00  0.00     0.073 C 
BRANCH  55  56
HETATM   56  C   UNK N   1      32.082  10.354  -1.959  0.00  0.00    -0.056 C 
HETATM   57  C   UNK N   1      32.848   9.225  -1.800  0.00  0.00     0.007 C 
HETATM   58  C   UNK N   1      33.801   8.921  -2.747  0.00  0.00     0.001 C 
HETATM   59  C   UNK N   1      33.974   9.758  -3.851  0.00  0.00     0.000 C 
HETATM   60  C   UNK N   1      33.085  10.812  -4.086  0.00  0.00     0.001 C 
HETATM   61  C   UNK N   1      32.128  11.121  -3.131  0.00  0.00     0.007 C 
ENDBRANCH  55  56
ENDBRANCH  21  55
BRANCH  29  62
HETATM   62  C   UNK N   1      35.112  12.623   4.465  0.00  0.00     0.049 C 
BRANCH  62  63
HETATM   63  C   UNK N   1      36.468  13.406   3.916  0.00  0.00     0.061 C 
HETATM   64  C   UNK N   1      36.959  13.913   5.026  0.00  0.00     0.070 C 
HETATM   65  N   UNK N   1      37.337  12.813   5.658  0.00  0.00    -0.368 N 
HETATM   66  C   UNK N   1      37.474  11.907   4.696  0.00  0.00     0.038 C 
HETATM   67  H   UNK N   1      37.483  12.695   6.624  0.00  0.00     0.165 HD
HETATM   68  C   UNK N   1      37.372  12.411   3.561  0.00  0.00    -0.022 C 
HETATM   69  C   UNK N   1      37.491  10.478   4.711  0.00  0.00     0.030 C 
HETATM   70  C   UNK N   1      38.411  12.079   2.685  0.00  0.00     0.010 C 
HETATM   71  C   UNK N   1      38.852  10.720   2.767  0.00  0.00     0.001 C 
HETATM   72  C   UNK N   1      38.154   9.872   3.666  0.00  0.00     0.002 C 
ENDBRANCH  62  63
ENDBRANCH  29  62
BRANCH  33  73
HETATM   73  C   UNK N   1      34.282  10.980   7.668  0.00  0.00     0.035 C 
BRANCH  73  74
HETATM   74  C   UNK N   1      34.265   9.792   6.609  0.00  0.00     0.004 C 
BRANCH  74  75
HETATM   75  C   UNK N   1      33.126   8.730   6.522  0.00  0.00     0.019 C 
BRANCH  75  76
HETATM   76  C   UNK N   1      31.720   9.145   6.059  0.00  0.00     0.111 C 
BRANCH  76  77
HETATM   77  N   UNK N   1      30.813   9.312   7.187  0.00  0.00    -0.430 N 
HETATM   78  H   UNK N   1      30.047   8.750   7.558  0.00  0.00     0.149 HD
HETATM   79  H   UNK N   1      30.978  10.169   7.715  0.00  0.00     0.149 HD
ENDBRANCH  76  77
ENDBRANCH  75  76
ENDBRANCH  74  75
ENDBRANCH  73  74
ENDBRANCH  33  73
BRANCH   1  80
HETATM   80  C   UNK N   1      35.533  15.157   9.706  0.00  0.00     0.146 C 
HETATM   81  C   UNK N   1      36.062  16.062  10.818  0.00  0.00     0.042 C 
BRANCH  80  82
HETATM   82  O   UNK N   1      36.282  14.023   9.869  0.00  0.00    -0.393 OA
HETATM   83  H   UNK N   1      37.149  14.041  10.304  0.00  0.00     0.210 HD
ENDBRANCH  80  82
ENDBRANCH   1  80
BRANCH   5  84
HETATM   84  C   UNK N   1      30.478  16.262   7.758  0.00  0.00     0.046 C 
BRANCH  84  85
HETATM   85  C   UNK N   1      30.411  17.462   8.521  0.00  0.00     0.033 C 
HETATM   86  C   UNK N   1      29.868  17.172   9.775  0.00  0.00    -0.018 C 
HETATM   87  C   UNK N   1      28.563  17.495  10.012  0.00  0.00    -0.003 C 
HETATM   88  C   UNK N   1      27.884  18.255   9.062  0.00  0.00    -0.001 C 
HETATM   89  C   UNK N   1      28.562  18.794   7.961  0.00  0.00    -0.003 C 
HETATM   90  C   UNK N   1      29.853  18.406   7.703  0.00  0.00    -0.018 C 
ENDBRANCH  84  85
ENDBRANCH   5  84
BRANCH   8  91
HETATM   91  C   UNK N   1      29.740  16.777   4.977  0.00  0.00     0.201 C 
BRANCH  91  92
HETATM   92  C   UNK N   1      29.207  16.902   3.596  0.00  0.00     0.228 C 
HETATM   93  O   UNK N   1      28.071  17.312   3.376  0.00  0.00    -0.272 OA
HETATM   94  N   UNK N   1      30.091  16.812   2.597  0.00  0.00    -0.369 N 
HETATM   95  H   UNK N   1      30.843  16.204   2.417  0.00  0.00     0.159 HD
HETATM   96  H   UNK N   1      29.964  17.495   1.900  0.00  0.00     0.159 HD
ENDBRANCH  91  92
ENDBRANCH   8  91
TORSDOF 17
ENDMDL
MODEL 2
REMARK VINA RESULT:      -6.6      5.015      9.221
REMARK  17 active torsions:
REMARK  status: ('A' for Active; 'I' for Inactive)
REMARK    1  A    between atoms: C_3  and  C_2 
REMARK    2  A    between atoms: C_2  and  O_82 
REMARK    3  A    between atoms: C_7  and  C_75 
REMARK    4  A    between atoms: N_10  and  C_71 
REMARK    5  A    between atoms: C_23  and  C_64 
REMARK    6  A    between atoms: C_27  and  C_54 
REMARK    7  A    between atoms: C_31  and  C_44 
REMARK    8  A    between atoms: C_35  and  C_39 
REMARK    9  A    between atoms: C_39  and  C_40 
REMARK   10  A    between atoms: C_40  and  C_41 
REMARK   11  A    between atoms: C_41  and  C_42 
REMARK   12  A    between atoms: C_42  and  N_43 
REMARK   13  A    between atoms: C_44  and  C_45 
REMARK   14  A    between atoms: C_54  and  C_55 
REMARK   15  A    between atoms: C_64  and  C_65 
REMARK   16  A    between atoms: C_71  and  C_72 
REMARK       I    between atoms: C_72  and  N_74 
REMARK   17  A    between atoms: C_75  and  C_76 
ROOT
HETATM    1  C   UNK N   1      21.624  15.542   6.531  0.00  0.00     0.205 C 
HETATM    2  C   UNK N   1      21.471  15.298   5.090  0.00  0.00     0.243 C 
HETATM    3  O   UNK N   1      20.626  15.920   4.478  0.00  0.00    -0.271 OA
HETATM    4  N   UNK N   1      22.351  14.509   4.432  0.00  0.00    -0.346 N 
HETATM    5  C   UNK N   1      22.251  14.519   3.061  0.00  0.00     0.172 C 
HETATM    6  C   UNK N   1      23.418  14.634   2.174  0.00  0.00     0.223 C 
HETATM    7  O   UNK N   1      23.546  15.667   1.537  0.00  0.00    -0.277 OA
HETATM    8  N   UNK N   1      23.880  13.462   1.699  0.00  0.00    -0.243 NA
HETATM    9  C   UNK N   1      23.926  12.433   2.671  0.00  0.00     0.099 C 
HETATM   10  C   UNK N   1      25.257  12.398   3.076  0.00  0.00     0.024 C 
HETATM   11  C   UNK N   1      25.632  11.086   2.992  0.00  0.00     0.104 C 
HETATM   12  C   UNK N   1      26.376  11.320   1.813  0.00  0.00     0.217 C 
HETATM   13  O   UNK N   1      26.075  10.717   0.803  0.00  0.00    -0.274 OA
HETATM   14  N   UNK N   1      27.605  11.818   1.982  0.00  0.00    -0.361 N 
HETATM   15  C   UNK N   1      28.620  11.128   1.326  0.00  0.00     0.123 C 
HETATM   16  C   UNK N   1      28.350   9.699   1.770  0.00  0.00     0.029 C 
HETATM   17  C   UNK N   1      29.410   8.966   1.211  0.00  0.00     0.104 C 
HETATM   18  C   UNK N   1      30.494   9.045   2.202  0.00  0.00     0.218 C 
HETATM   19  O   UNK N   1      31.195   8.063   2.239  0.00  0.00    -0.274 OA
HETATM   20  N   UNK N   1      30.485   9.889   3.293  0.00  0.00    -0.347 N 
HETATM   21  C   UNK N   1      30.932  11.295   3.370  0.00  0.00     0.180 C 
HETATM   22  C   UNK N   1      30.103  12.162   4.173  0.00  0.00     0.241 C 
HETATM   23  O   UNK N   1      30.436  12.283   5.335  0.00  0.00    -0.271 OA
HETATM   24  N   UNK N   1      29.297  13.100   3.566  0.00  0.00    -0.346 N 
HETATM   25  C   UNK N   1      29.775  14.359   2.956  0.00  0.00     0.181 C 
HETATM   26  C   UNK N   1      28.736  15.367   2.494  0.00  0.00     0.241 C 
HETATM   27  O   UNK N   1      29.115  16.438   2.031  0.00  0.00    -0.271 OA
HETATM   28  N   UNK N   1      27.480  15.311   2.935  0.00  0.00    -0.346 N 
HETATM   29  C   UNK N   1      27.182  14.594   4.133  0.00  0.00     0.177 C 
HETATM   30  C   UNK N   1      25.840  14.494   4.328  0.00  0.00     0.241 C 
HETATM   31  O   UNK N   1      25.136  15.395   3.875  0.00  0.00    -0.271 OA
HETATM   32  N   UNK N   1      25.498  13.618   5.339  0.00  0.00    -0.346 N 
HETATM   33  C   UNK N   1      24.702  13.870   6.524  0.00  0.00     0.176 C 
HETATM   34  C   UNK N   1      23.890  14.940   6.417  0.00  0.00     0.241 C 
HETATM   35  O   UNK N   1      24.227  15.969   5.884  0.00  0.00    -0.271 OA
HETATM   36  N   UNK N   1      22.693  14.748   6.940  0.00  0.00    -0.344 N 
HETATM   37  H   UNK N   1      23.019  13.963   4.906  0.00  0.00     0.163 HD
HETATM   38  H   UNK N   1      27.780  12.617   2.532  0.00  0.00     0.162 HD
HETATM   39  H   UNK N   1      30.135   9.505   4.129  0.00  0.00     0.163 HD
HETATM   40  H   UNK N   1      28.330  12.919   3.537  0.00  0.00     0.163 HD
HETATM   41  H   UNK N   1      26.760  15.763   2.437  0.00  0.00     0.163 HD
HETATM   42  H   UNK N   1      25.842  12.701   5.243  0.00  0.00     0.163 HD
HETATM   43  H   UNK N   1      22.558  14.047   7.618  0.00  0.00     0.163 HD
ENDROOT
BRANCH  25  44
HETATM   44  C   UNK N   1      30.277  15.205   4.025  0.00  0.00     0.075 C 
BRANCH  44  45
HETATM   45  C   UNK N   1      31.704  15.323   3.969  0.00  0.00    -0.028 A 
HETATM   46  C   UNK N   1      32.521  15.533   2.915  0.00  0.00     0.096 A 
HETATM   47  N   UNK N   1      33.803  15.688   3.428  0.00  0.00    -0.365 N 
HETATM   48  C   UNK N   1      33.672  15.578   4.713  0.00  0.00     0.042 A 
HETATM   49  H   UNK N   1      34.633  15.847   2.923  0.00  0.00     0.165 HD
HETATM   50  C   UNK N   1      32.449  15.326   5.109  0.00  0.00    -0.002 A 
HETATM   51  C   UNK N   1      34.652  15.688   5.782  0.00  0.00     0.030 A 
HETATM   52  C   UNK N   1      32.126  15.121   6.337  0.00  0.00     0.014 A 
HETATM   53  C   UNK N   1      32.932  15.229   7.421  0.00  0.00     0.001 A 
HETATM   54  C   UNK N   1      34.240  15.529   7.132  0.00  0.00     0.002 A 
ENDBRANCH  44  45
ENDBRANCH  25  44
BRANCH  21  55
HETATM   55  C   UNK N   1      31.419  12.122   2.167  0.00  0.00     0.073 C 
BRANCH  55  56
HETATM   56  C   UNK N   1      32.777  11.744   1.956  0.00  0.00    -0.056 C 
HETATM   57  C   UNK N   1      33.473  11.738   3.141  0.00  0.00     0.007 C 
HETATM   58  C   UNK N   1      34.715  12.332   3.193  0.00  0.00     0.001 C 
HETATM   59  C   UNK N   1      35.248  12.927   2.048  0.00  0.00     0.000 C 
HETATM   60  C   UNK N   1      34.606  12.787   0.813  0.00  0.00     0.001 C 
HETATM   61  C   UNK N   1      33.354  12.193   0.761  0.00  0.00     0.007 C 
ENDBRANCH  55  56
ENDBRANCH  21  55
BRANCH  29  62
HETATM   62  C   UNK N   1      27.256  15.464   5.422  0.00  0.00     0.049 C 
BRANCH  62  63
HETATM   63  C   UNK N   1      28.114  16.875   5.255  0.00  0.00     0.061 C 
HETATM   64  C   UNK N   1      27.156  17.755   5.063  0.00  0.00     0.070 C 
HETATM   65  N   UNK N   1      26.575  17.756   6.253  0.00  0.00    -0.368 N 
HETATM   66  C   UNK N   1      27.506  17.291   7.079  0.00  0.00     0.038 C 
HETATM   67  H   UNK N   1      25.659  18.038   6.475  0.00  0.00     0.165 HD
HETATM   68  C   UNK N   1      28.613  17.175   6.517  0.00  0.00    -0.022 C 
HETATM   69  C   UNK N   1      27.438  16.704   8.380  0.00  0.00     0.030 C 
HETATM   70  C   UNK N   1      29.677  17.766   7.207  0.00  0.00     0.010 C 
HETATM   71  C   UNK N   1      29.636  17.597   8.628  0.00  0.00     0.001 C 
HETATM   72  C   UNK N   1      28.575  16.812   9.151  0.00  0.00     0.002 C 
ENDBRANCH  62  63
ENDBRANCH  29  62
BRANCH  33  73
HETATM   73  C   UNK N   1      25.187  13.830   8.011  0.00  0.00     0.035 C 
BRANCH  73  74
HETATM   74  C   UNK N   1      24.540  12.681   8.901  0.00  0.00     0.004 C 
BRANCH  74  75
HETATM   75  C   UNK N   1      24.682  12.608  10.453  0.00  0.00     0.019 C 
BRANCH  75  76
HETATM   76  C   UNK N   1      23.586  11.937  11.297  0.00  0.00     0.111 C 
BRANCH  76  77
HETATM   77  N   UNK N   1      23.687  12.313  12.702  0.00  0.00    -0.430 N 
HETATM   78  H   UNK N   1      23.221  13.017  13.272  0.00  0.00     0.149 HD
HETATM   79  H   UNK N   1      24.366  11.755  13.220  0.00  0.00     0.149 HD
ENDBRANCH  76  77
ENDBRANCH  75  76
ENDBRANCH  74  75
ENDBRANCH  73  74
ENDBRANCH  33  73
BRANCH   1  80
HETATM   80  C   UNK N   1      21.812  17.045   6.813  0.00  0.00     0.146 C 
HETATM   81  C   UNK N   1      21.587  18.076   5.706  0.00  0.00     0.042 C 
BRANCH  80  82
HETATM   82  O   UNK N   1      20.818  17.349   7.704  0.00  0.00    -0.393 OA
HETATM   83  H   UNK N   1      20.996  17.458   8.651  0.00  0.00     0.210 HD
ENDBRANCH  80  82
ENDBRANCH   1  80
BRANCH   5  84
HETATM   84  C   UNK N   1      21.445  13.363   2.705  0.00  0.00     0.046 C 
BRANCH  84  85
HETATM   85  C   UNK N   1      20.142  13.897   2.500  0.00  0.00     0.033 C 
HETATM   86  C   UNK N   1      19.204  13.042   3.086  0.00  0.00    -0.018 C 
HETATM   87  C   UNK N   1      18.487  12.208   2.278  0.00  0.00    -0.003 C 
HETATM   88  C   UNK N   1      18.591  12.367   0.898  0.00  0.00    -0.001 C 
HETATM   89  C   UNK N   1      19.302  13.447   0.355  0.00  0.00    -0.003 C 
HETATM   90  C   UNK N   1      20.070  14.234   1.176  0.00  0.00    -0.018 C 
ENDBRANCH  84  85
ENDBRANCH   5  84
BRANCH   8  91
HETATM   91  C   UNK N   1      23.276  13.061   0.446  0.00  0.00     0.201 C 
BRANCH  91  92
HETATM   92  C   UNK N   1      22.978  11.616   0.280  0.00  0.00     0.228 C 
HETATM   93  O   UNK N   1      21.977  11.101   0.770  0.00  0.00    -0.272 OA
HETATM   94  N   UNK N   1      23.688  10.954  -0.640  0.00  0.00    -0.369 N 
HETATM   95  H   UNK N   1      24.644  10.942  -0.870  0.00  0.00     0.159 HD
HETATM   96  H   UNK N   1      23.141  10.358  -1.202  0.00  0.00     0.159 HD
ENDBRANCH  91  92
ENDBRANCH   8  91
TORSDOF 17
ENDMDL
MODEL 3
REMARK VINA RESULT:      -6.5      6.642     11.760
REMARK  17 active torsions:
REMARK  status: ('A' for Active; 'I' for Inactive)
REMARK    1  A    between atoms: C_3  and  C_2 
REMARK    2  A    between atoms: C_2  and  O_82 
REMARK    3  A    between atoms: C_7  and  C_75 
REMARK    4  A    between atoms: N_10  and  C_71 
REMARK    5  A    between atoms: C_23  and  C_64 
REMARK    6  A    between atoms: C_27  and  C_54 
REMARK    7  A    between atoms: C_31  and  C_44 
REMARK    8  A    between atoms: C_35  and  C_39 
REMARK    9  A    between atoms: C_39  and  C_40 
REMARK   10  A    between atoms: C_40  and  C_41 
REMARK   11  A    between atoms: C_41  and  C_42 
REMARK   12  A    between atoms: C_42  and  N_43 
REMARK   13  A    between atoms: C_44  and  C_45 
REMARK   14  A    between atoms: C_54  and  C_55 
REMARK   15  A    between atoms: C_64  and  C_65 
REMARK   16  A    between atoms: C_71  and  C_72 
REMARK       I    between atoms: C_72  and  N_74 
REMARK   17  A    between atoms: C_75  and  C_76 
ROOT
HETATM    1  C   UNK N   1      20.856  16.843   2.471  0.00  0.00     0.205 C 
HETATM    2  C   UNK N   1      21.975  17.234   3.340  0.00  0.00     0.243 C 
HETATM    3  O   UNK N   1      21.841  18.197   4.068  0.00  0.00    -0.271 OA
HETATM    4  N   UNK N   1      23.072  16.450   3.438  0.00  0.00    -0.346 N 
HETATM    5  C   UNK N   1      23.960  16.786   4.432  0.00  0.00     0.172 C 
HETATM    6  C   UNK N   1      24.557  15.797   5.340  0.00  0.00     0.223 C 
HETATM    7  O   UNK N   1      24.215  15.825   6.512  0.00  0.00    -0.277 OA
HETATM    8  N   UNK N   1      25.786  15.377   4.985  0.00  0.00    -0.243 NA
HETATM    9  C   UNK N   1      25.919  15.120   3.598  0.00  0.00     0.099 C 
HETATM   10  C   UNK N   1      25.791  13.739   3.487  0.00  0.00     0.024 C 
HETATM   11  C   UNK N   1      26.859  13.331   2.738  0.00  0.00     0.104 C 
HETATM   12  C   UNK N   1      27.524  12.813   3.873  0.00  0.00     0.217 C 
HETATM   13  O   UNK N   1      28.614  13.260   4.166  0.00  0.00    -0.274 OA
HETATM   14  N   UNK N   1      27.144  11.595   4.273  0.00  0.00    -0.361 N 
HETATM   15  C   UNK N   1      28.179  10.682   4.455  0.00  0.00     0.123 C 
HETATM   16  C   UNK N   1      28.932  10.811   3.140  0.00  0.00     0.029 C 
HETATM   17  C   UNK N   1      29.938   9.835   3.230  0.00  0.00     0.104 C 
HETATM   18  C   UNK N   1      29.319   8.600   2.727  0.00  0.00     0.218 C 
HETATM   19  O   UNK N   1      30.088   7.863   2.160  0.00  0.00    -0.274 OA
HETATM   20  N   UNK N   1      27.968   8.454   2.486  0.00  0.00    -0.347 N 
HETATM   21  C   UNK N   1      26.905   8.059   3.432  0.00  0.00     0.180 C 
HETATM   22  C   UNK N   1      25.657   8.770   3.289  0.00  0.00     0.241 C 
HETATM   23  O   UNK N   1      24.830   8.246   2.571  0.00  0.00    -0.271 OA
HETATM   24  N   UNK N   1      25.287   9.708   4.229  0.00  0.00    -0.346 N 
HETATM   25  C   UNK N   1      24.788   9.395   5.584  0.00  0.00     0.181 C 
HETATM   26  C   UNK N   1      24.251  10.540   6.428  0.00  0.00     0.241 C 
HETATM   27  O   UNK N   1      23.787  10.291   7.536  0.00  0.00    -0.271 OA
HETATM   28  N   UNK N   1      23.895  11.696   5.870  0.00  0.00    -0.346 N 
HETATM   29  C   UNK N   1      23.616  11.752   4.471  0.00  0.00     0.177 C 
HETATM   30  C   UNK N   1      23.449  13.034   4.051  0.00  0.00     0.241 C 
HETATM   31  O   UNK N   1      23.014  13.842   4.870  0.00  0.00    -0.271 OA
HETATM   32  N   UNK N   1      23.409  13.159   2.678  0.00  0.00    -0.346 N 
HETATM   33  C   UNK N   1      22.373  13.747   1.852  0.00  0.00     0.176 C 
HETATM   34  C   UNK N   1      21.574  14.608   2.512  0.00  0.00     0.241 C 
HETATM   35  O   UNK N   1      21.185  14.412   3.637  0.00  0.00    -0.271 OA
HETATM   36  N   UNK N   1      21.271  15.687   1.814  0.00  0.00    -0.344 N 
HETATM   37  H   UNK N   1      23.226  15.688   2.834  0.00  0.00     0.163 HD
HETATM   38  H   UNK N   1      26.201  11.360   4.427  0.00  0.00     0.162 HD
HETATM   39  H   UNK N   1      27.675   8.637   1.565  0.00  0.00     0.163 HD
HETATM   40  H   UNK N   1      25.359  10.657   3.978  0.00  0.00     0.163 HD
HETATM   41  H   UNK N   1      23.824  12.510   6.422  0.00  0.00     0.163 HD
HETATM   42  H   UNK N   1      24.187  12.799   2.193  0.00  0.00     0.163 HD
HETATM   43  H   UNK N   1      21.337  15.674   0.832  0.00  0.00     0.163 HD
ENDROOT
BRANCH  25  44
HETATM   44  C   UNK N   1      23.495   8.750   5.442  0.00  0.00     0.075 C 
BRANCH  44  45
HETATM   45  C   UNK N   1      23.552   7.375   5.838  0.00  0.00    -0.028 A 
HETATM   46  C   UNK N   1      23.947   6.818   7.002  0.00  0.00     0.096 A 
HETATM   47  N   UNK N   1      23.688   5.457   6.903  0.00  0.00    -0.365 N 
HETATM   48  C   UNK N   1      23.159   5.294   5.731  0.00  0.00     0.042 A 
HETATM   49  H   UNK N   1      23.867   4.764   7.579  0.00  0.00     0.165 HD
HETATM   50  C   UNK N   1      23.075   6.393   5.023  0.00  0.00    -0.002 A 
HETATM   51  C   UNK N   1      22.645   4.102   5.075  0.00  0.00     0.030 A 
HETATM   52  C   UNK N   1      22.638   6.429   3.813  0.00  0.00     0.014 A 
HETATM   53  C   UNK N   1      22.102   5.404   3.108  0.00  0.00     0.001 A 
HETATM   54  C   UNK N   1      22.101   4.199   3.767  0.00  0.00     0.002 A 
ENDBRANCH  44  45
ENDBRANCH  25  44
BRANCH  21  55
HETATM   55  C   UNK N   1      27.120   7.822   4.937  0.00  0.00     0.073 C 
BRANCH  55  56
HETATM   56  C   UNK N   1      27.583   6.480   5.061  0.00  0.00    -0.056 C 
HETATM   57  C   UNK N   1      26.897   5.646   4.211  0.00  0.00     0.007 C 
HETATM   58  C   UNK N   1      26.421   4.445   4.688  0.00  0.00     0.001 C 
HETATM   59  C   UNK N   1      26.641   4.091   6.021  0.00  0.00     0.000 C 
HETATM   60  C   UNK N   1      27.475   4.870   6.831  0.00  0.00     0.001 C 
HETATM   61  C   UNK N   1      27.951   6.080   6.352  0.00  0.00     0.007 C 
ENDBRANCH  55  56
ENDBRANCH  21  55
BRANCH  29  62
HETATM   62  C   UNK N   1      22.123  11.491   4.116  0.00  0.00     0.049 C 
BRANCH  62  63
HETATM   63  C   UNK N   1      21.185  10.999   5.394  0.00  0.00     0.061 C 
HETATM   64  C   UNK N   1      20.308  11.975   5.479  0.00  0.00     0.070 C 
HETATM   65  N   UNK N   1      19.622  11.795   4.361  0.00  0.00    -0.368 N 
HETATM   66  C   UNK N   1      19.842  10.525   4.037  0.00  0.00     0.038 C 
HETATM   67  H   UNK N   1      19.073  12.454   3.879  0.00  0.00     0.165 HD
HETATM   68  C   UNK N   1      20.450   9.912   4.936  0.00  0.00    -0.022 C 
HETATM   69  C   UNK N   1      19.721   9.807   2.808  0.00  0.00     0.030 C 
HETATM   70  C   UNK N   1      19.858   8.701   5.312  0.00  0.00     0.010 C 
HETATM   71  C   UNK N   1      19.330   7.931   4.228  0.00  0.00     0.001 C 
HETATM   72  C   UNK N   1      19.521   8.448   2.920  0.00  0.00     0.002 C 
ENDBRANCH  62  63
ENDBRANCH  29  62
BRANCH  33  73
HETATM   73  C   UNK N   1      21.464  13.009   0.812  0.00  0.00     0.035 C 
BRANCH  73  74
HETATM   74  C   UNK N   1      21.929  11.534   0.438  0.00  0.00     0.004 C 
BRANCH  74  75
HETATM   75  C   UNK N   1      23.310  11.203  -0.208  0.00  0.00     0.019 C 
BRANCH  75  76
HETATM   76  C   UNK N   1      23.585   9.796  -0.760  0.00  0.00     0.111 C 
BRANCH  76  77
HETATM   77  N   UNK N   1      24.856   9.270  -0.278  0.00  0.00    -0.430 N 
HETATM   78  H   UNK N   1      25.165   8.342   0.007  0.00  0.00     0.149 HD
HETATM   79  H   UNK N   1      25.587   9.979  -0.212  0.00  0.00     0.149 HD
ENDBRANCH  76  77
ENDBRANCH  75  76
ENDBRANCH  74  75
ENDBRANCH  73  74
ENDBRANCH  33  73
BRANCH   1  80
HETATM   80  C   UNK N   1      19.563  16.671   3.291  0.00  0.00     0.146 C 
HETATM   81  C   UNK N   1      19.613  16.615   4.818  0.00  0.00     0.042 C 
BRANCH  80  82
HETATM   82  O   UNK N   1      18.862  17.825   3.062  0.00  0.00    -0.393 OA
HETATM   83  H   UNK N   1      18.055  18.039   3.555  0.00  0.00     0.210 HD
ENDBRANCH  80  82
ENDBRANCH   1  80
BRANCH   5  84
HETATM   84  C   UNK N   1      24.990  17.594   3.800  0.00  0.00     0.046 C 
BRANCH  84  85
HETATM   85  C   UNK N   1      24.708  18.920   4.232  0.00  0.00     0.033 C 
HETATM   86  C   UNK N   1      24.736  19.773   3.126  0.00  0.00    -0.018 C 
HETATM   87  C   UNK N   1      25.833  20.563   2.937  0.00  0.00    -0.003 C 
HETATM   88  C   UNK N   1      26.795  20.614   3.944  0.00  0.00    -0.001 C 
HETATM   89  C   UNK N   1      26.573  19.985   5.177  0.00  0.00    -0.003 C 
HETATM   90  C   UNK N   1      25.499  19.143   5.325  0.00  0.00    -0.018 C 
ENDBRANCH  84  85
ENDBRANCH   5  84
BRANCH   8  91
HETATM   91  C   UNK N   1      26.859  16.173   5.541  0.00  0.00     0.201 C 
BRANCH  91  92
HETATM   92  C   UNK N   1      28.076  16.331   4.705  0.00  0.00     0.228 C 
HETATM   93  O   UNK N   1      28.112  17.109   3.756  0.00  0.00    -0.272 OA
HETATM   94  N   UNK N   1      29.209  15.804   5.180  0.00  0.00    -0.369 N 
HETATM   95  H   UNK N   1      29.424  14.942   5.603  0.00  0.00     0.159 HD
HETATM   96  H   UNK N   1      29.987  16.400   5.090  0.00  0.00     0.159 HD
ENDBRANCH  91  92
ENDBRANCH   8  91
TORSDOF 17
ENDMDL
MODEL 4
REMARK VINA RESULT:      -6.4      4.313      7.944
REMARK  17 active torsions:
REMARK  status: ('A' for Active; 'I' for Inactive)
REMARK    1  A    between atoms: C_3  and  C_2 
REMARK    2  A    between atoms: C_2  and  O_82 
REMARK    3  A    between atoms: C_7  and  C_75 
REMARK    4  A    between atoms: N_10  and  C_71 
REMARK    5  A    between atoms: C_23  and  C_64 
REMARK    6  A    between atoms: C_27  and  C_54 
REMARK    7  A    between atoms: C_31  and  C_44 
REMARK    8  A    between atoms: C_35  and  C_39 
REMARK    9  A    between atoms: C_39  and  C_40 
REMARK   10  A    between atoms: C_40  and  C_41 
REMARK   11  A    between atoms: C_41  and  C_42 
REMARK   12  A    between atoms: C_42  and  N_43 
REMARK   13  A    between atoms: C_44  and  C_45 
REMARK   14  A    between atoms: C_54  and  C_55 
REMARK   15  A    between atoms: C_64  and  C_65 
REMARK   16  A    between atoms: C_71  and  C_72 
REMARK       I    between atoms: C_72  and  N_74 
REMARK   17  A    between atoms: C_75  and  C_76 
ROOT
HETATM    1  C   UNK N   1      24.439  17.943   4.967  0.00  0.00     0.205 C 
HETATM    2  C   UNK N   1      23.758  17.049   4.022  0.00  0.00     0.243 C 
HETATM    3  O   UNK N   1      23.004  17.531   3.200  0.00  0.00    -0.271 OA
HETATM    4  N   UNK N   1      24.079  15.736   3.969  0.00  0.00    -0.346 N 
HETATM    5  C   UNK N   1      23.549  15.033   2.913  0.00  0.00     0.172 C 
HETATM    6  C   UNK N   1      24.338  14.101   2.095  0.00  0.00     0.223 C 
HETATM    7  O   UNK N   1      24.573  14.420   0.940  0.00  0.00    -0.277 OA
HETATM    8  N   UNK N   1      24.223  12.808   2.449  0.00  0.00    -0.243 NA
HETATM    9  C   UNK N   1      24.253  12.597   3.850  0.00  0.00     0.099 C 
HETATM   10  C   UNK N   1      25.560  12.196   4.113  0.00  0.00     0.024 C 
HETATM   11  C   UNK N   1      25.450  11.058   4.862  0.00  0.00     0.104 C 
HETATM   12  C   UNK N   1      25.805  10.239   3.766  0.00  0.00     0.217 C 
HETATM   13  O   UNK N   1      25.018   9.395   3.388  0.00  0.00    -0.274 OA
HETATM   14  N   UNK N   1      27.113  10.130   3.514  0.00  0.00    -0.361 N 
HETATM   15  C   UNK N   1      27.586   8.826   3.393  0.00  0.00     0.123 C 
HETATM   16  C   UNK N   1      27.036   8.186   4.659  0.00  0.00     0.029 C 
HETATM   17  C   UNK N   1      27.567   6.886   4.638  0.00  0.00     0.104 C 
HETATM   18  C   UNK N   1      28.879   6.998   5.293  0.00  0.00     0.218 C 
HETATM   19  O   UNK N   1      29.204   6.012   5.907  0.00  0.00    -0.274 OA
HETATM   20  N   UNK N   1      29.493   8.195   5.596  0.00  0.00    -0.347 N 
HETATM   21  C   UNK N   1      30.362   9.025   4.737  0.00  0.00     0.180 C 
HETATM   22  C   UNK N   1      30.159  10.450   4.848  0.00  0.00     0.241 C 
HETATM   23  O   UNK N   1      30.870  11.024   5.648  0.00  0.00    -0.271 OA
HETATM   24  N   UNK N   1      29.542  11.139   3.827  0.00  0.00    -0.346 N 
HETATM   25  C   UNK N   1      30.170  11.474   2.532  0.00  0.00     0.181 C 
HETATM   26  C   UNK N   1      29.413  12.397   1.590  0.00  0.00     0.241 C 
HETATM   27  O   UNK N   1      29.941  12.725   0.533  0.00  0.00    -0.271 OA
HETATM   28  N   UNK N   1      28.420  13.166   2.033  0.00  0.00    -0.346 N 
HETATM   29  C   UNK N   1      28.314  13.455   3.428  0.00  0.00     0.177 C 
HETATM   30  C   UNK N   1      27.150  14.096   3.713  0.00  0.00     0.241 C 
HETATM   31  O   UNK N   1      26.662  14.798   2.828  0.00  0.00    -0.271 OA
HETATM   32  N   UNK N   1      26.895  14.190   5.066  0.00  0.00    -0.346 N 
HETATM   33  C   UNK N   1      26.649  15.377   5.861  0.00  0.00     0.176 C 
HETATM   34  C   UNK N   1      26.231  16.436   5.141  0.00  0.00     0.241 C 
HETATM   35  O   UNK N   1      26.685  16.715   4.059  0.00  0.00    -0.271 OA
HETATM   36  N   UNK N   1      25.273  17.128   5.730  0.00  0.00    -0.344 N 
HETATM   37  H   UNK N   1      24.655  15.311   4.646  0.00  0.00     0.163 HD
HETATM   38  H   UNK N   1      27.701  10.914   3.420  0.00  0.00     0.162 HD
HETATM   39  H   UNK N   1      29.330   8.542   6.503  0.00  0.00     0.163 HD
HETATM   40  H   UNK N   1      28.612  11.432   3.972  0.00  0.00     0.163 HD
HETATM   41  H   UNK N   1      27.760  13.534   1.400  0.00  0.00     0.163 HD
HETATM   42  H   UNK N   1      26.879  13.337   5.558  0.00  0.00     0.163 HD
HETATM   43  H   UNK N   1      25.149  17.069   6.705  0.00  0.00     0.163 HD
ENDROOT
BRANCH  25  44
HETATM   44  C   UNK N   1      31.231  12.430   2.790  0.00  0.00     0.075 C 
BRANCH  44  45
HETATM   45  C   UNK N   1      32.512  11.894   2.437  0.00  0.00    -0.028 A 
HETATM   46  C   UNK N   1      32.932  11.320   1.289  0.00  0.00     0.096 A 
HETATM   47  N   UNK N   1      34.294  11.090   1.431  0.00  0.00    -0.365 N 
HETATM   48  C   UNK N   1      34.595  11.538   2.610  0.00  0.00     0.042 A 
HETATM   49  H   UNK N   1      34.901  10.675   0.777  0.00  0.00     0.165 HD
HETATM   50  C   UNK N   1      33.573  12.005   3.284  0.00  0.00    -0.002 A 
HETATM   51  C   UNK N   1      35.870  11.608   3.305  0.00  0.00     0.030 A 
HETATM   52  C   UNK N   1      33.655  12.435   4.494  0.00  0.00     0.014 A 
HETATM   53  C   UNK N   1      34.780  12.585   5.232  0.00  0.00     0.001 A 
HETATM   54  C   UNK N   1      35.929  12.161   4.612  0.00  0.00     0.002 A 
ENDBRANCH  44  45
ENDBRANCH  25  44
BRANCH  21  55
HETATM   55  C   UNK N   1      30.669   8.726   3.260  0.00  0.00     0.073 C 
BRANCH  55  56
HETATM   56  C   UNK N   1      31.773   7.825   3.263  0.00  0.00    -0.056 C 
HETATM   57  C   UNK N   1      32.713   8.207   4.189  0.00  0.00     0.007 C 
HETATM   58  C   UNK N   1      34.042   8.224   3.829  0.00  0.00     0.001 C 
HETATM   59  C   UNK N   1      34.416   7.854   2.536  0.00  0.00     0.000 C 
HETATM   60  C   UNK N   1      33.473   7.315   1.654  0.00  0.00     0.001 C 
HETATM   61  C   UNK N   1      32.134   7.301   2.015  0.00  0.00     0.007 C 
ENDBRANCH  55  56
ENDBRANCH  21  55
BRANCH  29  62
HETATM   62  C   UNK N   1      29.075  14.742   3.863  0.00  0.00     0.049 C 
BRANCH  62  63
HETATM   63  C   UNK N   1      30.035  15.408   2.685  0.00  0.00     0.061 C 
HETATM   64  C   UNK N   1      29.470  16.581   2.502  0.00  0.00     0.070 C 
HETATM   65  N   UNK N   1      29.746  17.174   3.654  0.00  0.00    -0.368 N 
HETATM   66  C   UNK N   1      30.793  16.509   4.128  0.00  0.00     0.038 C 
HETATM   67  H   UNK N   1      29.278  17.937   4.064  0.00  0.00     0.165 HD
HETATM   68  C   UNK N   1      31.249  15.700   3.296  0.00  0.00    -0.022 C 
HETATM   69  C   UNK N   1      31.341  16.381   5.441  0.00  0.00     0.030 C 
HETATM   70  C   UNK N   1      32.630  15.796   3.093  0.00  0.00     0.010 C 
HETATM   71  C   UNK N   1      33.395  16.025   4.281  0.00  0.00     0.001 C 
HETATM   72  C   UNK N   1      32.681  16.064   5.507  0.00  0.00     0.002 C 
ENDBRANCH  62  63
ENDBRANCH  29  62
BRANCH  33  73
HETATM   73  C   UNK N   1      27.551  15.948   7.005  0.00  0.00     0.035 C 
BRANCH  73  74
HETATM   74  C   UNK N   1      28.132  17.406   6.742  0.00  0.00     0.004 C 
BRANCH  74  75
HETATM   75  C   UNK N   1      28.343  18.466   7.866  0.00  0.00     0.019 C 
BRANCH  75  76
HETATM   76  C   UNK N   1      28.456  18.022   9.333  0.00  0.00     0.111 C 
BRANCH  76  77
HETATM   77  N   UNK N   1      29.735  18.413   9.913  0.00  0.00    -0.430 N 
HETATM   78  H   UNK N   1      30.617  17.922  10.056  0.00  0.00     0.149 HD
HETATM   79  H   UNK N   1      29.750  19.378  10.245  0.00  0.00     0.149 HD
ENDBRANCH  76  77
ENDBRANCH  75  76
ENDBRANCH  74  75
ENDBRANCH  73  74
ENDBRANCH  33  73
BRANCH   1  80
HETATM   80  C   UNK N   1      25.175  19.071   4.218  0.00  0.00     0.146 C 
HETATM   81  C   UNK N   1      24.394  20.229   3.597  0.00  0.00     0.042 C 
BRANCH  80  82
HETATM   82  O   UNK N   1      25.908  19.699   5.189  0.00  0.00    -0.393 OA
HETATM   83  H   UNK N   1      26.833  19.956   5.046  0.00  0.00     0.210 HD
ENDBRANCH  80  82
ENDBRANCH   1  80
BRANCH   5  84
HETATM   84  C   UNK N   1      22.349  14.388   3.417  0.00  0.00     0.046 C 
BRANCH  84  85
HETATM   85  C   UNK N   1      21.286  15.199   2.930  0.00  0.00     0.033 C 
HETATM   86  C   UNK N   1      20.163  15.011   3.741  0.00  0.00    -0.018 C 
HETATM   87  C   UNK N   1      19.151  14.218   3.282  0.00  0.00    -0.003 C 
HETATM   88  C   UNK N   1      19.200  13.777   1.962  0.00  0.00    -0.001 C 
HETATM   89  C   UNK N   1      20.187  14.251   1.086  0.00  0.00    -0.003 C 
HETATM   90  C   UNK N   1      21.232  14.992   1.580  0.00  0.00    -0.018 C 
ENDBRANCH  84  85
ENDBRANCH   5  84
BRANCH   8  91
HETATM   91  C   UNK N   1      23.152  12.109   1.772  0.00  0.00     0.201 C 
BRANCH  91  92
HETATM   92  C   UNK N   1      23.546  11.137   0.722  0.00  0.00     0.228 C 
HETATM   93  O   UNK N   1      22.751  10.746  -0.129  0.00  0.00    -0.272 OA
HETATM   94  N   UNK N   1      24.854  10.910   0.568  0.00  0.00    -0.369 N 
HETATM   95  H   UNK N   1      25.589  10.755   1.204  0.00  0.00     0.159 HD
HETATM   96  H   UNK N   1      25.141  10.895  -0.373  0.00  0.00     0.159 HD
ENDBRANCH  91  92
ENDBRANCH   8  91
TORSDOF 17
ENDMDL
MODEL 5
REMARK VINA RESULT:      -6.0      5.776     10.999
REMARK  17 active torsions:
REMARK  status: ('A' for Active; 'I' for Inactive)
REMARK    1  A    between atoms: C_3  and  C_2 
REMARK    2  A    between atoms: C_2  and  O_82 
REMARK    3  A    between atoms: C_7  and  C_75 
REMARK    4  A    between atoms: N_10  and  C_71 
REMARK    5  A    between atoms: C_23  and  C_64 
REMARK    6  A    between atoms: C_27  and  C_54 
REMARK    7  A    between atoms: C_31  and  C_44 
REMARK    8  A    between atoms: C_35  and  C_39 
REMARK    9  A    between atoms: C_39  and  C_40 
REMARK   10  A    between atoms: C_40  and  C_41 
REMARK   11  A    between atoms: C_41  and  C_42 
REMARK   12  A    between atoms: C_42  and  N_43 
REMARK   13  A    between atoms: C_44  and  C_45 
REMARK   14  A    between atoms: C_54  and  C_55 
REMARK   15  A    between atoms: C_64  and  C_65 
REMARK   16  A    between atoms: C_71  and  C_72 
REMARK       I    between atoms: C_72  and  N_74 
REMARK   17  A    between atoms: C_75  and  C_76 
ROOT
HETATM    1  C   UNK N   1      29.289  16.275   4.886  0.00  0.00     0.205 C 
HETATM    2  C   UNK N   1      30.181  15.116   4.749  0.00  0.00     0.243 C 
HETATM    3  O   UNK N   1      31.193  15.074   5.420  0.00  0.00    -0.271 OA
HETATM    4  N   UNK N   1      29.808  14.050   4.005  0.00  0.00    -0.346 N 
HETATM    5  C   UNK N   1      30.607  12.936   4.114  0.00  0.00     0.172 C 
HETATM    6  C   UNK N   1      30.069  11.579   4.286  0.00  0.00     0.223 C 
HETATM    7  O   UNK N   1      30.247  11.031   5.362  0.00  0.00    -0.277 OA
HETATM    8  N   UNK N   1      29.975  10.865   3.149  0.00  0.00    -0.243 NA
HETATM    9  C   UNK N   1      29.474  11.607   2.051  0.00  0.00     0.099 C 
HETATM   10  C   UNK N   1      28.129  11.254   1.978  0.00  0.00     0.024 C 
HETATM   11  C   UNK N   1      27.912  10.910   0.674  0.00  0.00     0.104 C 
HETATM   12  C   UNK N   1      27.882   9.531   0.988  0.00  0.00     0.217 C 
HETATM   13  O   UNK N   1      28.690   8.794   0.462  0.00  0.00    -0.274 OA
HETATM   14  N   UNK N   1      26.724   9.062   1.464  0.00  0.00    -0.361 N 
HETATM   15  C   UNK N   1      26.231   7.933   0.817  0.00  0.00     0.123 C 
HETATM   16  C   UNK N   1      26.292   8.368  -0.639  0.00  0.00     0.029 C 
HETATM   17  C   UNK N   1      25.711   7.295  -1.336  0.00  0.00     0.104 C 
HETATM   18  C   UNK N   1      24.268   7.576  -1.337  0.00  0.00     0.218 C 
HETATM   19  O   UNK N   1      23.694   7.183  -2.323  0.00  0.00    -0.274 OA
HETATM   20  N   UNK N   1      23.670   8.558  -0.575  0.00  0.00    -0.347 N 
HETATM   21  C   UNK N   1      23.188   8.472   0.819  0.00  0.00     0.180 C 
HETATM   22  C   UNK N   1      23.438   9.639   1.631  0.00  0.00     0.241 C 
HETATM   23  O   UNK N   1      22.543  10.460   1.664  0.00  0.00    -0.271 OA
HETATM   24  N   UNK N   1      24.400   9.599   2.616  0.00  0.00    -0.346 N 
HETATM   25  C   UNK N   1      24.255   8.905   3.912  0.00  0.00     0.181 C 
HETATM   26  C   UNK N   1      25.338   9.114   4.959  0.00  0.00     0.241 C 
HETATM   27  O   UNK N   1      25.208   8.584   6.057  0.00  0.00    -0.271 OA
HETATM   28  N   UNK N   1      26.181  10.142   4.879  0.00  0.00    -0.346 N 
HETATM   29  C   UNK N   1      25.842  11.276   4.078  0.00  0.00     0.177 C 
HETATM   30  C   UNK N   1      26.889  12.137   3.973  0.00  0.00     0.241 C 
HETATM   31  O   UNK N   1      27.685  12.172   4.910  0.00  0.00    -0.271 OA
HETATM   32  N   UNK N   1      26.692  13.123   3.029  0.00  0.00    -0.346 N 
HETATM   33  C   UNK N   1      26.742  14.562   3.199  0.00  0.00     0.176 C 
HETATM   34  C   UNK N   1      27.443  14.958   4.279  0.00  0.00     0.241 C 
HETATM   35  O   UNK N   1      27.389  14.389   5.342  0.00  0.00    -0.271 OA
HETATM   36  N   UNK N   1      28.199  16.018   4.058  0.00  0.00    -0.344 N 
HETATM   37  H   UNK N   1      29.016  14.071   3.421  0.00  0.00     0.163 HD
HETATM   38  H   UNK N   1      26.253   9.484   2.219  0.00  0.00     0.162 HD
HETATM   39  H   UNK N   1      23.549   9.429  -1.016  0.00  0.00     0.163 HD
HETATM   40  H   UNK N   1      25.248  10.070   2.444  0.00  0.00     0.163 HD
HETATM   41  H   UNK N   1      27.034  10.121   5.371  0.00  0.00     0.163 HD
HETATM   42  H   UNK N   1      26.488  12.809   2.118  0.00  0.00     0.163 HD
HETATM   43  H   UNK N   1      27.992  16.624   3.310  0.00  0.00     0.163 HD
ENDROOT
BRANCH  25  44
HETATM   44  C   UNK N   1      23.233   9.600   4.675  0.00  0.00     0.075 C 
BRANCH  44  45
HETATM   45  C   UNK N   1      22.155   8.724   5.022  0.00  0.00    -0.028 A 
HETATM   46  C   UNK N   1      22.168   7.534   5.659  0.00  0.00     0.096 A 
HETATM   47  N   UNK N   1      20.843   7.167   5.849  0.00  0.00    -0.365 N 
HETATM   48  C   UNK N   1      20.144   8.134   5.342  0.00  0.00     0.042 A 
HETATM   49  H   UNK N   1      20.505   6.347   6.278  0.00  0.00     0.165 HD
HETATM   50  C   UNK N   1      20.861   9.087   4.800  0.00  0.00    -0.002 A 
HETATM   51  C   UNK N   1      18.706   8.337   5.277  0.00  0.00     0.030 A 
HETATM   52  C   UNK N   1      20.354  10.100   4.190  0.00  0.00     0.014 A 
HETATM   53  C   UNK N   1      19.042  10.420   4.093  0.00  0.00     0.001 A 
HETATM   54  C   UNK N   1      18.188   9.508   4.662  0.00  0.00     0.002 A 
ENDBRANCH  44  45
ENDBRANCH  25  44
BRANCH  21  55
HETATM   55  C   UNK N   1      23.362   7.243   1.728  0.00  0.00     0.073 C 
BRANCH  55  56
HETATM   56  C   UNK N   1      22.223   6.419   1.496  0.00  0.00    -0.056 C 
HETATM   57  C   UNK N   1      21.102   7.183   1.282  0.00  0.00     0.007 C 
HETATM   58  C   UNK N   1      19.932   6.857   1.932  0.00  0.00     0.001 C 
HETATM   59  C   UNK N   1      19.901   5.759   2.794  0.00  0.00     0.000 C 
HETATM   60  C   UNK N   1      20.998   4.896   2.881  0.00  0.00     0.001 C 
HETATM   61  C   UNK N   1      22.176   5.226   2.229  0.00  0.00     0.007 C 
ENDBRANCH  55  56
ENDBRANCH  21  55
BRANCH  29  62
HETATM   62  C   UNK N   1      25.069  12.384   4.852  0.00  0.00     0.049 C 
BRANCH  62  63
HETATM   63  C   UNK N   1      24.720  12.009   6.430  0.00  0.00     0.061 C 
HETATM   64  C   UNK N   1      25.289  13.001   7.079  0.00  0.00     0.070 C 
HETATM   65  N   UNK N   1      24.522  14.015   6.709  0.00  0.00    -0.368 N 
HETATM   66  C   UNK N   1      23.384  13.449   6.324  0.00  0.00     0.038 C 
HETATM   67  H   UNK N   1      24.748  14.973   6.717  0.00  0.00     0.165 HD
HETATM   68  C   UNK N   1      23.356  12.230   6.587  0.00  0.00    -0.022 C 
HETATM   69  C   UNK N   1      22.312  13.901   5.495  0.00  0.00     0.030 C 
HETATM   70  C   UNK N   1      22.207  11.810   7.265  0.00  0.00     0.010 C 
HETATM   71  C   UNK N   1      20.991  12.418   6.816  0.00  0.00     0.001 C 
HETATM   72  C   UNK N   1      21.087  13.309   5.716  0.00  0.00     0.002 C 
ENDBRANCH  62  63
ENDBRANCH  29  62
BRANCH  33  73
HETATM   73  C   UNK N   1      25.555  15.571   3.047  0.00  0.00     0.035 C 
BRANCH  73  74
HETATM   74  C   UNK N   1      24.260  14.986   2.331  0.00  0.00     0.004 C 
BRANCH  74  75
HETATM   75  C   UNK N   1      24.272  14.368   0.899  0.00  0.00     0.019 C 
BRANCH  75  76
HETATM   76  C   UNK N   1      23.046  13.598   0.382  0.00  0.00     0.111 C 
BRANCH  76  77
HETATM   77  N   UNK N   1      23.434  12.513  -0.511  0.00  0.00    -0.430 N 
HETATM   78  H   UNK N   1      24.332  12.097  -0.757  0.00  0.00     0.149 HD
HETATM   79  H   UNK N   1      22.643  12.081  -0.988  0.00  0.00     0.149 HD
ENDBRANCH  76  77
ENDBRANCH  75  76
ENDBRANCH  74  75
ENDBRANCH  73  74
ENDBRANCH  33  73
BRANCH   1  80
HETATM   80  C   UNK N   1      28.916  16.505   6.364  0.00  0.00     0.146 C 
HETATM   81  C   UNK N   1      29.829  17.323   7.277  0.00  0.00     0.042 C 
BRANCH  80  82
HETATM   82  O   UNK N   1      27.786  17.275   6.311  0.00  0.00    -0.393 OA
HETATM   83  H   UNK N   1      27.734  18.070   5.757  0.00  0.00     0.210 HD
ENDBRANCH  80  82
ENDBRANCH   1  80
BRANCH   5  84
HETATM   84  C   UNK N   1      31.530  12.987   2.993  0.00  0.00     0.046 C 
BRANCH  84  85
HETATM   85  C   UNK N   1      32.759  13.412   3.572  0.00  0.00     0.033 C 
HETATM   86  C   UNK N   1      33.360  14.347   2.724  0.00  0.00    -0.018 C 
HETATM   87  C   UNK N   1      34.402  13.943   1.942  0.00  0.00    -0.003 C 
HETATM   88  C   UNK N   1      34.934  12.672   2.148  0.00  0.00    -0.001 C 
HETATM   89  C   UNK N   1      34.505  11.884   3.225  0.00  0.00    -0.003 C 
HETATM   90  C   UNK N   1      33.414  12.276   3.959  0.00  0.00    -0.018 C 
ENDBRANCH  84  85
ENDBRANCH   5  84
BRANCH   8  91
HETATM   91  C   UNK N   1      31.160  10.092   2.844  0.00  0.00     0.201 C 
BRANCH  91  92
HETATM   92  C   UNK N   1      31.022   8.614   2.880  0.00  0.00     0.228 C 
HETATM   93  O   UNK N   1      30.427   8.041   3.788  0.00  0.00    -0.272 OA
HETATM   94  N   UNK N   1      31.330   7.951   1.760  0.00  0.00    -0.369 N 
HETATM   95  H   UNK N   1      32.075   8.021   1.120  0.00  0.00     0.159 HD
HETATM   96  H   UNK N   1      30.679   7.250   1.529  0.00  0.00     0.159 HD
ENDBRANCH  91  92
ENDBRANCH   8  91
TORSDOF 17
ENDMDL
MODEL 6
REMARK VINA RESULT:      -6.0      6.918     11.822
REMARK  17 active torsions:
REMARK  status: ('A' for Active; 'I' for Inactive)
REMARK    1  A    between atoms: C_3  and  C_2 
REMARK    2  A    between atoms: C_2  and  O_82 
REMARK    3  A    between atoms: C_7  and  C_75 
REMARK    4  A    between atoms: N_10  and  C_71 
REMARK    5  A    between atoms: C_23  and  C_64 
REMARK    6  A    between atoms: C_27  and  C_54 
REMARK    7  A    between atoms: C_31  and  C_44 
REMARK    8  A    between atoms: C_35  and  C_39 
REMARK    9  A    between atoms: C_39  and  C_40 
REMARK   10  A    between atoms: C_40  and  C_41 
REMARK   11  A    between atoms: C_41  and  C_42 
REMARK   12  A    between atoms: C_42  and  N_43 
REMARK   13  A    between atoms: C_44  and  C_45 
REMARK   14  A    between atoms: C_54  and  C_55 
REMARK   15  A    between atoms: C_64  and  C_65 
REMARK   16  A    between atoms: C_71  and  C_72 
REMARK       I    between atoms: C_72  and  N_74 
REMARK   17  A    between atoms: C_75  and  C_76 
ROOT
HETATM    1  C   UNK N   1      21.194  17.488   4.314  0.00  0.00     0.205 C 
HETATM    2  C   UNK N   1      22.597  17.545   4.744  0.00  0.00     0.243 C 
HETATM    3  O   UNK N   1      22.904  18.306   5.640  0.00  0.00    -0.271 OA
HETATM    4  N   UNK N   1      23.499  16.662   4.257  0.00  0.00    -0.346 N 
HETATM    5  C   UNK N   1      24.725  16.657   4.878  0.00  0.00     0.172 C 
HETATM    6  C   UNK N   1      25.416  15.422   5.275  0.00  0.00     0.223 C 
HETATM    7  O   UNK N   1      25.520  15.190   6.470  0.00  0.00    -0.277 OA
HETATM    8  N   UNK N   1      26.343  14.990   4.400  0.00  0.00    -0.243 NA
HETATM    9  C   UNK N   1      25.930  15.074   3.048  0.00  0.00     0.099 C 
HETATM   10  C   UNK N   1      25.525  13.781   2.728  0.00  0.00     0.024 C 
HETATM   11  C   UNK N   1      26.168  13.473   1.562  0.00  0.00     0.104 C 
HETATM   12  C   UNK N   1      27.086  12.630   2.229  0.00  0.00     0.217 C 
HETATM   13  O   UNK N   1      28.271  12.886   2.161  0.00  0.00    -0.274 OA
HETATM   14  N   UNK N   1      26.658  11.392   2.499  0.00  0.00    -0.361 N 
HETATM   15  C   UNK N   1      27.508  10.370   2.088  0.00  0.00     0.123 C 
HETATM   16  C   UNK N   1      27.759  10.750   0.636  0.00  0.00     0.029 C 
HETATM   17  C   UNK N   1      28.539   9.692   0.141  0.00  0.00     0.104 C 
HETATM   18  C   UNK N   1      27.571   8.684  -0.315  0.00  0.00     0.218 C 
HETATM   19  O   UNK N   1      27.945   8.042  -1.267  0.00  0.00    -0.274 OA
HETATM   20  N   UNK N   1      26.220   8.729  -0.041  0.00  0.00    -0.347 N 
HETATM   21  C   UNK N   1      25.506   8.213   1.145  0.00  0.00     0.180 C 
HETATM   22  C   UNK N   1      24.438   9.052   1.634  0.00  0.00     0.241 C 
HETATM   23  O   UNK N   1      23.330   8.802   1.202  0.00  0.00    -0.271 OA
HETATM   24  N   UNK N   1      24.598   9.757   2.807  0.00  0.00    -0.346 N 
HETATM   25  C   UNK N   1      24.562   9.166   4.161  0.00  0.00     0.181 C 
HETATM   26  C   UNK N   1      24.572  10.111   5.352  0.00  0.00     0.241 C 
HETATM   27  O   UNK N   1      24.493   9.640   6.481  0.00  0.00    -0.271 OA
HETATM   28  N   UNK N   1      24.257  11.398   5.210  0.00  0.00    -0.346 N 
HETATM   29  C   UNK N   1      23.517  11.825   4.066  0.00  0.00     0.177 C 
HETATM   30  C   UNK N   1      23.446  13.181   4.001  0.00  0.00     0.241 C 
HETATM   31  O   UNK N   1      23.481  13.798   5.064  0.00  0.00    -0.271 OA
HETATM   32  N   UNK N   1      22.947  13.645   2.801  0.00  0.00    -0.346 N 
HETATM   33  C   UNK N   1      21.810  14.515   2.569  0.00  0.00     0.176 C 
HETATM   34  C   UNK N   1      21.465  15.256   3.640  0.00  0.00     0.241 C 
HETATM   35  O   UNK N   1      21.469  14.824   4.767  0.00  0.00    -0.271 OA
HETATM   36  N   UNK N   1      21.134  16.498   3.336  0.00  0.00    -0.344 N 
HETATM   37  H   UNK N   1      23.289  16.062   3.505  0.00  0.00     0.163 HD
HETATM   38  H   UNK N   1      25.804  11.216   2.955  0.00  0.00     0.162 HD
HETATM   39  H   UNK N   1      25.658   9.161  -0.724  0.00  0.00     0.163 HD
HETATM   40  H   UNK N   1      24.747  10.728   2.737  0.00  0.00     0.163 HD
HETATM   41  H   UNK N   1      24.533  12.052   5.893  0.00  0.00     0.163 HD
HETATM   42  H   UNK N   1      23.426  13.346   1.995  0.00  0.00     0.163 HD
HETATM   43  H   UNK N   1      20.846  16.723   2.422  0.00  0.00     0.163 HD
ENDROOT
BRANCH  25  44
HETATM   44  C   UNK N   1      23.208   8.702   4.404  0.00  0.00     0.075 C 
BRANCH  44  45
HETATM   45  C   UNK N   1      23.174   7.286   4.620  0.00  0.00    -0.028 A 
HETATM   46  C   UNK N   1      23.924   6.509   5.430  0.00  0.00     0.096 A 
HETATM   47  N   UNK N   1      23.400   5.225   5.351  0.00  0.00    -0.365 N 
HETATM   48  C   UNK N   1      22.395   5.316   4.537  0.00  0.00     0.042 A 
HETATM   49  H   UNK N   1      23.722   4.418   5.815  0.00  0.00     0.165 HD
HETATM   50  C   UNK N   1      22.218   6.513   4.034  0.00  0.00    -0.002 A 
HETATM   51  C   UNK N   1      21.436   4.317   4.093  0.00  0.00     0.030 A 
HETATM   52  C   UNK N   1      21.315   6.792   3.161  0.00  0.00     0.014 A 
HETATM   53  C   UNK N   1      20.347   5.966   2.697  0.00  0.00     0.001 A 
HETATM   54  C   UNK N   1      20.407   4.685   3.186  0.00  0.00     0.002 A 
ENDBRANCH  44  45
ENDBRANCH  25  44
BRANCH  21  55
HETATM   55  C   UNK N   1      26.192   7.592   2.374  0.00  0.00     0.073 C 
BRANCH  55  56
HETATM   56  C   UNK N   1      26.365   6.211   2.069  0.00  0.00    -0.056 C 
HETATM   57  C   UNK N   1      25.209   5.674   1.556  0.00  0.00     0.007 C 
HETATM   58  C   UNK N   1      24.761   4.463   2.034  0.00  0.00     0.001 C 
HETATM   59  C   UNK N   1      25.484   3.798   3.026  0.00  0.00     0.000 C 
HETATM   60  C   UNK N   1      26.738   4.271   3.426  0.00  0.00     0.001 C 
HETATM   61  C   UNK N   1      27.187   5.493   2.947  0.00  0.00     0.007 C 
ENDBRANCH  55  56
ENDBRANCH  21  55
BRANCH  29  62
HETATM   62  C   UNK N   1      21.974  11.801   4.269  0.00  0.00     0.049 C 
BRANCH  62  63
HETATM   63  C   UNK N   1      21.467  10.963   5.608  0.00  0.00     0.061 C 
HETATM   64  C   UNK N   1      21.005  11.927   6.375  0.00  0.00     0.070 C 
HETATM   65  N   UNK N   1      19.938  12.305   5.687  0.00  0.00    -0.368 N 
HETATM   66  C   UNK N   1      19.646  11.257   4.924  0.00  0.00     0.038 C 
HETATM   67  H   UNK N   1      19.469  13.168   5.732  0.00  0.00     0.165 HD
HETATM   68  C   UNK N   1      20.333  10.259   5.217  0.00  0.00    -0.022 C 
HETATM   69  C   UNK N   1      18.883  11.120   3.724  0.00  0.00     0.030 C 
HETATM   70  C   UNK N   1      19.596   9.088   5.421  0.00  0.00     0.010 C 
HETATM   71  C   UNK N   1      18.509   8.898   4.509  0.00  0.00     0.001 C 
HETATM   72  C   UNK N   1      18.352   9.870   3.487  0.00  0.00     0.002 C 
ENDBRANCH  62  63
ENDBRANCH  29  62
BRANCH  33  73
HETATM   73  C   UNK N   1      20.476  14.146   1.838  0.00  0.00     0.035 C 
BRANCH  73  74
HETATM   74  C   UNK N   1      20.573  12.908   0.842  0.00  0.00     0.004 C 
BRANCH  74  75
HETATM   75  C   UNK N   1      19.339  12.276   0.129  0.00  0.00     0.019 C 
BRANCH  75  76
HETATM   76  C   UNK N   1      17.919  12.743   0.488  0.00  0.00     0.111 C 
BRANCH  76  77
HETATM   77  N   UNK N   1      17.663  14.094   0.007  0.00  0.00    -0.430 N 
HETATM   78  H   UNK N   1      18.191  14.739  -0.579  0.00  0.00     0.149 HD
HETATM   79  H   UNK N   1      16.770  14.473   0.322  0.00  0.00     0.149 HD
ENDBRANCH  76  77
ENDBRANCH  75  76
ENDBRANCH  74  75
ENDBRANCH  73  74
ENDBRANCH  33  73
BRANCH   1  80
HETATM   80  C   UNK N   1      20.264  17.240   5.518  0.00  0.00     0.146 C 
HETATM   81  C   UNK N   1      19.120  16.231   5.421  0.00  0.00     0.042 C 
BRANCH  80  82
HETATM   82  O   UNK N   1      21.078  16.672   6.462  0.00  0.00    -0.393 OA
HETATM   83  H   UNK N   1      20.933  15.769   6.784  0.00  0.00     0.210 HD
ENDBRANCH  80  82
ENDBRANCH   1  80
BRANCH   5  84
HETATM   84  C   UNK N   1      25.593  17.495   4.069  0.00  0.00     0.046 C 
BRANCH  84  85
HETATM   85  C   UNK N   1      25.643  18.730   4.775  0.00  0.00     0.033 C 
HETATM   86  C   UNK N   1      25.551  19.781   3.859  0.00  0.00    -0.018 C 
HETATM   87  C   UNK N   1      26.688  20.457   3.524  0.00  0.00    -0.003 C 
HETATM   88  C   UNK N   1      27.854  20.190   4.238  0.00  0.00    -0.001 C 
HETATM   89  C   UNK N   1      27.828  19.354   5.362  0.00  0.00    -0.003 C 
HETATM   90  C   UNK N   1      26.695  18.632   5.644  0.00  0.00    -0.018 C 
ENDBRANCH  84  85
ENDBRANCH   5  84
BRANCH   8  91
HETATM   91  C   UNK N   1      27.668  15.519   4.644  0.00  0.00     0.201 C 
BRANCH  91  92
HETATM   92  C   UNK N   1      28.692  14.560   5.131  0.00  0.00     0.228 C 
HETATM   93  O   UNK N   1      29.720  14.937   5.684  0.00  0.00    -0.272 OA
HETATM   94  N   UNK N   1      28.335  13.272   5.190  0.00  0.00    -0.369 N 
HETATM   95  H   UNK N   1      27.850  12.680   4.572  0.00  0.00     0.159 HD
HETATM   96  H   UNK N   1      28.612  12.827   6.023  0.00  0.00     0.159 HD
ENDBRANCH  91  92
ENDBRANCH   8  91
TORSDOF 17
ENDMDL
MODEL 7
REMARK VINA RESULT:      -5.7      2.595      9.822
REMARK  17 active torsions:
REMARK  status: ('A' for Active; 'I' for Inactive)
REMARK    1  A    between atoms: C_3  and  C_2 
REMARK    2  A    between atoms: C_2  and  O_82 
REMARK    3  A    between atoms: C_7  and  C_75 
REMARK    4  A    between atoms: N_10  and  C_71 
REMARK    5  A    between atoms: C_23  and  C_64 
REMARK    6  A    between atoms: C_27  and  C_54 
REMARK    7  A    between atoms: C_31  and  C_44 
REMARK    8  A    between atoms: C_35  and  C_39 
REMARK    9  A    between atoms: C_39  and  C_40 
REMARK   10  A    between atoms: C_40  and  C_41 
REMARK   11  A    between atoms: C_41  and  C_42 
REMARK   12  A    between atoms: C_42  and  N_43 
REMARK   13  A    between atoms: C_44  and  C_45 
REMARK   14  A    between atoms: C_54  and  C_55 
REMARK   15  A    between atoms: C_64  and  C_65 
REMARK   16  A    between atoms: C_71  and  C_72 
REMARK       I    between atoms: C_72  and  N_74 
REMARK   17  A    between atoms: C_75  and  C_76 
ROOT
HETATM    1  C   UNK N   1      32.873   9.622  -5.086  0.00  0.00     0.205 C 
HETATM    2  C   UNK N   1      31.780   9.035  -4.298  0.00  0.00     0.243 C 
HETATM    3  O   UNK N   1      31.438   7.894  -4.533  0.00  0.00    -0.271 OA
HETATM    4  N   UNK N   1      31.269   9.699  -3.236  0.00  0.00    -0.346 N 
HETATM    5  C   UNK N   1      30.410   8.979  -2.440  0.00  0.00     0.172 C 
HETATM    6  C   UNK N   1      30.488   8.980  -0.972  0.00  0.00     0.223 C 
HETATM    7  O   UNK N   1      30.846   7.950  -0.423  0.00  0.00    -0.277 OA
HETATM    8  N   UNK N   1      29.643   9.834  -0.365  0.00  0.00    -0.243 NA
HETATM    9  C   UNK N   1      29.568  11.102  -0.993  0.00  0.00     0.099 C 
HETATM   10  C   UNK N   1      30.396  11.918  -0.227  0.00  0.00     0.024 C 
HETATM   11  C   UNK N   1      29.653  13.029   0.058  0.00  0.00     0.104 C 
HETATM   12  C   UNK N   1      29.441  12.610   1.392  0.00  0.00     0.217 C 
HETATM   13  O   UNK N   1      28.303  12.437   1.777  0.00  0.00    -0.274 OA
HETATM   14  N   UNK N   1      30.433  12.865   2.252  0.00  0.00    -0.361 N 
HETATM   15  C   UNK N   1      30.049  13.515   3.421  0.00  0.00     0.123 C 
HETATM   16  C   UNK N   1      29.251  14.686   2.869  0.00  0.00     0.029 C 
HETATM   17  C   UNK N   1      28.918  15.436   4.009  0.00  0.00     0.104 C 
HETATM   18  C   UNK N   1      30.058  16.342   4.217  0.00  0.00     0.218 C 
HETATM   19  O   UNK N   1      29.754  17.409   4.691  0.00  0.00    -0.274 OA
HETATM   20  N   UNK N   1      31.262  16.235   3.553  0.00  0.00    -0.347 N 
HETATM   21  C   UNK N   1      32.438  15.415   3.910  0.00  0.00     0.180 C 
HETATM   22  C   UNK N   1      33.110  14.786   2.798  0.00  0.00     0.241 C 
HETATM   23  O   UNK N   1      34.037  15.409   2.321  0.00  0.00    -0.271 OA
HETATM   24  N   UNK N   1      32.997  13.426   2.605  0.00  0.00    -0.346 N 
HETATM   25  C   UNK N   1      33.679  12.396   3.415  0.00  0.00     0.181 C 
HETATM   26  C   UNK N   1      33.591  10.951   2.953  0.00  0.00     0.241 C 
HETATM   27  O   UNK N   1      34.193  10.090   3.586  0.00  0.00    -0.271 OA
HETATM   28  N   UNK N   1      33.245  10.649   1.702  0.00  0.00    -0.346 N 
HETATM   29  C   UNK N   1      33.353  11.639   0.679  0.00  0.00     0.177 C 
HETATM   30  C   UNK N   1      32.791  11.212  -0.483  0.00  0.00     0.241 C 
HETATM   31  O   UNK N   1      32.792  10.001  -0.697  0.00  0.00    -0.271 OA
HETATM   32  N   UNK N   1      32.663  12.210  -1.427  0.00  0.00    -0.346 N 
HETATM   33  C   UNK N   1      33.174  12.244  -2.784  0.00  0.00     0.176 C 
HETATM   34  C   UNK N   1      33.444  11.027  -3.294  0.00  0.00     0.241 C 
HETATM   35  O   UNK N   1      33.956  10.144  -2.651  0.00  0.00    -0.271 OA
HETATM   36  N   UNK N   1      33.083  10.894  -4.557  0.00  0.00    -0.344 N 
HETATM   37  H   UNK N   1      31.498  10.637  -3.046  0.00  0.00     0.163 HD
HETATM   38  H   UNK N   1      31.367  12.611   2.073  0.00  0.00     0.162 HD
HETATM   39  H   UNK N   1      31.350  16.775   2.735  0.00  0.00     0.163 HD
HETATM   40  H   UNK N   1      32.418  13.118   1.869  0.00  0.00     0.163 HD
HETATM   41  H   UNK N   1      32.915   9.747   1.485  0.00  0.00     0.163 HD
HETATM   42  H   UNK N   1      32.159  13.007  -1.142  0.00  0.00     0.163 HD
HETATM   43  H   UNK N   1      32.966  11.690  -5.124  0.00  0.00     0.163 HD
ENDROOT
BRANCH  25  44
HETATM   44  C   UNK N   1      35.104  12.505   3.159  0.00  0.00     0.075 C 
BRANCH  44  45
HETATM   45  C   UNK N   1      35.782  13.148   4.245  0.00  0.00    -0.028 A 
HETATM   46  C   UNK N   1      36.654  14.179   4.241  0.00  0.00     0.096 A 
HETATM   47  N   UNK N   1      36.913  14.489   5.569  0.00  0.00    -0.365 N 
HETATM   48  C   UNK N   1      36.194  13.661   6.260  0.00  0.00     0.042 A 
HETATM   49  H   UNK N   1      37.514  15.189   5.914  0.00  0.00     0.165 HD
HETATM   50  C   UNK N   1      35.514  12.806   5.536  0.00  0.00    -0.002 A 
HETATM   51  C   UNK N   1      36.016  13.523   7.697  0.00  0.00     0.030 A 
HETATM   52  C   UNK N   1      34.792  11.866   6.035  0.00  0.00     0.014 A 
HETATM   53  C   UNK N   1      34.518  11.655   7.344  0.00  0.00     0.001 A 
HETATM   54  C   UNK N   1      35.149  12.519   8.205  0.00  0.00     0.002 A 
ENDBRANCH  44  45
ENDBRANCH  25  44
BRANCH  21  55
HETATM   55  C   UNK N   1      32.486  14.424   5.086  0.00  0.00     0.073 C 
BRANCH  55  56
HETATM   56  C   UNK N   1      32.911  15.180   6.217  0.00  0.00    -0.056 C 
HETATM   57  C   UNK N   1      31.939  15.195   7.188  0.00  0.00     0.007 C 
HETATM   58  C   UNK N   1      31.616  16.388   7.796  0.00  0.00     0.001 C 
HETATM   59  C   UNK N   1      32.277  17.559   7.421  0.00  0.00     0.000 C 
HETATM   60  C   UNK N   1      33.371  17.507   6.551  0.00  0.00     0.001 C 
HETATM   61  C   UNK N   1      33.694  16.307   5.937  0.00  0.00     0.007 C 
ENDBRANCH  55  56
ENDBRANCH  21  55
BRANCH  29  62
HETATM   62  C   UNK N   1      34.731  11.647  -0.046  0.00  0.00     0.049 C 
BRANCH  62  63
HETATM   63  C   UNK N   1      35.789  10.475   0.469  0.00  0.00     0.061 C 
HETATM   64  C   UNK N   1      36.141   9.909  -0.664  0.00  0.00     0.070 C 
HETATM   65  N   UNK N   1      36.837  10.885  -1.227  0.00  0.00    -0.368 N 
HETATM   66  C   UNK N   1      37.204  11.659  -0.212  0.00  0.00     0.038 C 
HETATM   67  H   UNK N   1      37.036  11.007  -2.183  0.00  0.00     0.165 HD
HETATM   68  C   UNK N   1      36.931  11.146   0.890  0.00  0.00    -0.022 C 
HETATM   69  C   UNK N   1      37.633  13.020  -0.143  0.00  0.00     0.030 C 
HETATM   70  C   UNK N   1      37.999  11.115   1.795  0.00  0.00     0.010 C 
HETATM   71  C   UNK N   1      38.815  12.290   1.797  0.00  0.00     0.001 C 
HETATM   72  C   UNK N   1      38.415  13.351   0.943  0.00  0.00     0.002 C 
ENDBRANCH  62  63
ENDBRANCH  29  62
BRANCH  33  73
HETATM   73  C   UNK N   1      34.259  13.215  -3.358  0.00  0.00     0.035 C 
BRANCH  73  74
HETATM   74  C   UNK N   1      34.939  14.176  -2.286  0.00  0.00     0.004 C 
BRANCH  74  75
HETATM   75  C   UNK N   1      35.898  15.346  -2.664  0.00  0.00     0.019 C 
BRANCH  75  76
HETATM   76  C   UNK N   1      35.818  15.990  -4.057  0.00  0.00     0.111 C 
BRANCH  76  77
HETATM   77  N   UNK N   1      34.940  17.155  -4.058  0.00  0.00    -0.430 N 
HETATM   78  H   UNK N   1      34.078  17.378  -4.553  0.00  0.00     0.149 HD
HETATM   79  H   UNK N   1      35.255  17.899  -3.436  0.00  0.00     0.149 HD
ENDBRANCH  76  77
ENDBRANCH  75  76
ENDBRANCH  74  75
ENDBRANCH  73  74
ENDBRANCH  33  73
BRANCH   1  80
HETATM   80  C   UNK N   1      34.117   8.713  -5.055  0.00  0.00     0.146 C 
HETATM   81  C   UNK N   1      34.275   7.578  -6.067  0.00  0.00     0.042 C 
BRANCH  80  82
HETATM   82  O   UNK N   1      35.152   9.547  -5.384  0.00  0.00    -0.393 OA
HETATM   83  H   UNK N   1      35.736   9.364  -6.137  0.00  0.00     0.210 HD
ENDBRANCH  80  82
ENDBRANCH   1  80
BRANCH   5  84
HETATM   84  C   UNK N   1      29.068   9.316  -2.884  0.00  0.00     0.046 C 
BRANCH  84  85
HETATM   85  C   UNK N   1      28.613   8.138  -3.541  0.00  0.00     0.033 C 
HETATM   86  C   UNK N   1      28.090   8.487  -4.789  0.00  0.00    -0.018 C 
HETATM   87  C   UNK N   1      26.734   8.538  -4.938  0.00  0.00    -0.003 C 
HETATM   88  C   UNK N   1      25.934   8.071  -3.899  0.00  0.00    -0.001 C 
HETATM   89  C   UNK N   1      26.505   7.433  -2.788  0.00  0.00    -0.003 C 
HETATM   90  C   UNK N   1      27.867   7.451  -2.623  0.00  0.00    -0.018 C 
ENDBRANCH  84  85
ENDBRANCH   5  84
BRANCH   8  91
HETATM   91  C   UNK N   1      28.354   9.257  -0.051  0.00  0.00     0.201 C 
BRANCH  91  92
HETATM   92  C   UNK N   1      28.080   8.970   1.380  0.00  0.00     0.228 C 
HETATM   93  O   UNK N   1      27.181   8.209   1.727  0.00  0.00    -0.272 OA
HETATM   94  N   UNK N   1      29.009   9.352   2.262  0.00  0.00    -0.369 N 
HETATM   95  H   UNK N   1      29.537  10.176   2.368  0.00  0.00     0.159 HD
HETATM   96  H   UNK N   1      29.206   8.670   2.943  0.00  0.00     0.159 HD
ENDBRANCH  91  92
ENDBRANCH   8  91
TORSDOF 17
ENDMDL
MODEL 8
REMARK VINA RESULT:      -5.6      3.558      5.833
REMARK  17 active torsions:
REMARK  status: ('A' for Active; 'I' for Inactive)
REMARK    1  A    between atoms: C_3  and  C_2 
REMARK    2  A    between atoms: C_2  and  O_82 
REMARK    3  A    between atoms: C_7  and  C_75 
REMARK    4  A    between atoms: N_10  and  C_71 
REMARK    5  A    between atoms: C_23  and  C_64 
REMARK    6  A    between atoms: C_27  and  C_54 
REMARK    7  A    between atoms: C_31  and  C_44 
REMARK    8  A    between atoms: C_35  and  C_39 
REMARK    9  A    between atoms: C_39  and  C_40 
REMARK   10  A    between atoms: C_40  and  C_41 
REMARK   11  A    between atoms: C_41  and  C_42 
REMARK   12  A    between atoms: C_42  and  N_43 
REMARK   13  A    between atoms: C_44  and  C_45 
REMARK   14  A    between atoms: C_54  and  C_55 
REMARK   15  A    between atoms: C_64  and  C_65 
REMARK   16  A    between atoms: C_71  and  C_72 
REMARK       I    between atoms: C_72  and  N_74 
REMARK   17  A    between atoms: C_75  and  C_76 
ROOT
HETATM    1  C   UNK N   1      33.951  15.243  10.699  0.00  0.00     0.205 C 
HETATM    2  C   UNK N   1      33.724  15.683   9.315  0.00  0.00     0.243 C 
HETATM    3  O   UNK N   1      33.791  16.869   9.060  0.00  0.00    -0.271 OA
HETATM    4  N   UNK N   1      33.592  14.776   8.321  0.00  0.00    -0.346 N 
HETATM    5  C   UNK N   1      33.602  15.283   7.044  0.00  0.00     0.172 C 
HETATM    6  C   UNK N   1      34.388  14.690   5.953  0.00  0.00     0.223 C 
HETATM    7  O   UNK N   1      35.342  15.326   5.531  0.00  0.00    -0.277 OA
HETATM    8  N   UNK N   1      33.698  13.859   5.150  0.00  0.00    -0.243 NA
HETATM    9  C   UNK N   1      32.831  12.984   5.850  0.00  0.00     0.099 C 
HETATM   10  C   UNK N   1      33.531  11.782   5.917  0.00  0.00     0.024 C 
HETATM   11  C   UNK N   1      32.659  10.826   5.478  0.00  0.00     0.104 C 
HETATM   12  C   UNK N   1      33.319  10.721   4.232  0.00  0.00     0.217 C 
HETATM   13  O   UNK N   1      32.695  10.958   3.218  0.00  0.00    -0.274 OA
HETATM   14  N   UNK N   1      34.413   9.952   4.209  0.00  0.00    -0.361 N 
HETATM   15  C   UNK N   1      34.438   8.988   3.206  0.00  0.00     0.123 C 
HETATM   16  C   UNK N   1      33.086   8.319   3.395  0.00  0.00     0.029 C 
HETATM   17  C   UNK N   1      33.097   7.266   2.465  0.00  0.00     0.104 C 
HETATM   18  C   UNK N   1      33.727   6.140   3.169  0.00  0.00     0.218 C 
HETATM   19  O   UNK N   1      33.306   5.059   2.837  0.00  0.00    -0.274 OA
HETATM   20  N   UNK N   1      34.375   6.250   4.382  0.00  0.00    -0.347 N 
HETATM   21  C   UNK N   1      35.785   6.606   4.641  0.00  0.00     0.180 C 
HETATM   22  C   UNK N   1      36.004   7.469   5.777  0.00  0.00     0.241 C 
HETATM   23  O   UNK N   1      36.241   6.908   6.828  0.00  0.00    -0.271 OA
HETATM   24  N   UNK N   1      36.355   8.787   5.583  0.00  0.00    -0.346 N 
HETATM   25  C   UNK N   1      37.689   9.253   5.152  0.00  0.00     0.181 C 
HETATM   26  C   UNK N   1      37.960  10.749   5.164  0.00  0.00     0.241 C 
HETATM   27  O   UNK N   1      39.078  11.149   4.857  0.00  0.00    -0.271 OA
HETATM   28  N   UNK N   1      37.192  11.581   5.866  0.00  0.00    -0.346 N 
HETATM   29  C   UNK N   1      36.381  11.073   6.926  0.00  0.00     0.177 C 
HETATM   30  C   UNK N   1      35.538  12.026   7.404  0.00  0.00     0.241 C 
HETATM   31  O   UNK N   1      35.909  13.197   7.324  0.00  0.00    -0.271 OA
HETATM   32  N   UNK N   1      34.580  11.528   8.263  0.00  0.00    -0.346 N 
HETATM   33  C   UNK N   1      34.292  11.926   9.626  0.00  0.00     0.176 C 
HETATM   34  C   UNK N   1      34.727  13.163   9.936  0.00  0.00     0.241 C 
HETATM   35  O   UNK N   1      35.790  13.598   9.563  0.00  0.00    -0.271 OA
HETATM   36  N   UNK N   1      33.876  13.852  10.673  0.00  0.00    -0.344 N 
HETATM   37  H   UNK N   1      33.495  13.813   8.502  0.00  0.00     0.163 HD
HETATM   38  H   UNK N   1      35.148  10.060   4.855  0.00  0.00     0.162 HD
HETATM   39  H   UNK N   1      33.826   6.069   5.178  0.00  0.00     0.163 HD
HETATM   40  H   UNK N   1      35.664   9.471   5.744  0.00  0.00     0.163 HD
HETATM   41  H   UNK N   1      37.184  12.543   5.654  0.00  0.00     0.163 HD
HETATM   42  H   UNK N   1      34.018  10.805   7.902  0.00  0.00     0.163 HD
HETATM   43  H   UNK N   1      33.191  13.385  11.204  0.00  0.00     0.163 HD
ENDROOT
BRANCH  25  44
HETATM   44  C   UNK N   1      38.625   8.966   6.225  0.00  0.00     0.075 C 
BRANCH  44  45
HETATM   45  C   UNK N   1      39.664   8.082   5.787  0.00  0.00    -0.028 A 
HETATM   46  C   UNK N   1      40.561   8.217   4.787  0.00  0.00     0.096 A 
HETATM   47  N   UNK N   1      41.420   7.129   4.870  0.00  0.00    -0.365 N 
HETATM   48  C   UNK N   1      41.004   6.442   5.888  0.00  0.00     0.042 A 
HETATM   49  H   UNK N   1      42.182   6.924   4.282  0.00  0.00     0.165 HD
HETATM   50  C   UNK N   1      39.936   6.934   6.467  0.00  0.00    -0.002 A 
HETATM   51  C   UNK N   1      41.522   5.225   6.490  0.00  0.00     0.030 A 
HETATM   52  C   UNK N   1      39.335   6.365   7.452  0.00  0.00     0.014 A 
HETATM   53  C   UNK N   1      39.734   5.257   8.121  0.00  0.00     0.001 A 
HETATM   54  C   UNK N   1      40.872   4.670   7.624  0.00  0.00     0.002 A 
ENDBRANCH  44  45
ENDBRANCH  25  44
BRANCH  21  55
HETATM   55  C   UNK N   1      36.793   7.022   3.556  0.00  0.00     0.073 C 
BRANCH  55  56
HETATM   56  C   UNK N   1      37.358   5.811   3.060  0.00  0.00    -0.056 C 
HETATM   57  C   UNK N   1      37.493   4.887   4.068  0.00  0.00     0.007 C 
HETATM   58  C   UNK N   1      38.676   4.193   4.189  0.00  0.00     0.001 C 
HETATM   59  C   UNK N   1      39.717   4.434   3.290  0.00  0.00     0.000 C 
HETATM   60  C   UNK N   1      39.514   5.255   2.176  0.00  0.00     0.001 C 
HETATM   61  C   UNK N   1      38.324   5.957   2.057  0.00  0.00     0.007 C 
ENDBRANCH  55  56
ENDBRANCH  21  55
BRANCH  29  62
HETATM   62  C   UNK N   1      37.088  11.069   8.313  0.00  0.00     0.049 C 
BRANCH  62  63
HETATM   63  C   UNK N   1      38.654  11.618   8.291  0.00  0.00     0.061 C 
HETATM   64  C   UNK N   1      38.617  12.585   9.181  0.00  0.00     0.070 C 
HETATM   65  N   UNK N   1      38.430  11.894  10.295  0.00  0.00    -0.368 N 
HETATM   66  C   UNK N   1      38.856  10.670  10.003  0.00  0.00     0.038 C 
HETATM   67  H   UNK N   1      38.058  12.217  11.147  0.00  0.00     0.165 HD
HETATM   68  C   UNK N   1      39.419  10.624   8.891  0.00  0.00    -0.022 C 
HETATM   69  C   UNK N   1      38.606   9.394  10.594  0.00  0.00     0.030 C 
HETATM   70  C   UNK N   1      40.676  10.008   8.904  0.00  0.00     0.010 C 
HETATM   71  C   UNK N   1      40.766   8.850   9.739  0.00  0.00     0.001 C 
HETATM   72  C   UNK N   1      39.576   8.436  10.393  0.00  0.00     0.002 C 
ENDBRANCH  62  63
ENDBRANCH  29  62
BRANCH  33  73
HETATM   73  C   UNK N   1      34.468  11.059  10.918  0.00  0.00     0.035 C 
BRANCH  73  74
HETATM   74  C   UNK N   1      33.427   9.866  11.076  0.00  0.00     0.004 C 
BRANCH  74  75
HETATM   75  C   UNK N   1      33.771   8.376  10.772  0.00  0.00     0.019 C 
BRANCH  75  76
HETATM   76  C   UNK N   1      33.143   7.673   9.558  0.00  0.00     0.111 C 
BRANCH  76  77
HETATM   77  N   UNK N   1      33.702   8.166   8.306  0.00  0.00    -0.430 N 
HETATM   78  H   UNK N   1      33.463   8.014   7.326  0.00  0.00     0.149 HD
HETATM   79  H   UNK N   1      34.496   8.792   8.436  0.00  0.00     0.149 HD
ENDBRANCH  76  77
ENDBRANCH  75  76
ENDBRANCH  74  75
ENDBRANCH  73  74
ENDBRANCH  33  73
BRANCH   1  80
HETATM   80  C   UNK N   1      35.288  15.792  11.233  0.00  0.00     0.146 C 
HETATM   81  C   UNK N   1      36.153  14.950  12.172  0.00  0.00     0.042 C 
BRANCH  80  82
HETATM   82  O   UNK N   1      36.079  15.897  10.120  0.00  0.00    -0.393 OA
HETATM   83  H   UNK N   1      36.974  15.524  10.092  0.00  0.00     0.210 HD
ENDBRANCH  80  82
ENDBRANCH   1  80
BRANCH   5  84
HETATM   84  C   UNK N   1      32.210  15.431   6.655  0.00  0.00     0.046 C 
BRANCH  84  85
HETATM   85  C   UNK N   1      31.991  16.837   6.666  0.00  0.00     0.033 C 
HETATM   86  C   UNK N   1      30.819  17.108   7.377  0.00  0.00    -0.018 C 
HETATM   87  C   UNK N   1      29.685  17.403   6.678  0.00  0.00    -0.003 C 
HETATM   88  C   UNK N   1      29.784  17.595   5.302  0.00  0.00    -0.001 C 
HETATM   89  C   UNK N   1      31.036  17.625   4.673  0.00  0.00    -0.003 C 
HETATM   90  C   UNK N   1      32.157  17.261   5.377  0.00  0.00    -0.018 C 
ENDBRANCH  84  85
ENDBRANCH   5  84
BRANCH   8  91
HETATM   91  C   UNK N   1      33.080  14.517   4.019  0.00  0.00     0.201 C 
BRANCH  91  92
HETATM   92  C   UNK N   1      33.601  14.163   2.674  0.00  0.00     0.228 C 
HETATM   93  O   UNK N   1      34.797  14.222   2.407  0.00  0.00    -0.272 OA
HETATM   94  N   UNK N   1      32.763  13.525   1.850  0.00  0.00    -0.369 N 
HETATM   95  H   UNK N   1      31.815  13.658   1.619  0.00  0.00     0.159 HD
HETATM   96  H   UNK N   1      33.178  12.766   1.380  0.00  0.00     0.159 HD
ENDBRANCH  91  92
ENDBRANCH   8  91
TORSDOF 17
ENDMDL
MODEL 9
REMARK VINA RESULT:      -5.5      8.004     12.954
REMARK  17 active torsions:
REMARK  status: ('A' for Active; 'I' for Inactive)
REMARK    1  A    between atoms: C_3  and  C_2 
REMARK    2  A    between atoms: C_2  and  O_82 
REMARK    3  A    between atoms: C_7  and  C_75 
REMARK    4  A    between atoms: N_10  and  C_71 
REMARK    5  A    between atoms: C_23  and  C_64 
REMARK    6  A    between atoms: C_27  and  C_54 
REMARK    7  A    between atoms: C_31  and  C_44 
REMARK    8  A    between atoms: C_35  and  C_39 
REMARK    9  A    between atoms: C_39  and  C_40 
REMARK   10  A    between atoms: C_40  and  C_41 
REMARK   11  A    between atoms: C_41  and  C_42 
REMARK   12  A    between atoms: C_42  and  N_43 
REMARK   13  A    between atoms: C_44  and  C_45 
REMARK   14  A    between atoms: C_54  and  C_55 
REMARK   15  A    between atoms: C_64  and  C_65 
REMARK   16  A    between atoms: C_71  and  C_72 
REMARK       I    between atoms: C_72  and  N_74 
REMARK   17  A    between atoms: C_75  and  C_76 
ROOT
HETATM    1  C   UNK N   1      36.027  13.416  10.804  0.00  0.00     0.205 C 
HETATM    2  C   UNK N   1      35.743  13.161  12.223  0.00  0.00     0.243 C 
HETATM    3  O   UNK N   1      34.828  13.758  12.753  0.00  0.00    -0.271 OA
HETATM    4  N   UNK N   1      36.390  12.174  12.884  0.00  0.00    -0.346 N 
HETATM    5  C   UNK N   1      35.903  11.873  14.134  0.00  0.00     0.172 C 
HETATM    6  C   UNK N   1      35.679  10.496  14.595  0.00  0.00     0.223 C 
HETATM    7  O   UNK N   1      34.524  10.133  14.755  0.00  0.00    -0.277 OA
HETATM    8  N   UNK N   1      36.677   9.982  15.337  0.00  0.00    -0.243 NA
HETATM    9  C   UNK N   1      37.969  10.275  14.833  0.00  0.00     0.099 C 
HETATM   10  C   UNK N   1      38.345   9.121  14.151  0.00  0.00     0.024 C 
HETATM   11  C   UNK N   1      39.592   8.812  14.615  0.00  0.00     0.104 C 
HETATM   12  C   UNK N   1      39.093   7.748  15.401  0.00  0.00     0.217 C 
HETATM   13  O   UNK N   1      39.265   7.777  16.602  0.00  0.00    -0.274 OA
HETATM   14  N   UNK N   1      38.879   6.594  14.760  0.00  0.00    -0.361 N 
HETATM   15  C   UNK N   1      39.456   5.473  15.349  0.00  0.00     0.123 C 
HETATM   16  C   UNK N   1      40.891   5.938  15.543  0.00  0.00     0.029 C 
HETATM   17  C   UNK N   1      41.547   4.804  16.049  0.00  0.00     0.104 C 
HETATM   18  C   UNK N   1      41.977   4.049  14.863  0.00  0.00     0.218 C 
HETATM   19  O   UNK N   1      43.010   3.444  15.016  0.00  0.00    -0.274 OA
HETATM   20  N   UNK N   1      41.560   4.325  13.577  0.00  0.00    -0.347 N 
HETATM   21  C   UNK N   1      40.350   3.842  12.881  0.00  0.00     0.180 C 
HETATM   22  C   UNK N   1      39.688   4.818  12.049  0.00  0.00     0.241 C 
HETATM   23  O   UNK N   1      40.019   4.828  10.880  0.00  0.00    -0.271 OA
HETATM   24  N   UNK N   1      38.486   5.361  12.449  0.00  0.00    -0.346 N 
HETATM   25  C   UNK N   1      37.186   4.659  12.413  0.00  0.00     0.181 C 
HETATM   26  C   UNK N   1      35.933   5.463  12.716  0.00  0.00     0.241 C 
HETATM   27  O   UNK N   1      34.842   4.908  12.643  0.00  0.00    -0.271 OA
HETATM   28  N   UNK N   1      35.938   6.794  12.654  0.00  0.00    -0.346 N 
HETATM   29  C   UNK N   1      36.962   7.465  11.918  0.00  0.00     0.177 C 
HETATM   30  C   UNK N   1      36.912   8.809  12.114  0.00  0.00     0.241 C 
HETATM   31  O   UNK N   1      35.813   9.301  12.364  0.00  0.00    -0.271 OA
HETATM   32  N   UNK N   1      38.013   9.475  11.615  0.00  0.00    -0.346 N 
HETATM   33  C   UNK N   1      38.055  10.564  10.659  0.00  0.00     0.176 C 
HETATM   34  C   UNK N   1      36.900  11.250  10.563  0.00  0.00     0.241 C 
HETATM   35  O   UNK N   1      35.817  10.717  10.579  0.00  0.00    -0.271 OA
HETATM   36  N   UNK N   1      37.068  12.556  10.463  0.00  0.00    -0.344 N 
HETATM   37  H   UNK N   1      37.161  11.701  12.493  0.00  0.00     0.163 HD
HETATM   38  H   UNK N   1      38.350   6.541  13.931  0.00  0.00     0.162 HD
HETATM   39  H   UNK N   1      42.145   4.922  13.056  0.00  0.00     0.163 HD
HETATM   40  H   UNK N   1      38.494   6.288  12.782  0.00  0.00     0.163 HD
HETATM   41  H   UNK N   1      35.239   7.314  13.113  0.00  0.00     0.163 HD
HETATM   42  H   UNK N   1      38.886   9.170  11.952  0.00  0.00     0.163 HD
HETATM   43  H   UNK N   1      37.926  12.920  10.147  0.00  0.00     0.163 HD
ENDROOT
BRANCH  25  44
HETATM   44  C   UNK N   1      36.840   4.440  11.020  0.00  0.00     0.075 C 
BRANCH  44  45
HETATM   45  C   UNK N   1      36.765   3.043  10.715  0.00  0.00    -0.028 A 
HETATM   46  C   UNK N   1      36.071   2.054  11.317  0.00  0.00     0.096 A 
HETATM   47  N   UNK N   1      36.254   0.911  10.550  0.00  0.00    -0.365 N 
HETATM   48  C   UNK N   1      37.010   1.280   9.564  0.00  0.00     0.042 A 
HETATM   49  H   UNK N   1      35.888   0.013  10.719  0.00  0.00     0.165 HD
HETATM   50  C   UNK N   1      37.383   2.535   9.613  0.00  0.00    -0.002 A 
HETATM   51  C   UNK N   1      37.510   0.536   8.418  0.00  0.00     0.030 A 
HETATM   52  C   UNK N   1      38.185   3.073   8.763  0.00  0.00     0.014 A 
HETATM   53  C   UNK N   1      38.687   2.503   7.641  0.00  0.00     0.001 A 
HETATM   54  C   UNK N   1      38.331   1.190   7.461  0.00  0.00     0.002 A 
ENDBRANCH  44  45
ENDBRANCH  25  44
BRANCH  21  55
HETATM   55  C   UNK N   1      39.253   2.984  13.533  0.00  0.00     0.073 C 
BRANCH  55  56
HETATM   56  C   UNK N   1      39.686   1.632  13.409  0.00  0.00    -0.056 C 
HETATM   57  C   UNK N   1      40.234   1.406  12.170  0.00  0.00     0.007 C 
HETATM   58  C   UNK N   1      39.867   0.280  11.467  0.00  0.00     0.001 C 
HETATM   59  C   UNK N   1      38.948  -0.614  12.021  0.00  0.00     0.000 C 
HETATM   60  C   UNK N   1      38.520  -0.460  13.344  0.00  0.00     0.001 C 
HETATM   61  C   UNK N   1      38.888   0.676  14.050  0.00  0.00     0.007 C 
ENDBRANCH  55  56
ENDBRANCH  21  55
BRANCH  29  62
HETATM   62  C   UNK N   1      36.601   7.717  10.424  0.00  0.00     0.049 C 
BRANCH  62  63
HETATM   63  C   UNK N   1      35.172   7.029   9.934  0.00  0.00     0.061 C 
HETATM   64  C   UNK N   1      34.470   8.083   9.579  0.00  0.00     0.070 C 
HETATM   65  N   UNK N   1      35.136   8.479   8.505  0.00  0.00    -0.368 N 
HETATM   66  C   UNK N   1      35.792   7.396   8.103  0.00  0.00     0.038 C 
HETATM   67  H   UNK N   1      35.142   9.375   8.098  0.00  0.00     0.165 HD
HETATM   68  C   UNK N   1      35.448   6.379   8.736  0.00  0.00    -0.022 C 
HETATM   69  C   UNK N   1      36.938   7.216   7.270  0.00  0.00     0.030 C 
HETATM   70  C   UNK N   1      35.110   5.284   7.933  0.00  0.00     0.010 C 
HETATM   71  C   UNK N   1      35.950   5.098   6.790  0.00  0.00     0.001 C 
HETATM   72  C   UNK N   1      37.043   5.992   6.645  0.00  0.00     0.002 C 
ENDBRANCH  62  63
ENDBRANCH  29  62
BRANCH  33  73
HETATM   73  C   UNK N   1      38.670  10.531   9.220  0.00  0.00     0.035 C 
BRANCH  73  74
HETATM   74  C   UNK N   1      40.164   9.990   9.137  0.00  0.00     0.004 C 
BRANCH  74  75
HETATM   75  C   UNK N   1      40.528   8.480   8.992  0.00  0.00     0.019 C 
BRANCH  75  76
HETATM   76  C   UNK N   1      41.572   7.846   9.925  0.00  0.00     0.111 C 
BRANCH  76  77
HETATM   77  N   UNK N   1      41.122   7.846  11.311  0.00  0.00    -0.430 N 
HETATM   78  H   UNK N   1      40.414   8.379  11.816  0.00  0.00     0.149 HD
HETATM   79  H   UNK N   1      41.617   7.174  11.897  0.00  0.00     0.149 HD
ENDBRANCH  76  77
ENDBRANCH  75  76
ENDBRANCH  74  75
ENDBRANCH  73  74
ENDBRANCH  33  73
BRANCH   1  80
HETATM   80  C   UNK N   1      34.755  13.234   9.952  0.00  0.00     0.146 C 
HETATM   81  C   UNK N   1      33.787  14.399   9.745  0.00  0.00     0.042 C 
BRANCH  80  82
HETATM   82  O   UNK N   1      35.226  13.014   8.686  0.00  0.00    -0.393 OA
HETATM   83  H   UNK N   1      35.540  13.740   8.124  0.00  0.00     0.210 HD
ENDBRANCH  80  82
ENDBRANCH   1  80
BRANCH   5  84
HETATM   84  C   UNK N   1      36.730  12.605  15.078  0.00  0.00     0.046 C 
BRANCH  84  85
HETATM   85  C   UNK N   1      35.999  13.799  15.330  0.00  0.00     0.033 C 
HETATM   86  C   UNK N   1      36.882  14.882  15.323  0.00  0.00    -0.018 C 
HETATM   87  C   UNK N   1      37.270  15.417  16.517  0.00  0.00    -0.003 C 
HETATM   88  C   UNK N   1      36.637  14.978  17.678  0.00  0.00    -0.001 C 
HETATM   89  C   UNK N   1      35.533  14.117  17.608  0.00  0.00    -0.003 C 
HETATM   90  C   UNK N   1      35.200  13.538  16.409  0.00  0.00    -0.018 C 
ENDBRANCH  84  85
ENDBRANCH   5  84
BRANCH   8  91
HETATM   91  C   UNK N   1      36.533  10.221  16.757  0.00  0.00     0.201 C 
BRANCH  91  92
HETATM   92  C   UNK N   1      36.283   9.034  17.613  0.00  0.00     0.228 C 
HETATM   93  O   UNK N   1      35.477   8.165  17.294  0.00  0.00    -0.272 OA
HETATM   94  N   UNK N   1      37.153   8.807  18.603  0.00  0.00    -0.369 N 
HETATM   95  H   UNK N   1      37.579   9.391  19.270  0.00  0.00     0.159 HD
HETATM   96  H   UNK N   1      37.423   7.864  18.678  0.00  0.00     0.159 HD
ENDBRANCH  91  92
ENDBRANCH   8  91
TORSDOF 17
ENDMDL
