REMARK  5 active torsions:
REMARK  status: ('A' for Active; 'I' for Inactive)
REMARK    1  A    between atoms: O_2  and  C_3 
REMARK    2  A    between atoms: C_3  and  C_5 
REMARK    3  A    between atoms: C_6  and  C_5 
REMARK    4  A    between atoms: C_6  and  C_13 
REMARK    5  A    between atoms: C_13  and  N_14 
ROOT
HETATM    1  C   UNK N   1       1.599   1.234  -0.079  0.00  0.00    -0.015 C 
HETATM    2  C   UNK N   1       0.430   0.660   0.700  0.00  0.00     0.016 C 
HETATM    3  C   UNK N   1      -0.516   1.820   0.965  0.00  0.00    -0.010 A 
HETATM    4  C   UNK N   1      -1.837   1.547   0.270  0.00  0.00     0.005 A 
HETATM    5  C   UNK N   1      -1.506   2.596  -0.775  0.00  0.00     0.005 A 
HETATM    6  C   UNK N   1      -0.188   2.883  -0.075  0.00  0.00    -0.010 A 
HETATM    7  C   UNK N   1       0.968   2.337  -0.907  0.00  0.00     0.016 C 
ENDROOT
BRANCH   1   8
HETATM    8  C   UNK N   1       2.636   1.815   0.906  0.00  0.00     0.122 C 
BRANCH   8   9
HETATM    9  C   UNK N   1       3.956   2.189   0.287  0.00  0.00     0.259 C 
HETATM   10  O   UNK N   1       4.708   1.310  -0.110  0.00  0.00    -0.265 OA
BRANCH   9  11
HETATM   11  O   UNK N   1       4.325   3.491   0.223  0.00  0.00    -0.326 OA
HETATM   12  C   UNK N   1       5.536   3.881  -0.303  0.00  0.00     0.213 C 
ENDBRANCH   9  11
ENDBRANCH   8   9
ENDBRANCH   1   8
BRANCH   1  13
HETATM   13  C   UNK N   1       2.180   0.165  -1.005  0.00  0.00     0.121 C 
BRANCH  13  14
HETATM   14  N   UNK N   1       2.708  -0.960  -0.249  0.00  0.00    -0.429 N 
HETATM   15  H   UNK N   1       2.210  -1.676   0.281  0.00  0.00     0.149 HD
HETATM   16  H   UNK N   1       3.724  -1.047  -0.249  0.00  0.00     0.149 HD
ENDBRANCH  13  14
ENDBRANCH   1  13
TORSDOF 5
