MODEL 1
REMARK VINA RESULT:      -8.5      0.000      0.000
REMARK  5 active torsions:
REMARK  status: ('A' for Active; 'I' for Inactive)
REMARK    1  A    between atoms: C_9  and  C_12 
REMARK       I    between atoms: C_16  and  N_21 
REMARK    2  A    between atoms: N_21  and  C_22 
REMARK    3  A    between atoms: C_22  and  C_23 
REMARK    4  A    between atoms: C_23  and  C_24 
REMARK    5  A    between atoms: C_24  and  C_25 
ROOT
HETATM    1  C   UNK N   1      35.493  15.036  11.081  0.00  0.00     0.047 A 
HETATM    2  C   UNK N   1      35.246  16.403  11.043  0.00  0.00     0.123 A 
HETATM    3  N   UNK N   1      34.925  17.003   9.879  0.00  0.00    -0.201 N 
ATOM      4  HN  UNK N   1      34.727  18.004   9.873  1.00  0.00     0.183 HD
HETATM    5  C   UNK N   1      34.863  16.307   8.720  0.00  0.00     0.678 A 
HETATM    6  N   UNK N   1      35.145  14.976   8.712  0.00  0.00    -0.195 N 
ATOM      7  HN  UNK N   1      35.130  14.464   7.831  1.00  0.00     0.184 HD
HETATM    8  C   UNK N   1      35.449  14.318   9.866  0.00  0.00     0.038 A 
HETATM    9  C   UNK N   1      35.694  12.850   9.805  0.00  0.00     0.070 C 
HETATM   10  N   UNK N   1      34.450  16.948   7.525  0.00  0.00    -0.226 N 
HETATM   11  H   UNK N   1      34.751  16.573   6.666  0.00  0.00     0.177 HD
ENDROOT
BRANCH   1  12
HETATM   12  C   UNK N   1      35.704  14.432  12.409  0.00  0.00     0.120 A 
HETATM   13  N   UNK N   1      35.128  13.278  12.834  0.00  0.00    -0.340 N 
HETATM   14  C   UNK N   1      35.471  13.210  14.128  0.00  0.00     0.061 A 
HETATM   15  H   UNK N   1      34.586  12.640  12.314  0.00  0.00     0.167 HD
HETATM   16  C   UNK N   1      36.234  14.286  14.460  0.00  0.00     0.066 A 
HETATM   17  C   UNK N   1      35.109  12.246  15.063  0.00  0.00     0.038 A 
HETATM   18  C   UNK N   1      36.715  14.484  15.750  0.00  0.00    -0.032 A 
HETATM   19  N   UNK N   1      36.391  15.070  13.391  0.00  0.00    -0.339 N 
HETATM   20  C   UNK N   1      36.371  13.533  16.727  0.00  0.00     0.015 A 
HETATM   21  C   UNK N   1      37.548  15.669  16.098  0.00  0.00     0.050 C 
HETATM   22  C   UNK N   1      35.566  12.419  16.385  0.00  0.00    -0.059 A 
HETATM   23  C   UNK N   1      35.188  11.435  17.431  0.00  0.00     0.048 C 
ATOM     24  HN  UNK N   1      36.910  15.947  13.325  1.00  0.00     0.167 HD
ENDBRANCH   1  12
BRANCH  10  25
HETATM   25  C   UNK N   1      33.607  18.131   7.504  0.00  0.00     0.138 C 
BRANCH  25  26
HETATM   26  C   UNK N   1      32.172  17.914   8.013  0.00  0.00     0.020 C 
BRANCH  26  27
HETATM   27  C   UNK N   1      31.366  16.844   7.258  0.00  0.00     0.006 C 
BRANCH  27  28
HETATM   28  C   UNK N   1      29.858  17.064   7.332  0.00  0.00    -0.011 C 
HETATM   29  C   UNK N   1      29.355  17.505   5.944  0.00  0.00     0.034 C 
HETATM   30  C   UNK N   1      28.068  18.310   6.023  0.00  0.00     0.272 C 
HETATM   31  N   UNK N   1      28.260  19.402   6.964  0.00  0.00     0.084 N 
HETATM   32  C   UNK N   1      28.273  18.808   8.292  0.00  0.00     0.272 C 
HETATM   33  C   UNK N   1      27.106  20.276   6.877  0.00  0.00     0.309 C 
HETATM   34  C   UNK N   1      29.578  18.053   8.475  0.00  0.00     0.034 C 
ENDBRANCH  27  28
ENDBRANCH  26  27
ENDBRANCH  25  26
ENDBRANCH  10  25
TORSDOF 5
ENDMDL
MODEL 2
REMARK VINA RESULT:      -8.5      1.878     10.366
REMARK  5 active torsions:
REMARK  status: ('A' for Active; 'I' for Inactive)
REMARK    1  A    between atoms: C_9  and  C_12 
REMARK       I    between atoms: C_16  and  N_21 
REMARK    2  A    between atoms: N_21  and  C_22 
REMARK    3  A    between atoms: C_22  and  C_23 
REMARK    4  A    between atoms: C_23  and  C_24 
REMARK    5  A    between atoms: C_24  and  C_25 
ROOT
HETATM    1  C   UNK N   1      33.209  16.096   9.183  0.00  0.00     0.047 A 
HETATM    2  C   UNK N   1      33.150  14.996  10.029  0.00  0.00     0.123 A 
HETATM    3  N   UNK N   1      34.163  14.738  10.880  0.00  0.00    -0.201 N 
ATOM      4  HN  UNK N   1      34.094  13.938  11.509  1.00  0.00     0.183 HD
HETATM    5  C   UNK N   1      35.271  15.517  10.916  0.00  0.00     0.678 A 
HETATM    6  N   UNK N   1      35.383  16.574  10.068  0.00  0.00    -0.195 N 
ATOM      7  HN  UNK N   1      36.233  17.137  10.076  1.00  0.00     0.184 HD
HETATM    8  C   UNK N   1      34.375  16.892   9.208  0.00  0.00     0.038 A 
HETATM    9  C   UNK N   1      34.531  18.095   8.342  0.00  0.00     0.070 C 
HETATM   10  N   UNK N   1      36.286  15.267  11.871  0.00  0.00    -0.226 N 
HETATM   11  H   UNK N   1      37.202  15.565  11.668  0.00  0.00     0.177 HD
ENDROOT
BRANCH   1  12
HETATM   12  C   UNK N   1      32.008  16.388   8.381  0.00  0.00     0.120 A 
HETATM   13  N   UNK N   1      31.921  16.239   7.034  0.00  0.00    -0.340 N 
HETATM   14  C   UNK N   1      30.727  16.768   6.732  0.00  0.00     0.061 A 
HETATM   15  H   UNK N   1      32.581  15.837   6.422  0.00  0.00     0.167 HD
HETATM   16  C   UNK N   1      30.119  17.211   7.865  0.00  0.00     0.066 A 
HETATM   17  C   UNK N   1      30.148  16.919   5.477  0.00  0.00     0.038 A 
HETATM   18  C   UNK N   1      28.871  17.826   7.845  0.00  0.00    -0.032 A 
HETATM   19  N   UNK N   1      30.910  16.982   8.917  0.00  0.00    -0.339 N 
HETATM   20  C   UNK N   1      28.251  17.999   6.596  0.00  0.00     0.015 A 
HETATM   21  C   UNK N   1      28.220  18.306   9.095  0.00  0.00     0.050 C 
HETATM   22  C   UNK N   1      28.889  17.550   5.414  0.00  0.00    -0.059 A 
HETATM   23  C   UNK N   1      28.235  17.761   4.098  0.00  0.00     0.048 C 
ATOM     24  HN  UNK N   1      30.731  17.202   9.897  1.00  0.00     0.167 HD
ENDBRANCH   1  12
BRANCH  10  25
HETATM   25  C   UNK N   1      36.045  14.593  13.136  0.00  0.00     0.138 C 
BRANCH  25  26
HETATM   26  C   UNK N   1      36.530  13.135  13.197  0.00  0.00     0.020 C 
BRANCH  26  27
HETATM   27  C   UNK N   1      36.976  12.652  14.587  0.00  0.00     0.006 C 
BRANCH  27  28
HETATM   28  C   UNK N   1      35.810  12.295  15.503  0.00  0.00    -0.011 C 
HETATM   29  C   UNK N   1      35.688  13.380  16.592  0.00  0.00     0.034 C 
HETATM   30  C   UNK N   1      35.017  12.861  17.853  0.00  0.00     0.272 C 
HETATM   31  N   UNK N   1      35.707  11.656  18.285  0.00  0.00     0.084 N 
HETATM   32  C   UNK N   1      35.336  10.607  17.347  0.00  0.00     0.272 C 
HETATM   33  C   UNK N   1      35.194  11.289  19.590  0.00  0.00     0.309 C 
HETATM   34  C   UNK N   1      36.035  10.867  16.024  0.00  0.00     0.034 C 
ENDBRANCH  27  28
ENDBRANCH  26  27
ENDBRANCH  25  26
ENDBRANCH  10  25
TORSDOF 5
ENDMDL
MODEL 3
REMARK VINA RESULT:      -8.2      3.177     10.644
REMARK  5 active torsions:
REMARK  status: ('A' for Active; 'I' for Inactive)
REMARK    1  A    between atoms: C_9  and  C_12 
REMARK       I    between atoms: C_16  and  N_21 
REMARK    2  A    between atoms: N_21  and  C_22 
REMARK    3  A    between atoms: C_22  and  C_23 
REMARK    4  A    between atoms: C_23  and  C_24 
REMARK    5  A    between atoms: C_24  and  C_25 
ROOT
HETATM    1  C   UNK N   1      35.716  14.127  10.470  0.00  0.00     0.047 A 
HETATM    2  C   UNK N   1      34.870  13.862  11.539  0.00  0.00     0.123 A 
HETATM    3  N   UNK N   1      35.372  13.440  12.715  0.00  0.00    -0.201 N 
ATOM      4  HN  UNK N   1      34.738  13.270  13.496  1.00  0.00     0.183 HD
HETATM    5  C   UNK N   1      36.700  13.234  12.883  0.00  0.00     0.678 A 
HETATM    6  N   UNK N   1      37.553  13.437  11.843  0.00  0.00    -0.195 N 
ATOM      7  HN  UNK N   1      38.548  13.248  11.965  1.00  0.00     0.184 HD
HETATM    8  C   UNK N   1      37.098  13.890  10.642  0.00  0.00     0.038 A 
HETATM    9  C   UNK N   1      38.086  14.148   9.556  0.00  0.00     0.070 C 
HETATM   10  N   UNK N   1      37.209  12.861  14.151  0.00  0.00    -0.226 N 
HETATM   11  H   UNK N   1      38.062  12.370  14.187  0.00  0.00     0.177 HD
ENDROOT
BRANCH   1  12
HETATM   12  C   UNK N   1      35.107  14.713   9.263  0.00  0.00     0.120 A 
HETATM   13  N   UNK N   1      34.868  14.037   8.110  0.00  0.00    -0.340 N 
HETATM   14  C   UNK N   1      34.468  14.992   7.258  0.00  0.00     0.061 A 
HETATM   15  H   UNK N   1      34.966  13.072   7.938  0.00  0.00     0.167 HD
HETATM   16  C   UNK N   1      34.461  16.198   7.888  0.00  0.00     0.066 A 
HETATM   17  C   UNK N   1      34.136  14.860   5.914  0.00  0.00     0.038 A 
HETATM   18  C   UNK N   1      34.105  17.373   7.235  0.00  0.00    -0.032 A 
HETATM   19  N   UNK N   1      34.862  16.045   9.153  0.00  0.00    -0.339 N 
HETATM   20  C   UNK N   1      33.763  17.284   5.874  0.00  0.00     0.015 A 
HETATM   21  C   UNK N   1      34.104  18.686   7.939  0.00  0.00     0.050 C 
HETATM   22  C   UNK N   1      33.783  16.031   5.214  0.00  0.00    -0.059 A 
HETATM   23  C   UNK N   1      33.445  15.954   3.770  0.00  0.00     0.048 C 
ATOM     24  HN  UNK N   1      34.961  16.762   9.871  1.00  0.00     0.167 HD
ENDBRANCH   1  12
BRANCH  10  25
HETATM   25  C   UNK N   1      36.537  13.167  15.403  0.00  0.00     0.138 C 
BRANCH  25  26
HETATM   26  C   UNK N   1      35.804  11.982  16.052  0.00  0.00     0.020 C 
BRANCH  26  27
HETATM   27  C   UNK N   1      35.324  12.219  17.494  0.00  0.00     0.006 C 
BRANCH  27  28
HETATM   28  C   UNK N   1      35.515  11.006  18.399  0.00  0.00    -0.011 C 
HETATM   29  C   UNK N   1      34.572   9.883  17.924  0.00  0.00     0.034 C 
HETATM   30  C   UNK N   1      34.223   8.910  19.037  0.00  0.00     0.272 C 
HETATM   31  N   UNK N   1      33.726   9.665  20.177  0.00  0.00     0.084 N 
HETATM   32  C   UNK N   1      34.879  10.330  20.768  0.00  0.00     0.272 C 
HETATM   33  C   UNK N   1      33.208   8.722  21.148  0.00  0.00     0.309 C 
HETATM   34  C   UNK N   1      35.310  11.462  19.852  0.00  0.00     0.034 C 
ENDBRANCH  27  28
ENDBRANCH  26  27
ENDBRANCH  25  26
ENDBRANCH  10  25
TORSDOF 5
ENDMDL
MODEL 4
REMARK VINA RESULT:      -8.1      6.066     10.231
REMARK  5 active torsions:
REMARK  status: ('A' for Active; 'I' for Inactive)
REMARK    1  A    between atoms: C_9  and  C_12 
REMARK       I    between atoms: C_16  and  N_21 
REMARK    2  A    between atoms: N_21  and  C_22 
REMARK    3  A    between atoms: C_22  and  C_23 
REMARK    4  A    between atoms: C_23  and  C_24 
REMARK    5  A    between atoms: C_24  and  C_25 
ROOT
HETATM    1  C   UNK N   1      27.642  17.063   6.161  0.00  0.00     0.047 A 
HETATM    2  C   UNK N   1      26.975  15.905   6.542  0.00  0.00     0.123 A 
HETATM    3  N   UNK N   1      25.662  15.758   6.277  0.00  0.00    -0.201 N 
ATOM      4  HN  UNK N   1      25.193  14.893   6.546  1.00  0.00     0.183 HD
HETATM    5  C   UNK N   1      24.952  16.735   5.665  0.00  0.00     0.678 A 
HETATM    6  N   UNK N   1      25.561  17.901   5.321  0.00  0.00    -0.195 N 
ATOM      7  HN  UNK N   1      25.014  18.646   4.890  1.00  0.00     0.184 HD
HETATM    8  C   UNK N   1      26.892  18.088   5.543  0.00  0.00     0.038 A 
HETATM    9  C   UNK N   1      27.518  19.364   5.093  0.00  0.00     0.070 C 
HETATM   10  N   UNK N   1      23.591  16.524   5.332  0.00  0.00    -0.226 N 
HETATM   11  H   UNK N   1      23.005  17.310   5.242  0.00  0.00     0.177 HD
ENDROOT
BRANCH   1  12
HETATM   12  C   UNK N   1      29.101  17.092   6.363  0.00  0.00     0.120 A 
HETATM   13  N   UNK N   1      29.714  17.383   7.540  0.00  0.00    -0.340 N 
HETATM   14  C   UNK N   1      31.012  17.449   7.214  0.00  0.00     0.061 A 
HETATM   15  H   UNK N   1      29.301  17.516   8.424  0.00  0.00     0.167 HD
HETATM   16  C   UNK N   1      31.168  17.196   5.887  0.00  0.00     0.066 A 
HETATM   17  C   UNK N   1      32.089  17.764   8.036  0.00  0.00     0.038 A 
HETATM   18  C   UNK N   1      32.414  17.219   5.269  0.00  0.00    -0.032 A 
HETATM   19  N   UNK N   1      29.975  16.970   5.331  0.00  0.00    -0.339 N 
HETATM   20  C   UNK N   1      33.530  17.533   6.064  0.00  0.00     0.015 A 
HETATM   21  C   UNK N   1      32.567  16.941   3.814  0.00  0.00     0.050 C 
HETATM   22  C   UNK N   1      33.368  17.809   7.444  0.00  0.00    -0.059 A 
HETATM   23  C   UNK N   1      34.550  18.165   8.268  0.00  0.00     0.048 C 
ATOM     24  HN  UNK N   1      29.767  16.754   4.355  1.00  0.00     0.167 HD
ENDBRANCH   1  12
BRANCH  10  25
HETATM   25  C   UNK N   1      23.016  15.206   5.117  0.00  0.00     0.138 C 
BRANCH  25  26
HETATM   26  C   UNK N   1      21.821  14.865   6.022  0.00  0.00     0.020 C 
BRANCH  26  27
HETATM   27  C   UNK N   1      22.104  14.933   7.532  0.00  0.00     0.006 C 
BRANCH  27  28
HETATM   28  C   UNK N   1      22.114  13.564   8.205  0.00  0.00    -0.011 C 
HETATM   29  C   UNK N   1      21.102  13.577   9.367  0.00  0.00     0.034 C 
HETATM   30  C   UNK N   1      21.441  12.557  10.441  0.00  0.00     0.272 C 
HETATM   31  N   UNK N   1      22.824  12.753  10.850  0.00  0.00     0.084 N 
HETATM   32  C   UNK N   1      23.652  12.262   9.759  0.00  0.00     0.272 C 
HETATM   33  C   UNK N   1      23.071  11.919  12.009  0.00  0.00     0.309 C 
HETATM   34  C   UNK N   1      23.564  13.241   8.601  0.00  0.00     0.034 C 
ENDBRANCH  27  28
ENDBRANCH  26  27
ENDBRANCH  25  26
ENDBRANCH  10  25
TORSDOF 5
ENDMDL
MODEL 5
REMARK VINA RESULT:      -8.1      2.233      2.977
REMARK  5 active torsions:
REMARK  status: ('A' for Active; 'I' for Inactive)
REMARK    1  A    between atoms: C_9  and  C_12 
REMARK       I    between atoms: C_16  and  N_21 
REMARK    2  A    between atoms: N_21  and  C_22 
REMARK    3  A    between atoms: C_22  and  C_23 
REMARK    4  A    between atoms: C_23  and  C_24 
REMARK    5  A    between atoms: C_24  and  C_25 
ROOT
HETATM    1  C   UNK N   1      36.191  14.171  11.208  0.00  0.00     0.047 A 
HETATM    2  C   UNK N   1      35.097  14.872  10.715  0.00  0.00     0.123 A 
HETATM    3  N   UNK N   1      34.936  15.033   9.387  0.00  0.00    -0.201 N 
ATOM      4  HN  UNK N   1      34.115  15.533   9.042  1.00  0.00     0.183 HD
HETATM    5  C   UNK N   1      35.839  14.549   8.502  0.00  0.00     0.678 A 
HETATM    6  N   UNK N   1      36.946  13.900   8.951  0.00  0.00    -0.195 N 
ATOM      7  HN  UNK N   1      37.640  13.567   8.282  1.00  0.00     0.184 HD
HETATM    8  C   UNK N   1      37.142  13.687  10.282  0.00  0.00     0.038 A 
HETATM    9  C   UNK N   1      38.345  12.920  10.713  0.00  0.00     0.070 C 
HETATM   10  N   UNK N   1      35.606  14.668   7.109  0.00  0.00    -0.226 N 
HETATM   11  H   UNK N   1      36.383  14.664   6.504  0.00  0.00     0.177 HD
ENDROOT
BRANCH   1  12
HETATM   12  C   UNK N   1      36.226  13.921  12.659  0.00  0.00     0.120 A 
HETATM   13  N   UNK N   1      35.613  12.880  13.280  0.00  0.00    -0.340 N 
HETATM   14  C   UNK N   1      35.776  13.147  14.584  0.00  0.00     0.061 A 
HETATM   15  H   UNK N   1      35.156  12.110  12.870  0.00  0.00     0.167 HD
HETATM   16  C   UNK N   1      36.471  14.306  14.734  0.00  0.00     0.066 A 
HETATM   17  C   UNK N   1      35.302  12.425  15.674  0.00  0.00     0.038 A 
HETATM   18  C   UNK N   1      36.768  14.837  15.985  0.00  0.00    -0.032 A 
HETATM   19  N   UNK N   1      36.763  14.812  13.532  0.00  0.00    -0.339 N 
HETATM   20  C   UNK N   1      36.307  14.139  17.114  0.00  0.00     0.015 A 
HETATM   21  C   UNK N   1      37.529  16.109  16.131  0.00  0.00     0.050 C 
HETATM   22  C   UNK N   1      35.572  12.938  16.960  0.00  0.00    -0.059 A 
HETATM   23  C   UNK N   1      35.067  12.223  18.159  0.00  0.00     0.048 C 
ATOM     24  HN  UNK N   1      37.274  15.669  13.318  1.00  0.00     0.167 HD
ENDBRANCH   1  12
BRANCH  10  25
HETATM   25  C   UNK N   1      34.280  14.797   6.529  0.00  0.00     0.138 C 
BRANCH  25  26
HETATM   26  C   UNK N   1      34.195  15.719   5.302  0.00  0.00     0.020 C 
BRANCH  26  27
HETATM   27  C   UNK N   1      33.735  17.157   5.595  0.00  0.00     0.006 C 
BRANCH  27  28
HETATM   28  C   UNK N   1      32.533  17.586   4.761  0.00  0.00    -0.011 C 
HETATM   29  C   UNK N   1      31.246  17.151   5.488  0.00  0.00     0.034 C 
HETATM   30  C   UNK N   1      30.076  16.967   4.536  0.00  0.00     0.272 C 
HETATM   31  N   UNK N   1      30.486  16.075   3.462  0.00  0.00     0.084 N 
HETATM   32  C   UNK N   1      31.390  16.837   2.614  0.00  0.00     0.272 C 
HETATM   33  C   UNK N   1      29.311  15.746   2.680  0.00  0.00     0.309 C 
HETATM   34  C   UNK N   1      32.710  17.015   3.345  0.00  0.00     0.034 C 
ENDBRANCH  27  28
ENDBRANCH  26  27
ENDBRANCH  25  26
ENDBRANCH  10  25
TORSDOF 5
ENDMDL
MODEL 6
REMARK VINA RESULT:      -8.0      2.015      4.409
REMARK  5 active torsions:
REMARK  status: ('A' for Active; 'I' for Inactive)
REMARK    1  A    between atoms: C_9  and  C_12 
REMARK       I    between atoms: C_16  and  N_21 
REMARK    2  A    between atoms: N_21  and  C_22 
REMARK    3  A    between atoms: C_22  and  C_23 
REMARK    4  A    between atoms: C_23  and  C_24 
REMARK    5  A    between atoms: C_24  and  C_25 
ROOT
HETATM    1  C   UNK N   1      35.638  13.394  14.427  0.00  0.00     0.047 A 
HETATM    2  C   UNK N   1      34.909  13.005  13.310  0.00  0.00     0.123 A 
HETATM    3  N   UNK N   1      34.992  13.709  12.164  0.00  0.00    -0.201 N 
ATOM      4  HN  UNK N   1      34.466  13.397  11.348  1.00  0.00     0.183 HD
HETATM    5  C   UNK N   1      35.757  14.823  12.074  0.00  0.00     0.678 A 
HETATM    6  N   UNK N   1      36.446  15.261  13.162  0.00  0.00    -0.195 N 
ATOM      7  HN  UNK N   1      36.994  16.119  13.098  1.00  0.00     0.184 HD
HETATM    8  C   UNK N   1      36.416  14.569  14.335  0.00  0.00     0.038 A 
HETATM    9  C   UNK N   1      37.236  15.066  15.476  0.00  0.00     0.070 C 
HETATM   10  N   UNK N   1      35.885  15.501  10.837  0.00  0.00    -0.226 N 
HETATM   11  H   UNK N   1      36.111  16.459  10.851  0.00  0.00     0.177 HD
ENDROOT
BRANCH   1  12
HETATM   12  C   UNK N   1      35.599  12.499  15.596  0.00  0.00     0.120 A 
HETATM   13  N   UNK N   1      35.121  12.844  16.820  0.00  0.00    -0.340 N 
HETATM   14  C   UNK N   1      35.433  11.793  17.591  0.00  0.00     0.061 A 
HETATM   15  H   UNK N   1      34.655  13.672  17.080  0.00  0.00     0.167 HD
HETATM   16  C   UNK N   1      36.070  10.848  16.848  0.00  0.00     0.066 A 
HETATM   17  C   UNK N   1      35.214  11.633  18.955  0.00  0.00     0.038 A 
HETATM   18  C   UNK N   1      36.528   9.656  17.398  0.00  0.00    -0.032 A 
HETATM   19  N   UNK N   1      36.187  11.275  15.587  0.00  0.00    -0.339 N 
HETATM   20  C   UNK N   1      36.328   9.455  18.774  0.00  0.00     0.015 A 
HETATM   21  C   UNK N   1      37.225   8.633  16.570  0.00  0.00     0.050 C 
HETATM   22  C   UNK N   1      35.676  10.442  19.553  0.00  0.00    -0.059 A 
HETATM   23  C   UNK N   1      35.493  10.230  21.011  0.00  0.00     0.048 C 
ATOM     24  HN  UNK N   1      36.617  10.791  14.798  1.00  0.00     0.167 HD
ENDBRANCH   1  12
BRANCH  10  25
HETATM   25  C   UNK N   1      35.698  14.855   9.549  0.00  0.00     0.138 C 
BRANCH  25  26
HETATM   26  C   UNK N   1      34.877  15.662   8.531  0.00  0.00     0.020 C 
BRANCH  26  27
HETATM   27  C   UNK N   1      34.095  16.851   9.116  0.00  0.00     0.006 C 
BRANCH  27  28
HETATM   28  C   UNK N   1      33.238  17.574   8.083  0.00  0.00    -0.011 C 
HETATM   29  C   UNK N   1      31.788  17.064   8.200  0.00  0.00     0.034 C 
HETATM   30  C   UNK N   1      31.011  17.226   6.904  0.00  0.00     0.272 C 
HETATM   31  N   UNK N   1      31.773  16.617   5.825  0.00  0.00     0.084 N 
HETATM   32  C   UNK N   1      32.898  17.502   5.562  0.00  0.00     0.272 C 
HETATM   33  C   UNK N   1      30.936  16.595   4.642  0.00  0.00     0.309 C 
HETATM   34  C   UNK N   1      33.891  17.381   6.705  0.00  0.00     0.034 C 
ENDBRANCH  27  28
ENDBRANCH  26  27
ENDBRANCH  25  26
ENDBRANCH  10  25
TORSDOF 5
ENDMDL
MODEL 7
REMARK VINA RESULT:      -8.0      2.257      9.321
REMARK  5 active torsions:
REMARK  status: ('A' for Active; 'I' for Inactive)
REMARK    1  A    between atoms: C_9  and  C_12 
REMARK       I    between atoms: C_16  and  N_21 
REMARK    2  A    between atoms: N_21  and  C_22 
REMARK    3  A    between atoms: C_22  and  C_23 
REMARK    4  A    between atoms: C_23  and  C_24 
REMARK    5  A    between atoms: C_24  and  C_25 
ROOT
HETATM    1  C   UNK N   1      33.221  16.208   9.077  0.00  0.00     0.047 A 
HETATM    2  C   UNK N   1      33.212  15.056   9.854  0.00  0.00     0.123 A 
HETATM    3  N   UNK N   1      34.242  14.787  10.681  0.00  0.00    -0.201 N 
ATOM      4  HN  UNK N   1      34.209  13.947  11.260  1.00  0.00     0.183 HD
HETATM    5  C   UNK N   1      35.318  15.605  10.759  0.00  0.00     0.678 A 
HETATM    6  N   UNK N   1      35.382  16.716   9.977  0.00  0.00    -0.195 N 
ATOM      7  HN  UNK N   1      36.209  17.310  10.015  1.00  0.00     0.184 HD
HETATM    8  C   UNK N   1      34.355  17.046   9.145  0.00  0.00     0.038 A 
HETATM    9  C   UNK N   1      34.456  18.305   8.354  0.00  0.00     0.070 C 
HETATM   10  N   UNK N   1      36.351  15.337  11.691  0.00  0.00    -0.226 N 
HETATM   11  H   UNK N   1      37.253  15.683  11.501  0.00  0.00     0.177 HD
ENDROOT
BRANCH   1  12
HETATM   12  C   UNK N   1      32.002  16.500   8.302  0.00  0.00     0.120 A 
HETATM   13  N   UNK N   1      31.910  16.432   6.949  0.00  0.00    -0.340 N 
HETATM   14  C   UNK N   1      30.694  16.931   6.688  0.00  0.00     0.061 A 
HETATM   15  H   UNK N   1      32.580  16.096   6.310  0.00  0.00     0.167 HD
HETATM   16  C   UNK N   1      30.078  17.277   7.850  0.00  0.00     0.066 A 
HETATM   17  C   UNK N   1      30.098  17.136   5.448  0.00  0.00     0.038 A 
HETATM   18  C   UNK N   1      28.807  17.842   7.876  0.00  0.00    -0.032 A 
HETATM   19  N   UNK N   1      30.886  17.016   8.881  0.00  0.00    -0.339 N 
HETATM   20  C   UNK N   1      28.169  18.067   6.643  0.00  0.00     0.015 A 
HETATM   21  C   UNK N   1      28.147  18.217   9.157  0.00  0.00     0.050 C 
HETATM   22  C   UNK N   1      28.815  17.719   5.432  0.00  0.00    -0.059 A 
HETATM   23  C   UNK N   1      28.142  17.985   4.135  0.00  0.00     0.048 C 
ATOM     24  HN  UNK N   1      30.707  17.167   9.873  1.00  0.00     0.167 HD
ENDBRANCH   1  12
BRANCH  10  25
HETATM   25  C   UNK N   1      36.147  14.577  12.913  0.00  0.00     0.138 C 
BRANCH  25  26
HETATM   26  C   UNK N   1      36.097  13.052  12.727  0.00  0.00     0.020 C 
BRANCH  26  27
HETATM   27  C   UNK N   1      37.459  12.377  12.490  0.00  0.00     0.006 C 
BRANCH  27  28
HETATM   28  C   UNK N   1      37.714  12.034  11.026  0.00  0.00    -0.011 C 
HETATM   29  C   UNK N   1      38.671  13.086  10.432  0.00  0.00     0.034 C 
HETATM   30  C   UNK N   1      38.523  13.219   8.926  0.00  0.00     0.272 C 
HETATM   31  N   UNK N   1      37.120  13.445   8.614  0.00  0.00     0.084 N 
HETATM   32  C   UNK N   1      36.439  12.177   8.828  0.00  0.00     0.272 C 
HETATM   33  C   UNK N   1      37.020  13.773   7.206  0.00  0.00     0.309 C 
HETATM   34  C   UNK N   1      36.352  11.916  10.322  0.00  0.00     0.034 C 
ENDBRANCH  27  28
ENDBRANCH  26  27
ENDBRANCH  25  26
ENDBRANCH  10  25
TORSDOF 5
ENDMDL
MODEL 8
REMARK VINA RESULT:      -8.0      1.941     10.569
REMARK  5 active torsions:
REMARK  status: ('A' for Active; 'I' for Inactive)
REMARK    1  A    between atoms: C_9  and  C_12 
REMARK       I    between atoms: C_16  and  N_21 
REMARK    2  A    between atoms: N_21  and  C_22 
REMARK    3  A    between atoms: C_22  and  C_23 
REMARK    4  A    between atoms: C_23  and  C_24 
REMARK    5  A    between atoms: C_24  and  C_25 
ROOT
HETATM    1  C   UNK N   1      33.356  16.288   8.926  0.00  0.00     0.047 A 
HETATM    2  C   UNK N   1      33.165  15.099   9.617  0.00  0.00     0.123 A 
HETATM    3  N   UNK N   1      34.052  14.706  10.552  0.00  0.00    -0.201 N 
ATOM      4  HN  UNK N   1      33.886  13.840  11.065  1.00  0.00     0.183 HD
HETATM    5  C   UNK N   1      35.160  15.436  10.825  0.00  0.00     0.678 A 
HETATM    6  N   UNK N   1      35.403  16.582  10.134  0.00  0.00    -0.195 N 
ATOM      7  HN  UNK N   1      36.256  17.109  10.320  1.00  0.00     0.184 HD
HETATM    8  C   UNK N   1      34.524  17.035   9.197  0.00  0.00     0.038 A 
HETATM    9  C   UNK N   1      34.815  18.326   8.512  0.00  0.00     0.070 C 
HETATM   10  N   UNK N   1      36.036  15.039  11.865  0.00  0.00    -0.226 N 
HETATM   11  H   UNK N   1      36.977  15.326  11.819  0.00  0.00     0.177 HD
ENDROOT
BRANCH   1  12
HETATM   12  C   UNK N   1      32.277  16.715   8.018  0.00  0.00     0.120 A 
HETATM   13  N   UNK N   1      31.055  17.153   8.420  0.00  0.00    -0.340 N 
HETATM   14  C   UNK N   1      30.367  17.268   7.275  0.00  0.00     0.061 A 
HETATM   15  H   UNK N   1      30.747  17.341   9.336  0.00  0.00     0.167 HD
HETATM   16  C   UNK N   1      31.156  16.918   6.225  0.00  0.00     0.066 A 
HETATM   17  C   UNK N   1      29.037  17.639   7.107  0.00  0.00     0.038 A 
HETATM   18  C   UNK N   1      30.692  16.924   4.913  0.00  0.00    -0.032 A 
HETATM   19  N   UNK N   1      32.365  16.564   6.671  0.00  0.00    -0.339 N 
HETATM   20  C   UNK N   1      29.353  17.292   4.699  0.00  0.00     0.015 A 
HETATM   21  C   UNK N   1      31.570  16.536   3.775  0.00  0.00     0.050 C 
HETATM   22  C   UNK N   1      28.526  17.645   5.793  0.00  0.00    -0.059 A 
HETATM   23  C   UNK N   1      27.105  18.007   5.556  0.00  0.00     0.048 C 
ATOM     24  HN  UNK N   1      33.170  16.253   6.126  1.00  0.00     0.167 HD
ENDBRANCH   1  12
BRANCH  10  25
HETATM   25  C   UNK N   1      35.618  14.228  12.996  0.00  0.00     0.138 C 
BRANCH  25  26
HETATM   26  C   UNK N   1      36.511  14.342  14.242  0.00  0.00     0.020 C 
BRANCH  26  27
HETATM   27  C   UNK N   1      36.780  13.018  14.978  0.00  0.00     0.006 C 
BRANCH  27  28
HETATM   28  C   UNK N   1      35.650  12.612  15.918  0.00  0.00    -0.011 C 
HETATM   29  C   UNK N   1      35.618  13.596  17.104  0.00  0.00     0.034 C 
HETATM   30  C   UNK N   1      34.995  12.984  18.348  0.00  0.00     0.272 C 
HETATM   31  N   UNK N   1      35.667  11.726  18.634  0.00  0.00     0.084 N 
HETATM   32  C   UNK N   1      35.215  10.777  17.627  0.00  0.00     0.272 C 
HETATM   33  C   UNK N   1      35.209  11.256  19.926  0.00  0.00     0.309 C 
HETATM   34  C   UNK N   1      35.855  11.137  16.297  0.00  0.00     0.034 C 
ENDBRANCH  27  28
ENDBRANCH  26  27
ENDBRANCH  25  26
ENDBRANCH  10  25
TORSDOF 5
ENDMDL
MODEL 9
REMARK VINA RESULT:      -7.9      2.165      9.199
REMARK  5 active torsions:
REMARK  status: ('A' for Active; 'I' for Inactive)
REMARK    1  A    between atoms: C_9  and  C_12 
REMARK       I    between atoms: C_16  and  N_21 
REMARK    2  A    between atoms: N_21  and  C_22 
REMARK    3  A    between atoms: C_22  and  C_23 
REMARK    4  A    between atoms: C_23  and  C_24 
REMARK    5  A    between atoms: C_24  and  C_25 
ROOT
HETATM    1  C   UNK N   1      33.248  16.198   9.157  0.00  0.00     0.047 A 
HETATM    2  C   UNK N   1      33.225  15.083   9.984  0.00  0.00     0.123 A 
HETATM    3  N   UNK N   1      34.248  14.840  10.827  0.00  0.00    -0.201 N 
ATOM      4  HN  UNK N   1      34.205  14.027  11.443  1.00  0.00     0.183 HD
HETATM    5  C   UNK N   1      35.332  15.650  10.872  0.00  0.00     0.678 A 
HETATM    6  N   UNK N   1      35.410  16.724  10.042  0.00  0.00    -0.195 N 
ATOM      7  HN  UNK N   1      36.244  17.311  10.056  1.00  0.00     0.184 HD
HETATM    8  C   UNK N   1      34.390  17.027   9.191  0.00  0.00     0.038 A 
HETATM    9  C   UNK N   1      34.507  18.249   8.345  0.00  0.00     0.070 C 
HETATM   10  N   UNK N   1      36.359  15.413  11.819  0.00  0.00    -0.226 N 
HETATM   11  H   UNK N   1      37.265  15.741  11.618  0.00  0.00     0.177 HD
ENDROOT
BRANCH   1  12
HETATM   12  C   UNK N   1      32.035  16.468   8.364  0.00  0.00     0.120 A 
HETATM   13  N   UNK N   1      31.950  16.348   7.014  0.00  0.00    -0.340 N 
HETATM   14  C   UNK N   1      30.738  16.844   6.727  0.00  0.00     0.061 A 
HETATM   15  H   UNK N   1      32.621  15.983   6.392  0.00  0.00     0.167 HD
HETATM   16  C   UNK N   1      30.118  17.239   7.871  0.00  0.00     0.066 A 
HETATM   17  C   UNK N   1      30.150  17.005   5.477  0.00  0.00     0.038 A 
HETATM   18  C   UNK N   1      28.851  17.812   7.868  0.00  0.00    -0.032 A 
HETATM   19  N   UNK N   1      30.920  17.012   8.916  0.00  0.00    -0.339 N 
HETATM   20  C   UNK N   1      28.221  17.994   6.625  0.00  0.00     0.015 A 
HETATM   21  C   UNK N   1      28.187  18.241   9.131  0.00  0.00     0.050 C 
HETATM   22  C   UNK N   1      28.871  17.595   5.431  0.00  0.00    -0.059 A 
HETATM   23  C   UNK N   1      28.206  17.814   4.122  0.00  0.00     0.048 C 
ATOM     24  HN  UNK N   1      30.736  17.203   9.901  1.00  0.00     0.167 HD
ENDBRANCH   1  12
BRANCH  10  25
HETATM   25  C   UNK N   1      36.143  14.711  13.073  0.00  0.00     0.138 C 
BRANCH  25  26
HETATM   26  C   UNK N   1      36.505  13.217  13.051  0.00  0.00     0.020 C 
BRANCH  26  27
HETATM   27  C   UNK N   1      35.335  12.256  13.321  0.00  0.00     0.006 C 
BRANCH  27  28
HETATM   28  C   UNK N   1      35.266  11.099  12.330  0.00  0.00    -0.011 C 
HETATM   29  C   UNK N   1      35.458  11.656  10.906  0.00  0.00     0.034 C 
HETATM   30  C   UNK N   1      34.828  10.768   9.846  0.00  0.00     0.272 C 
HETATM   31  N   UNK N   1      33.441  10.522  10.209  0.00  0.00     0.084 N 
HETATM   32  C   UNK N   1      33.465   9.601  11.336  0.00  0.00     0.272 C 
HETATM   33  C   UNK N   1      32.798   9.851   9.097  0.00  0.00     0.309 C 
HETATM   34  C   UNK N   1      33.945  10.349  12.567  0.00  0.00     0.034 C 
ENDBRANCH  27  28
ENDBRANCH  26  27
ENDBRANCH  25  26
ENDBRANCH  10  25
TORSDOF 5
ENDMDL
