REMARK  6 active torsions:
REMARK  status: ('A' for Active; 'I' for Inactive)
REMARK    1  A    between atoms: C_2  and  C_3 
REMARK    2  A    between atoms: C_4  and  C_3 
REMARK    3  A    between atoms: C_6  and  C_27 
REMARK    4  A    between atoms: C_7  and  C_19 
REMARK       I    between atoms: C_27  and  N_29 
REMARK    5  A    between atoms: C_30  and  N_29 
REMARK    6  A    between atoms: C_33  and  O_36 
ROOT
HETATM    1  C   UNK N   1       3.490   1.498  -0.640  0.00  0.00     0.101 C 
HETATM    2  N   UNK N   1       4.259   0.385  -1.203  0.00  0.00    -0.403 N 
HETATM    3  C   UNK N   1       3.885  -0.820  -0.468  0.00  0.00     0.180 C 
HETATM    4  C   UNK N   1       2.639  -0.599   0.344  0.00  0.00     0.078 C 
HETATM    5  C   UNK N   1       2.284   0.879   0.142  0.00  0.00     0.100 A 
HETATM    6  C   UNK N   1       1.982   1.578   1.475  0.00  0.00     0.238 A 
HETATM    7  O   UNK N   1       2.796   1.715   2.380  0.00  0.00    -0.272 OA
HETATM    8  N   UNK N   1       0.716   2.001   1.602  0.00  0.00    -0.326 N 
HETATM    9  C   UNK N   1       0.045   1.635   0.444  0.00  0.00     0.044 A 
HETATM   10  C   UNK N   1       0.887   1.032  -0.461  0.00  0.00    -0.011 A 
HETATM   11  C   UNK N   1       0.378   0.511  -1.657  0.00  0.00     0.012 A 
HETATM   12  C   UNK N   1      -1.012   0.576  -1.878  0.00  0.00     0.024 A 
HETATM   13  C   UNK N   1      -1.864   1.158  -0.915  0.00  0.00     0.036 A 
HETATM   14  C   UNK N   1      -1.330   1.709   0.256  0.00  0.00     0.054 A 
HETATM   15 Cl   UNK N   1      -3.601   1.122  -1.134  0.00  0.00    -0.084 Cl
HETATM   16  H   UNK N   1       4.932   0.441  -1.968  0.00  0.00     0.154 HD
HETATM   17  H   UNK N   1       0.335   2.481   2.373  0.00  0.00     0.169 HD
ENDROOT
BRANCH   3  18
HETATM   18  C   UNK N   1       4.919  -1.525   0.366  0.00  0.00     0.241 C 
HETATM   19  O   UNK N   1       4.530  -2.345   1.187  0.00  0.00    -0.271 OA
HETATM   20  N   UNK N   1       6.248  -1.340   0.165  0.00  0.00    -0.355 N 
HETATM   21  H   UNK N   1       6.532  -0.711  -0.537  0.00  0.00     0.162 HD
BRANCH  20  22
HETATM   22  C   UNK N   1       7.278  -2.027   0.940  0.00  0.00     0.084 C 
HETATM   23  C   UNK N   1       8.595  -2.009   0.169  0.00  0.00     0.028 C 
HETATM   24  C   UNK N   1       8.483  -2.845  -1.114  0.00  0.00     0.034 C 
HETATM   25  C   UNK N   1       8.044  -4.286  -0.825  0.00  0.00     0.118 C 
HETATM   26  C   UNK N   1       6.758  -4.310  -0.007  0.00  0.00     0.034 C 
HETATM   27  C   UNK N   1       6.932  -3.492   1.270  0.00  0.00     0.028 C 
BRANCH  25  28
HETATM   28  O   UNK N   1       9.051  -4.978  -0.148  0.00  0.00    -0.396 OA
HETATM   29  H   UNK N   1       8.984  -5.823   0.322  0.00  0.00     0.210 HD
ENDBRANCH  25  28
ENDBRANCH  20  22
ENDBRANCH   3  18
BRANCH   4  30
HETATM   30  C   UNK N   1       1.629  -1.703  -0.000  0.00  0.00    -0.010 A 
HETATM   31  C   UNK N   1       0.428  -1.861   0.716  0.00  0.00     0.144 A 
HETATM   32  C   UNK N   1      -0.463  -2.891   0.370  0.00  0.00     0.073 A 
HETATM   33  F   UNK N   1       0.128  -1.029   1.743  0.00  0.00    -0.204 F 
HETATM   34  C   UNK N   1      -0.162  -3.766  -0.676  0.00  0.00     0.027 A 
HETATM   35 Cl   UNK N   1      -1.965  -3.102   1.243  0.00  0.00    -0.081 Cl
HETATM   36  C   UNK N   1       1.025  -3.624  -1.386  0.00  0.00     0.002 A 
HETATM   37  C   UNK N   1       1.908  -2.605  -1.051  0.00  0.00     0.011 A 
ENDBRANCH   4  30
BRANCH   1  38
HETATM   38  C   UNK N   1       4.477   2.285   0.250  0.00  0.00     0.034 C 
BRANCH  38  39
HETATM   39  C   UNK N   1       5.517   3.155  -0.471  0.00  0.00    -0.050 C 
HETATM   40  C   UNK N   1       6.458   3.719   0.574  0.00  0.00     0.014 C 
HETATM   41  C   UNK N   1       6.349   2.371  -1.470  0.00  0.00     0.014 C 
HETATM   42  C   UNK N   1       4.839   4.311  -1.179  0.00  0.00     0.014 C 
ENDBRANCH  38  39
ENDBRANCH   1  38
TORSDOF 6
