MODEL 1
REMARK VINA RESULT:      -7.1      0.000      0.000
REMARK  9 active torsions:
REMARK  status: ('A' for Active; 'I' for Inactive)
REMARK    1  A    between atoms: C_2  and  C_3 
REMARK    2  A    between atoms: C_3  and  C_4 
REMARK    3  A    between atoms: C_4  and  O_5 
REMARK    4  A    between atoms: O_5  and  C_6 
REMARK    5  A    between atoms: C_9  and  N_32 
REMARK    6  A    between atoms: N_14  and  C_19 
REMARK    7  A    between atoms: C_19  and  C_20 
REMARK    8  A    between atoms: C_24  and  C_26 
REMARK    9  A    between atoms: C_26  and  N_27 
ROOT
HETATM    1  C   UNK N   1      22.118  19.553   3.276  0.00  0.00     0.226 A 
HETATM    2  N   UNK N   1      20.845  19.752   2.829  0.00  0.00    -0.306 N 
ATOM      3  HN  UNK N   1      20.565  20.679   2.507  1.00  0.00     0.171 HD
HETATM    4  C   UNK N   1      19.946  18.733   2.807  0.00  0.00     0.133 A 
HETATM    5  C   UNK N   1      20.326  17.463   3.256  0.00  0.00     0.123 A 
HETATM    6  C   UNK N   1      21.629  17.281   3.722  0.00  0.00     0.138 A 
HETATM    7  N   UNK N   1      22.494  18.330   3.714  0.00  0.00    -0.306 N 
ATOM      8  HN  UNK N   1      23.448  18.191   4.046  1.00  0.00     0.171 HD
HETATM    9  N   UNK N   1      22.050  16.027   4.237  0.00  0.00    -0.352 N 
HETATM   10  C   UNK N   1      21.125  14.898   4.302  0.00  0.00     0.227 A 
HETATM   11  C   UNK N   1      19.749  15.168   3.737  0.00  0.00     0.240 A 
HETATM   12  O   UNK N   1      18.927  14.267   3.723  0.00  0.00    -0.271 OA
HETATM   13  N   UNK N   1      19.408  16.387   3.260  0.00  0.00    -0.320 N 
HETATM   14  H   UNK N   1      18.500  16.528   2.906  0.00  0.00     0.169 HD
ENDROOT
BRANCH   9  15
HETATM   15  C   UNK N   1      23.362  15.993   4.884  0.00  0.00     0.163 C 
BRANCH  15  16
HETATM   16  C   UNK N   1      23.775  14.772   5.654  0.00  0.00    -0.040 A 
HETATM   17  C   UNK N   1      24.534  13.791   5.002  0.00  0.00     0.009 A 
HETATM   18  C   UNK N   1      24.999  12.675   5.708  0.00  0.00     0.001 A 
HETATM   19  C   UNK N   1      24.727  12.548   7.076  0.00  0.00     0.009 A 
HETATM   20  C   UNK N   1      23.989  13.540   7.730  0.00  0.00    -0.030 A 
HETATM   21  C   UNK N   1      23.513  14.631   7.010  0.00  0.00     0.017 A 
BRANCH  20  22
HETATM   22  C   UNK N   1      23.668  13.439   9.191  0.00  0.00     0.311 C 
BRANCH  22  23
HETATM   23  N   UNK N   1      23.805  12.083   9.755  0.00  0.00     0.092 N 
HETATM   24  C   UNK N   1      22.467  11.656  10.136  0.00  0.00     0.273 C 
HETATM   25  C   UNK N   1      22.263  12.040  11.587  0.00  0.00     0.032 C 
HETATM   26  C   UNK N   1      23.642  11.979  12.181  0.00  0.00     0.032 C 
HETATM   27  C   UNK N   1      24.587  12.036  10.996  0.00  0.00     0.273 C 
ENDBRANCH  22  23
ENDBRANCH  20  22
ENDBRANCH  15  16
ENDBRANCH   9  15
BRANCH   4  28
HETATM   28  N   UNK N   1      18.633  18.967   2.349  0.00  0.00    -0.383 N 
HETATM   29  H   UNK N   1      18.380  18.754   1.421  0.00  0.00     0.157 HD
HETATM   30  H   UNK N   1      17.964  19.347   2.962  0.00  0.00     0.157 HD
ENDBRANCH   4  28
BRANCH   1  31
HETATM   31  O   UNK N   1      23.018  20.559   3.299  0.00  0.00    -0.322 OA
BRANCH  31  32
HETATM   32  C   UNK N   1      24.253  20.464   2.706  0.00  0.00     0.178 C 
BRANCH  32  33
HETATM   33  C   UNK N   1      25.333  20.522   3.768  0.00  0.00     0.026 C 
BRANCH  33  34
HETATM   34  C   UNK N   1      26.202  19.283   3.683  0.00  0.00    -0.002 C 
HETATM   35  C   UNK N   1      27.563  19.560   4.295  0.00  0.00     0.005 C 
ENDBRANCH  33  34
ENDBRANCH  32  33
ENDBRANCH  31  32
ENDBRANCH   1  31
TORSDOF 9
ENDMDL
MODEL 2
REMARK VINA RESULT:      -7.0      3.395      4.367
REMARK  9 active torsions:
REMARK  status: ('A' for Active; 'I' for Inactive)
REMARK    1  A    between atoms: C_2  and  C_3 
REMARK    2  A    between atoms: C_3  and  C_4 
REMARK    3  A    between atoms: C_4  and  O_5 
REMARK    4  A    between atoms: O_5  and  C_6 
REMARK    5  A    between atoms: C_9  and  N_32 
REMARK    6  A    between atoms: N_14  and  C_19 
REMARK    7  A    between atoms: C_19  and  C_20 
REMARK    8  A    between atoms: C_24  and  C_26 
REMARK    9  A    between atoms: C_26  and  N_27 
ROOT
HETATM    1  C   UNK N   1      21.976  19.778   3.183  0.00  0.00     0.226 A 
HETATM    2  N   UNK N   1      20.724  19.805   2.643  0.00  0.00    -0.306 N 
ATOM      3  HN  UNK N   1      20.428  20.615   2.098  1.00  0.00     0.171 HD
HETATM    4  C   UNK N   1      19.865  18.767   2.822  0.00  0.00     0.133 A 
HETATM    5  C   UNK N   1      20.264  17.657   3.576  0.00  0.00     0.123 A 
HETATM    6  C   UNK N   1      21.544  17.653   4.131  0.00  0.00     0.138 A 
HETATM    7  N   UNK N   1      22.370  18.712   3.916  0.00  0.00    -0.306 N 
ATOM      8  HN  UNK N   1      23.309  18.700   4.314  1.00  0.00     0.171 HD
HETATM    9  N   UNK N   1      21.981  16.576   4.948  0.00  0.00    -0.352 N 
HETATM   10  C   UNK N   1      21.095  15.451   5.236  0.00  0.00     0.227 A 
HETATM   11  C   UNK N   1      19.745  15.514   4.560  0.00  0.00     0.240 A 
HETATM   12  O   UNK N   1      18.957  14.597   4.722  0.00  0.00    -0.271 OA
HETATM   13  N   UNK N   1      19.387  16.569   3.793  0.00  0.00    -0.320 N 
HETATM   14  H   UNK N   1      18.496  16.580   3.375  0.00  0.00     0.169 HD
ENDROOT
BRANCH   9  15
HETATM   15  C   UNK N   1      23.255  16.759   5.644  0.00  0.00     0.163 C 
BRANCH  15  16
HETATM   16  C   UNK N   1      24.530  16.333   4.976  0.00  0.00    -0.040 A 
HETATM   17  C   UNK N   1      24.514  16.077   3.599  0.00  0.00     0.009 A 
HETATM   18  C   UNK N   1      25.699  15.749   2.929  0.00  0.00     0.001 A 
HETATM   19  C   UNK N   1      26.910  15.700   3.632  0.00  0.00     0.009 A 
HETATM   20  C   UNK N   1      26.927  15.978   5.002  0.00  0.00    -0.030 A 
HETATM   21  C   UNK N   1      25.738  16.280   5.658  0.00  0.00     0.017 A 
BRANCH  20  22
HETATM   22  C   UNK N   1      28.200  15.929   5.792  0.00  0.00     0.311 C 
BRANCH  22  23
HETATM   23  N   UNK N   1      28.788  17.249   6.088  0.00  0.00     0.092 N 
HETATM   24  C   UNK N   1      30.200  17.159   5.747  0.00  0.00     0.273 C 
HETATM   25  C   UNK N   1      30.945  16.751   7.000  0.00  0.00     0.032 C 
HETATM   26  C   UNK N   1      30.125  17.325   8.120  0.00  0.00     0.032 C 
HETATM   27  C   UNK N   1      28.763  17.601   7.512  0.00  0.00     0.273 C 
ENDBRANCH  22  23
ENDBRANCH  20  22
ENDBRANCH  15  16
ENDBRANCH   9  15
BRANCH   4  28
HETATM   28  N   UNK N   1      18.572  18.823   2.262  0.00  0.00    -0.383 N 
HETATM   29  H   UNK N   1      18.308  19.576   1.683  0.00  0.00     0.157 HD
HETATM   30  H   UNK N   1      17.928  18.104   2.450  0.00  0.00     0.157 HD
ENDBRANCH   4  28
BRANCH   1  31
HETATM   31  O   UNK N   1      22.836  20.803   3.008  0.00  0.00    -0.322 OA
BRANCH  31  32
HETATM   32  C   UNK N   1      24.127  20.623   2.578  0.00  0.00     0.178 C 
BRANCH  32  33
HETATM   33  C   UNK N   1      25.043  20.449   3.773  0.00  0.00     0.026 C 
BRANCH  33  34
HETATM   34  C   UNK N   1      26.222  19.575   3.392  0.00  0.00    -0.002 C 
HETATM   35  C   UNK N   1      27.393  19.851   4.317  0.00  0.00     0.005 C 
ENDBRANCH  33  34
ENDBRANCH  32  33
ENDBRANCH  31  32
ENDBRANCH   1  31
TORSDOF 9
ENDMDL
MODEL 3
REMARK VINA RESULT:      -7.0      6.375      8.830
REMARK  9 active torsions:
REMARK  status: ('A' for Active; 'I' for Inactive)
REMARK    1  A    between atoms: C_2  and  C_3 
REMARK    2  A    between atoms: C_3  and  C_4 
REMARK    3  A    between atoms: C_4  and  O_5 
REMARK    4  A    between atoms: O_5  and  C_6 
REMARK    5  A    between atoms: C_9  and  N_32 
REMARK    6  A    between atoms: N_14  and  C_19 
REMARK    7  A    between atoms: C_19  and  C_20 
REMARK    8  A    between atoms: C_24  and  C_26 
REMARK    9  A    between atoms: C_26  and  N_27 
ROOT
HETATM    1  C   UNK N   1      28.069  16.705   3.280  0.00  0.00     0.226 A 
HETATM    2  N   UNK N   1      27.520  15.520   2.889  0.00  0.00    -0.306 N 
ATOM      3  HN  UNK N   1      26.506  15.434   2.816  1.00  0.00     0.171 HD
HETATM    4  C   UNK N   1      28.308  14.450   2.597  0.00  0.00     0.133 A 
HETATM    5  C   UNK N   1      29.698  14.562   2.705  0.00  0.00     0.123 A 
HETATM    6  C   UNK N   1      30.240  15.780   3.119  0.00  0.00     0.138 A 
HETATM    7  N   UNK N   1      29.411  16.823   3.390  0.00  0.00    -0.306 N 
ATOM      8  HN  UNK N   1      29.812  17.714   3.682  1.00  0.00     0.171 HD
HETATM    9  N   UNK N   1      31.641  15.931   3.295  0.00  0.00    -0.352 N 
HETATM   10  C   UNK N   1      32.548  14.811   3.059  0.00  0.00     0.227 A 
HETATM   11  C   UNK N   1      31.884  13.544   2.571  0.00  0.00     0.240 A 
HETATM   12  O   UNK N   1      32.575  12.571   2.318  0.00  0.00    -0.271 OA
HETATM   13  N   UNK N   1      30.542  13.463   2.423  0.00  0.00    -0.320 N 
HETATM   14  H   UNK N   1      30.143  12.618   2.111  0.00  0.00     0.169 HD
ENDROOT
BRANCH   9  15
HETATM   15  C   UNK N   1      32.090  17.175   3.922  0.00  0.00     0.163 C 
BRANCH  15  16
HETATM   16  C   UNK N   1      32.450  17.179   5.381  0.00  0.00    -0.040 A 
HETATM   17  C   UNK N   1      33.725  17.621   5.757  0.00  0.00     0.009 A 
HETATM   18  C   UNK N   1      34.068  17.708   7.112  0.00  0.00     0.001 A 
HETATM   19  C   UNK N   1      33.128  17.377   8.095  0.00  0.00     0.009 A 
HETATM   20  C   UNK N   1      31.849  16.959   7.718  0.00  0.00    -0.030 A 
HETATM   21  C   UNK N   1      31.530  16.854   6.368  0.00  0.00     0.017 A 
BRANCH  20  22
HETATM   22  C   UNK N   1      30.816  16.587   8.738  0.00  0.00     0.311 C 
BRANCH  22  23
HETATM   23  N   UNK N   1      30.234  17.731   9.464  0.00  0.00     0.092 N 
HETATM   24  C   UNK N   1      29.050  17.231  10.146  0.00  0.00     0.273 C 
HETATM   25  C   UNK N   1      27.868  17.449   9.226  0.00  0.00     0.032 C 
HETATM   26  C   UNK N   1      28.239  18.670   8.433  0.00  0.00     0.032 C 
HETATM   27  C   UNK N   1      29.742  18.800   8.585  0.00  0.00     0.273 C 
ENDBRANCH  22  23
ENDBRANCH  20  22
ENDBRANCH  15  16
ENDBRANCH   9  15
BRANCH   4  28
HETATM   28  N   UNK N   1      27.716  13.232   2.204  0.00  0.00    -0.383 N 
HETATM   29  H   UNK N   1      26.769  13.047   2.402  0.00  0.00     0.157 HD
HETATM   30  H   UNK N   1      28.254  12.560   1.729  0.00  0.00     0.157 HD
ENDBRANCH   4  28
BRANCH   1  31
HETATM   31  O   UNK N   1      27.295  17.773   3.570  0.00  0.00    -0.322 OA
BRANCH  31  32
HETATM   32  C   UNK N   1      27.177  18.281   4.839  0.00  0.00     0.178 C 
BRANCH  32  33
HETATM   33  C   UNK N   1      27.619  19.731   4.851  0.00  0.00     0.026 C 
BRANCH  33  34
HETATM   34  C   UNK N   1      26.562  20.583   5.526  0.00  0.00    -0.002 C 
HETATM   35  C   UNK N   1      27.222  21.674   6.349  0.00  0.00     0.005 C 
ENDBRANCH  33  34
ENDBRANCH  32  33
ENDBRANCH  31  32
ENDBRANCH   1  31
TORSDOF 9
ENDMDL
MODEL 4
REMARK VINA RESULT:      -7.0      3.606      6.832
REMARK  9 active torsions:
REMARK  status: ('A' for Active; 'I' for Inactive)
REMARK    1  A    between atoms: C_2  and  C_3 
REMARK    2  A    between atoms: C_3  and  C_4 
REMARK    3  A    between atoms: C_4  and  O_5 
REMARK    4  A    between atoms: O_5  and  C_6 
REMARK    5  A    between atoms: C_9  and  N_32 
REMARK    6  A    between atoms: N_14  and  C_19 
REMARK    7  A    between atoms: C_19  and  C_20 
REMARK    8  A    between atoms: C_24  and  C_26 
REMARK    9  A    between atoms: C_26  and  N_27 
ROOT
HETATM    1  C   UNK N   1      19.874  14.939   5.596  0.00  0.00     0.226 A 
HETATM    2  N   UNK N   1      19.455  13.923   4.788  0.00  0.00    -0.306 N 
ATOM      3  HN  UNK N   1      19.217  13.020   5.198  1.00  0.00     0.171 HD
HETATM    4  C   UNK N   1      19.351  14.099   3.444  0.00  0.00     0.133 A 
HETATM    5  C   UNK N   1      19.684  15.335   2.878  0.00  0.00     0.123 A 
HETATM    6  C   UNK N   1      20.123  16.358   3.719  0.00  0.00     0.138 A 
HETATM    7  N   UNK N   1      20.201  16.136   5.058  0.00  0.00    -0.306 N 
ATOM      8  HN  UNK N   1      20.512  16.889   5.671  1.00  0.00     0.171 HD
HETATM    9  N   UNK N   1      20.524  17.614   3.191  0.00  0.00    -0.352 N 
HETATM   10  C   UNK N   1      20.497  17.861   1.751  0.00  0.00     0.227 A 
HETATM   11  C   UNK N   1      19.968  16.717   0.918  0.00  0.00     0.240 A 
HETATM   12  O   UNK N   1      19.881  16.854  -0.291  0.00  0.00    -0.271 OA
HETATM   13  N   UNK N   1      19.601  15.543   1.482  0.00  0.00    -0.320 N 
HETATM   14  H   UNK N   1      19.268  14.816   0.906  0.00  0.00     0.169 HD
ENDROOT
BRANCH   9  15
HETATM   15  C   UNK N   1      21.156  18.545   4.127  0.00  0.00     0.163 C 
BRANCH  15  16
HETATM   16  C   UNK N   1      22.554  19.024   3.861  0.00  0.00    -0.040 A 
HETATM   17  C   UNK N   1      22.737  20.143   3.038  0.00  0.00     0.009 A 
HETATM   18  C   UNK N   1      24.020  20.661   2.828  0.00  0.00     0.001 A 
HETATM   19  C   UNK N   1      25.124  20.077   3.461  0.00  0.00     0.009 A 
HETATM   20  C   UNK N   1      24.937  18.975   4.301  0.00  0.00    -0.030 A 
HETATM   21  C   UNK N   1      23.659  18.456   4.481  0.00  0.00     0.017 A 
BRANCH  20  22
HETATM   22  C   UNK N   1      26.092  18.314   4.991  0.00  0.00     0.311 C 
BRANCH  22  23
HETATM   23  N   UNK N   1      27.268  19.182   5.181  0.00  0.00     0.092 N 
HETATM   24  C   UNK N   1      28.425  18.302   5.261  0.00  0.00     0.273 C 
HETATM   25  C   UNK N   1      28.653  17.984   6.724  0.00  0.00     0.032 C 
HETATM   26  C   UNK N   1      28.153  19.201   7.448  0.00  0.00     0.032 C 
HETATM   27  C   UNK N   1      27.262  19.917   6.451  0.00  0.00     0.273 C 
ENDBRANCH  22  23
ENDBRANCH  20  22
ENDBRANCH  15  16
ENDBRANCH   9  15
BRANCH   4  28
HETATM   28  N   UNK N   1      18.925  13.030   2.629  0.00  0.00    -0.383 N 
HETATM   29  H   UNK N   1      19.412  12.174   2.629  0.00  0.00     0.157 HD
HETATM   30  H   UNK N   1      18.133  13.141   2.055  0.00  0.00     0.157 HD
ENDBRANCH   4  28
BRANCH   1  31
HETATM   31  O   UNK N   1      19.978  14.774   6.932  0.00  0.00    -0.322 OA
BRANCH  31  32
HETATM   32  C   UNK N   1      20.850  15.500   7.704  0.00  0.00     0.178 C 
BRANCH  32  33
HETATM   33  C   UNK N   1      20.160  15.936   8.981  0.00  0.00     0.026 C 
BRANCH  33  34
HETATM   34  C   UNK N   1      19.563  17.317   8.795  0.00  0.00    -0.002 C 
HETATM   35  C   UNK N   1      18.085  17.295   9.139  0.00  0.00     0.005 C 
ENDBRANCH  33  34
ENDBRANCH  32  33
ENDBRANCH  31  32
ENDBRANCH   1  31
TORSDOF 9
ENDMDL
MODEL 5
REMARK VINA RESULT:      -7.0      3.195      6.530
REMARK  9 active torsions:
REMARK  status: ('A' for Active; 'I' for Inactive)
REMARK    1  A    between atoms: C_2  and  C_3 
REMARK    2  A    between atoms: C_3  and  C_4 
REMARK    3  A    between atoms: C_4  and  O_5 
REMARK    4  A    between atoms: O_5  and  C_6 
REMARK    5  A    between atoms: C_9  and  N_32 
REMARK    6  A    between atoms: N_14  and  C_19 
REMARK    7  A    between atoms: C_19  and  C_20 
REMARK    8  A    between atoms: C_24  and  C_26 
REMARK    9  A    between atoms: C_26  and  N_27 
ROOT
HETATM    1  C   UNK N   1      20.583  15.785   3.376  0.00  0.00     0.226 A 
HETATM    2  N   UNK N   1      19.814  15.768   2.250  0.00  0.00    -0.306 N 
ATOM      3  HN  UNK N   1      19.318  14.915   1.992  1.00  0.00     0.171 HD
HETATM    4  C   UNK N   1      19.703  16.874   1.466  0.00  0.00     0.133 A 
HETATM    5  C   UNK N   1      20.389  18.043   1.813  0.00  0.00     0.123 A 
HETATM    6  C   UNK N   1      21.181  18.036   2.962  0.00  0.00     0.138 A 
HETATM    7  N   UNK N   1      21.253  16.908   3.718  0.00  0.00    -0.306 N 
ATOM      8  HN  UNK N   1      21.824  16.911   4.563  1.00  0.00     0.171 HD
HETATM    9  N   UNK N   1      21.940  19.179   3.331  0.00  0.00    -0.352 N 
HETATM   10  C   UNK N   1      21.918  20.386   2.508  0.00  0.00     0.227 A 
HETATM   11  C   UNK N   1      21.002  20.323   1.308  0.00  0.00     0.240 A 
HETATM   12  O   UNK N   1      20.901  21.302   0.587  0.00  0.00    -0.271 OA
HETATM   13  N   UNK N   1      20.304  19.203   1.010  0.00  0.00    -0.320 N 
HETATM   14  H   UNK N   1      19.723  19.197   0.215  0.00  0.00     0.169 HD
ENDROOT
BRANCH   9  15
HETATM   15  C   UNK N   1      22.889  19.006   4.431  0.00  0.00     0.163 C 
BRANCH  15  16
HETATM   16  C   UNK N   1      24.346  18.811   4.126  0.00  0.00    -0.040 A 
HETATM   17  C   UNK N   1      25.181  19.935   4.087  0.00  0.00     0.009 A 
HETATM   18  C   UNK N   1      26.557  19.784   3.879  0.00  0.00     0.001 A 
HETATM   19  C   UNK N   1      27.107  18.505   3.733  0.00  0.00     0.009 A 
HETATM   20  C   UNK N   1      26.275  17.382   3.795  0.00  0.00    -0.030 A 
HETATM   21  C   UNK N   1      24.907  17.550   3.979  0.00  0.00     0.017 A 
BRANCH  20  22
HETATM   22  C   UNK N   1      26.822  15.996   3.635  0.00  0.00     0.311 C 
BRANCH  22  23
HETATM   23  N   UNK N   1      27.012  15.571   2.236  0.00  0.00     0.092 N 
HETATM   24  C   UNK N   1      25.926  14.652   1.931  0.00  0.00     0.273 C 
HETATM   25  C   UNK N   1      26.416  13.252   2.230  0.00  0.00     0.032 C 
HETATM   26  C   UNK N   1      27.896  13.318   1.979  0.00  0.00     0.032 C 
HETATM   27  C   UNK N   1      28.239  14.795   2.017  0.00  0.00     0.273 C 
ENDBRANCH  22  23
ENDBRANCH  20  22
ENDBRANCH  15  16
ENDBRANCH   9  15
BRANCH   4  28
HETATM   28  N   UNK N   1      18.909  16.828   0.301  0.00  0.00    -0.383 N 
HETATM   29  H   UNK N   1      19.239  17.209  -0.546  0.00  0.00     0.157 HD
HETATM   30  H   UNK N   1      18.018  16.413   0.335  0.00  0.00     0.157 HD
ENDBRANCH   4  28
BRANCH   1  31
HETATM   31  O   UNK N   1      20.699  14.692   4.161  0.00  0.00    -0.322 OA
BRANCH  31  32
HETATM   32  C   UNK N   1      21.499  14.661   5.275  0.00  0.00     0.178 C 
BRANCH  32  33
HETATM   33  C   UNK N   1      20.639  14.711   6.522  0.00  0.00     0.026 C 
BRANCH  33  34
HETATM   34  C   UNK N   1      21.248  15.670   7.526  0.00  0.00    -0.002 C 
HETATM   35  C   UNK N   1      20.462  15.632   8.824  0.00  0.00     0.005 C 
ENDBRANCH  33  34
ENDBRANCH  32  33
ENDBRANCH  31  32
ENDBRANCH   1  31
TORSDOF 9
ENDMDL
MODEL 6
REMARK VINA RESULT:      -6.9      2.310      4.235
REMARK  9 active torsions:
REMARK  status: ('A' for Active; 'I' for Inactive)
REMARK    1  A    between atoms: C_2  and  C_3 
REMARK    2  A    between atoms: C_3  and  C_4 
REMARK    3  A    between atoms: C_4  and  O_5 
REMARK    4  A    between atoms: O_5  and  C_6 
REMARK    5  A    between atoms: C_9  and  N_32 
REMARK    6  A    between atoms: N_14  and  C_19 
REMARK    7  A    between atoms: C_19  and  C_20 
REMARK    8  A    between atoms: C_24  and  C_26 
REMARK    9  A    between atoms: C_26  and  N_27 
ROOT
HETATM    1  C   UNK N   1      22.233  18.860   3.969  0.00  0.00     0.226 A 
HETATM    2  N   UNK N   1      21.181  19.027   3.117  0.00  0.00    -0.306 N 
ATOM      3  HN  UNK N   1      21.177  19.815   2.470  1.00  0.00     0.171 HD
HETATM    4  C   UNK N   1      20.136  18.156   3.122  0.00  0.00     0.133 A 
HETATM    5  C   UNK N   1      20.134  17.078   4.014  0.00  0.00     0.123 A 
HETATM    6  C   UNK N   1      21.214  16.932   4.886  0.00  0.00     0.138 A 
HETATM    7  N   UNK N   1      22.239  17.823   4.837  0.00  0.00    -0.306 N 
ATOM      8  HN  UNK N   1      23.031  17.706   5.468  1.00  0.00     0.171 HD
HETATM    9  N   UNK N   1      21.237  15.886   5.847  0.00  0.00    -0.352 N 
HETATM   10  C   UNK N   1      20.124  14.945   5.953  0.00  0.00     0.227 A 
HETATM   11  C   UNK N   1      19.019  15.149   4.944  0.00  0.00     0.240 A 
HETATM   12  O   UNK N   1      18.068  14.385   4.943  0.00  0.00    -0.271 OA
HETATM   13  N   UNK N   1      19.055  16.166   4.052  0.00  0.00    -0.320 N 
HETATM   14  H   UNK N   1      18.312  16.272   3.414  0.00  0.00     0.169 HD
ENDROOT
BRANCH   9  15
HETATM   15  C   UNK N   1      22.308  15.937   6.843  0.00  0.00     0.163 C 
BRANCH  15  16
HETATM   16  C   UNK N   1      23.478  15.004   6.718  0.00  0.00    -0.040 A 
HETATM   17  C   UNK N   1      23.299  13.655   7.050  0.00  0.00     0.009 A 
HETATM   18  C   UNK N   1      24.347  12.742   6.876  0.00  0.00     0.001 A 
HETATM   19  C   UNK N   1      25.570  13.172   6.347  0.00  0.00     0.009 A 
HETATM   20  C   UNK N   1      25.738  14.515   5.994  0.00  0.00    -0.030 A 
HETATM   21  C   UNK N   1      24.696  15.414   6.195  0.00  0.00     0.017 A 
BRANCH  20  22
HETATM   22  C   UNK N   1      27.033  15.018   5.432  0.00  0.00     0.311 C 
BRANCH  22  23
HETATM   23  N   UNK N   1      26.991  16.412   4.954  0.00  0.00     0.092 N 
HETATM   24  C   UNK N   1      27.189  16.363   3.513  0.00  0.00     0.273 C 
HETATM   25  C   UNK N   1      28.672  16.511   3.251  0.00  0.00     0.032 C 
HETATM   26  C   UNK N   1      29.166  17.352   4.395  0.00  0.00     0.032 C 
HETATM   27  C   UNK N   1      28.091  17.243   5.459  0.00  0.00     0.273 C 
ENDBRANCH  22  23
ENDBRANCH  20  22
ENDBRANCH  15  16
ENDBRANCH   9  15
BRANCH   4  28
HETATM   28  N   UNK N   1      19.055  18.356   2.238  0.00  0.00    -0.383 N 
HETATM   29  H   UNK N   1      18.128  18.211   2.538  0.00  0.00     0.157 HD
HETATM   30  H   UNK N   1      19.229  18.644   1.314  0.00  0.00     0.157 HD
ENDBRANCH   4  28
BRANCH   1  31
HETATM   31  O   UNK N   1      23.276  19.718   3.970  0.00  0.00    -0.322 OA
BRANCH  31  32
HETATM   32  C   UNK N   1      23.526  20.582   2.934  0.00  0.00     0.178 C 
BRANCH  32  33
HETATM   33  C   UNK N   1      24.981  20.479   2.524  0.00  0.00     0.026 C 
BRANCH  33  34
HETATM   34  C   UNK N   1      25.742  19.651   3.542  0.00  0.00    -0.002 C 
HETATM   35  C   UNK N   1      26.713  20.533   4.306  0.00  0.00     0.005 C 
ENDBRANCH  33  34
ENDBRANCH  32  33
ENDBRANCH  31  32
ENDBRANCH   1  31
TORSDOF 9
ENDMDL
MODEL 7
REMARK VINA RESULT:      -6.9      2.704      4.255
REMARK  9 active torsions:
REMARK  status: ('A' for Active; 'I' for Inactive)
REMARK    1  A    between atoms: C_2  and  C_3 
REMARK    2  A    between atoms: C_3  and  C_4 
REMARK    3  A    between atoms: C_4  and  O_5 
REMARK    4  A    between atoms: O_5  and  C_6 
REMARK    5  A    between atoms: C_9  and  N_32 
REMARK    6  A    between atoms: N_14  and  C_19 
REMARK    7  A    between atoms: C_19  and  C_20 
REMARK    8  A    between atoms: C_24  and  C_26 
REMARK    9  A    between atoms: C_26  and  N_27 
ROOT
HETATM    1  C   UNK N   1      26.046  18.479   5.101  0.00  0.00     0.226 A 
HETATM    2  N   UNK N   1      26.360  19.403   4.148  0.00  0.00    -0.306 N 
ATOM      3  HN  UNK N   1      27.336  19.658   3.997  1.00  0.00     0.171 HD
HETATM    4  C   UNK N   1      25.388  19.988   3.398  0.00  0.00     0.133 A 
HETATM    5  C   UNK N   1      24.048  19.646   3.610  0.00  0.00     0.123 A 
HETATM    6  C   UNK N   1      23.746  18.709   4.598  0.00  0.00     0.138 A 
HETATM    7  N   UNK N   1      24.754  18.144   5.315  0.00  0.00    -0.306 N 
ATOM      8  HN  UNK N   1      24.530  17.452   6.029  1.00  0.00     0.171 HD
HETATM    9  N   UNK N   1      22.399  18.365   4.889  0.00  0.00    -0.352 N 
HETATM   10  C   UNK N   1      21.296  18.994   4.167  0.00  0.00     0.227 A 
HETATM   11  C   UNK N   1      21.712  19.963   3.085  0.00  0.00     0.240 A 
HETATM   12  O   UNK N   1      20.852  20.507   2.412  0.00  0.00    -0.271 OA
HETATM   13  N   UNK N   1      23.015  20.249   2.856  0.00  0.00    -0.320 N 
HETATM   14  H   UNK N   1      23.248  20.892   2.148  0.00  0.00     0.169 HD
ENDROOT
BRANCH   9  15
HETATM   15  C   UNK N   1      22.178  17.531   6.071  0.00  0.00     0.163 C 
BRANCH  15  16
HETATM   16  C   UNK N   1      22.066  16.042   5.914  0.00  0.00    -0.040 A 
HETATM   17  C   UNK N   1      22.378  15.471   4.674  0.00  0.00     0.009 A 
HETATM   18  C   UNK N   1      22.356  14.081   4.512  0.00  0.00     0.001 A 
HETATM   19  C   UNK N   1      22.045  13.254   5.599  0.00  0.00     0.009 A 
HETATM   20  C   UNK N   1      21.756  13.825   6.843  0.00  0.00    -0.030 A 
HETATM   21  C   UNK N   1      21.759  15.209   6.982  0.00  0.00     0.017 A 
BRANCH  20  22
HETATM   22  C   UNK N   1      21.411  12.977   8.029  0.00  0.00     0.311 C 
BRANCH  22  23
HETATM   23  N   UNK N   1      21.605  13.640   9.332  0.00  0.00     0.092 N 
HETATM   24  C   UNK N   1      22.881  13.170   9.851  0.00  0.00     0.273 C 
HETATM   25  C   UNK N   1      22.601  11.959  10.716  0.00  0.00     0.032 C 
HETATM   26  C   UNK N   1      21.223  12.206  11.261  0.00  0.00     0.032 C 
HETATM   27  C   UNK N   1      20.617  13.252  10.346  0.00  0.00     0.273 C 
ENDBRANCH  22  23
ENDBRANCH  20  22
ENDBRANCH  15  16
ENDBRANCH   9  15
BRANCH   4  28
HETATM   28  N   UNK N   1      25.738  20.947   2.426  0.00  0.00    -0.383 N 
HETATM   29  H   UNK N   1      25.359  20.902   1.517  0.00  0.00     0.157 HD
HETATM   30  H   UNK N   1      26.366  21.668   2.656  0.00  0.00     0.157 HD
ENDBRANCH   4  28
BRANCH   1  31
HETATM   31  O   UNK N   1      27.005  17.891   5.849  0.00  0.00    -0.322 OA
BRANCH  31  32
HETATM   32  C   UNK N   1      28.090  18.576   6.335  0.00  0.00     0.178 C 
BRANCH  32  33
HETATM   33  C   UNK N   1      28.667  17.837   7.526  0.00  0.00     0.026 C 
BRANCH  33  34
HETATM   34  C   UNK N   1      28.415  18.631   8.793  0.00  0.00    -0.002 C 
HETATM   35  C   UNK N   1      29.581  18.464   9.751  0.00  0.00     0.005 C 
ENDBRANCH  33  34
ENDBRANCH  32  33
ENDBRANCH  31  32
ENDBRANCH   1  31
TORSDOF 9
ENDMDL
MODEL 8
REMARK VINA RESULT:      -6.8      2.888      6.354
REMARK  9 active torsions:
REMARK  status: ('A' for Active; 'I' for Inactive)
REMARK    1  A    between atoms: C_2  and  C_3 
REMARK    2  A    between atoms: C_3  and  C_4 
REMARK    3  A    between atoms: C_4  and  O_5 
REMARK    4  A    between atoms: O_5  and  C_6 
REMARK    5  A    between atoms: C_9  and  N_32 
REMARK    6  A    between atoms: N_14  and  C_19 
REMARK    7  A    between atoms: C_19  and  C_20 
REMARK    8  A    between atoms: C_24  and  C_26 
REMARK    9  A    between atoms: C_26  and  N_27 
ROOT
HETATM    1  C   UNK N   1      20.919  15.710   3.225  0.00  0.00     0.226 A 
HETATM    2  N   UNK N   1      20.112  15.718   2.126  0.00  0.00    -0.306 N 
ATOM      3  HN  UNK N   1      19.674  14.850   1.816  1.00  0.00     0.171 HD
HETATM    4  C   UNK N   1      19.885  16.868   1.437  0.00  0.00     0.133 A 
HETATM    5  C   UNK N   1      20.490  18.059   1.855  0.00  0.00     0.123 A 
HETATM    6  C   UNK N   1      21.322  18.027   2.975  0.00  0.00     0.138 A 
HETATM    7  N   UNK N   1      21.511  16.854   3.635  0.00  0.00    -0.306 N 
ATOM      8  HN  UNK N   1      22.112  16.837   4.459  1.00  0.00     0.171 HD
HETATM    9  N   UNK N   1      22.003  19.196   3.410  0.00  0.00    -0.352 N 
HETATM   10  C   UNK N   1      21.857  20.457   2.688  0.00  0.00     0.227 A 
HETATM   11  C   UNK N   1      20.904  20.414   1.516  0.00  0.00     0.240 A 
HETATM   12  O   UNK N   1      20.699  21.434   0.879  0.00  0.00    -0.271 OA
HETATM   13  N   UNK N   1      20.285  19.267   1.150  0.00  0.00    -0.320 N 
HETATM   14  H   UNK N   1      19.677  19.275   0.376  0.00  0.00     0.169 HD
ENDROOT
BRANCH   9  15
HETATM   15  C   UNK N   1      23.003  19.015   4.462  0.00  0.00     0.163 C 
BRANCH  15  16
HETATM   16  C   UNK N   1      24.432  19.394   4.196  0.00  0.00    -0.040 A 
HETATM   17  C   UNK N   1      24.729  20.128   3.041  0.00  0.00     0.009 A 
HETATM   18  C   UNK N   1      26.038  20.561   2.798  0.00  0.00     0.001 A 
HETATM   19  C   UNK N   1      27.051  20.282   3.724  0.00  0.00     0.009 A 
HETATM   20  C   UNK N   1      26.748  19.570   4.889  0.00  0.00    -0.030 A 
HETATM   21  C   UNK N   1      25.447  19.126   5.104  0.00  0.00     0.017 A 
BRANCH  20  22
HETATM   22  C   UNK N   1      27.803  19.244   5.902  0.00  0.00     0.311 C 
BRANCH  22  23
HETATM   23  N   UNK N   1      27.801  17.842   6.358  0.00  0.00     0.092 N 
HETATM   24  C   UNK N   1      28.485  17.823   7.642  0.00  0.00     0.273 C 
HETATM   25  C   UNK N   1      29.948  17.540   7.374  0.00  0.00     0.032 C 
HETATM   26  C   UNK N   1      29.939  16.703   6.127  0.00  0.00     0.032 C 
HETATM   27  C   UNK N   1      28.579  16.940   5.500  0.00  0.00     0.273 C 
ENDBRANCH  22  23
ENDBRANCH  20  22
ENDBRANCH  15  16
ENDBRANCH   9  15
BRANCH   4  28
HETATM   28  N   UNK N   1      19.054  16.850   0.298  0.00  0.00    -0.383 N 
HETATM   29  H   UNK N   1      19.087  16.095  -0.335  0.00  0.00     0.157 HD
HETATM   30  H   UNK N   1      18.436  17.597   0.133  0.00  0.00     0.157 HD
ENDBRANCH   4  28
BRANCH   1  31
HETATM   31  O   UNK N   1      21.148  14.572   3.916  0.00  0.00    -0.322 OA
BRANCH  31  32
HETATM   32  C   UNK N   1      22.314  14.346   4.605  0.00  0.00     0.178 C 
BRANCH  32  33
HETATM   33  C   UNK N   1      21.994  13.991   6.044  0.00  0.00     0.026 C 
BRANCH  33  34
HETATM   34  C   UNK N   1      22.911  14.758   6.976  0.00  0.00    -0.002 C 
HETATM   35  C   UNK N   1      23.847  15.643   6.173  0.00  0.00     0.005 C 
ENDBRANCH  33  34
ENDBRANCH  32  33
ENDBRANCH  31  32
ENDBRANCH   1  31
TORSDOF 9
ENDMDL
MODEL 9
REMARK VINA RESULT:      -6.7      3.181      6.174
REMARK  9 active torsions:
REMARK  status: ('A' for Active; 'I' for Inactive)
REMARK    1  A    between atoms: C_2  and  C_3 
REMARK    2  A    between atoms: C_3  and  C_4 
REMARK    3  A    between atoms: C_4  and  O_5 
REMARK    4  A    between atoms: O_5  and  C_6 
REMARK    5  A    between atoms: C_9  and  N_32 
REMARK    6  A    between atoms: N_14  and  C_19 
REMARK    7  A    between atoms: C_19  and  C_20 
REMARK    8  A    between atoms: C_24  and  C_26 
REMARK    9  A    between atoms: C_26  and  N_27 
ROOT
HETATM    1  C   UNK N   1      22.733  15.915   4.715  0.00  0.00     0.226 A 
HETATM    2  N   UNK N   1      21.384  16.000   4.535  0.00  0.00    -0.306 N 
ATOM      3  HN  UNK N   1      20.792  15.211   4.794  1.00  0.00     0.171 HD
HETATM    4  C   UNK N   1      20.820  17.122   4.015  0.00  0.00     0.133 A 
HETATM    5  C   UNK N   1      21.631  18.202   3.651  0.00  0.00     0.123 A 
HETATM    6  C   UNK N   1      23.010  18.092   3.831  0.00  0.00     0.138 A 
HETATM    7  N   UNK N   1      23.526  16.952   4.364  0.00  0.00    -0.306 N 
ATOM      8  HN  UNK N   1      24.534  16.879   4.503  1.00  0.00     0.171 HD
HETATM    9  N   UNK N   1      23.884  19.138   3.429  0.00  0.00    -0.352 N 
HETATM   10  C   UNK N   1      23.358  20.351   2.809  0.00  0.00     0.227 A 
HETATM   11  C   UNK N   1      21.853  20.408   2.692  0.00  0.00     0.240 A 
HETATM   12  O   UNK N   1      21.331  21.402   2.215  0.00  0.00    -0.271 OA
HETATM   13  N   UNK N   1      21.074  19.376   3.093  0.00  0.00    -0.320 N 
HETATM   14  H   UNK N   1      20.097  19.445   2.995  0.00  0.00     0.169 HD
ENDROOT
BRANCH   9  15
HETATM   15  C   UNK N   1      25.317  18.845   3.472  0.00  0.00     0.163 C 
BRANCH  15  16
HETATM   16  C   UNK N   1      26.158  19.430   4.569  0.00  0.00    -0.040 A 
HETATM   17  C   UNK N   1      25.911  20.748   4.976  0.00  0.00     0.009 A 
HETATM   18  C   UNK N   1      26.626  21.301   6.045  0.00  0.00     0.001 A 
HETATM   19  C   UNK N   1      27.575  20.529   6.727  0.00  0.00     0.009 A 
HETATM   20  C   UNK N   1      27.803  19.207   6.335  0.00  0.00    -0.030 A 
HETATM   21  C   UNK N   1      27.102  18.679   5.255  0.00  0.00     0.017 A 
BRANCH  20  22
HETATM   22  C   UNK N   1      28.815  18.349   7.032  0.00  0.00     0.311 C 
BRANCH  22  23
HETATM   23  N   UNK N   1      29.089  18.739   8.428  0.00  0.00     0.092 N 
HETATM   24  C   UNK N   1      30.463  18.346   8.706  0.00  0.00     0.273 C 
HETATM   25  C   UNK N   1      30.427  16.952   9.296  0.00  0.00     0.032 C 
HETATM   26  C   UNK N   1      29.105  16.887  10.007  0.00  0.00     0.032 C 
HETATM   27  C   UNK N   1      28.280  18.013   9.414  0.00  0.00     0.273 C 
ENDBRANCH  22  23
ENDBRANCH  20  22
ENDBRANCH  15  16
ENDBRANCH   9  15
BRANCH   4  28
HETATM   28  N   UNK N   1      19.423  17.181   3.830  0.00  0.00    -0.383 N 
HETATM   29  H   UNK N   1      19.038  17.665   3.063  0.00  0.00     0.157 HD
HETATM   30  H   UNK N   1      18.827  16.736   4.474  0.00  0.00     0.157 HD
ENDBRANCH   4  28
BRANCH   1  31
HETATM   31  O   UNK N   1      23.303  14.805   5.233  0.00  0.00    -0.322 OA
BRANCH  31  32
HETATM   32  C   UNK N   1      24.662  14.658   5.357  0.00  0.00     0.178 C 
BRANCH  32  33
HETATM   33  C   UNK N   1      25.054  14.763   6.817  0.00  0.00     0.026 C 
BRANCH  33  34
HETATM   34  C   UNK N   1      26.370  15.507   6.941  0.00  0.00    -0.002 C 
HETATM   35  C   UNK N   1      27.305  15.098   5.818  0.00  0.00     0.005 C 
ENDBRANCH  33  34
ENDBRANCH  32  33
ENDBRANCH  31  32
ENDBRANCH   1  31
TORSDOF 9
ENDMDL
