MODEL 1
REMARK VINA RESULT:      -9.0      0.000      0.000
REMARK  15 active torsions:
REMARK  status: ('A' for Active; 'I' for Inactive)
REMARK    1  A    between atoms: C_12  and  O_22 
REMARK    2  A    between atoms: C_23  and  O_22 
REMARK    3  A    between atoms: C_25  and  C_26 
REMARK    4  A    between atoms: C_26  and  O_27 
REMARK    5  A    between atoms: C_28  and  O_29 
REMARK    6  A    between atoms: C_30  and  O_29 
REMARK    7  A    between atoms: C_34  and  O_35 
REMARK    8  A    between atoms: C_36  and  O_37 
REMARK    9  A    between atoms: C_38  and  O_39 
REMARK   10  A    between atoms: C_40  and  O_41 
REMARK   11  A    between atoms: C_42  and  O_43 
REMARK   12  A    between atoms: C_44  and  O_43 
REMARK   13  A    between atoms: C_48  and  O_49 
REMARK   14  A    between atoms: C_50  and  O_51 
REMARK   15  A    between atoms: C_52  and  O_53 
ROOT
HETATM    1  C   UNK N   1      32.110  15.859   4.646  0.00  0.00     0.292 C 
HETATM    2  O   UNK N   1      33.492  16.201   4.683  0.00  0.00    -0.348 OA
HETATM    3  C   UNK N   1      34.252  15.288   5.476  0.00  0.00     0.180 C 
HETATM    4  C   UNK N   1      33.714  15.086   6.904  0.00  0.00     0.187 C 
HETATM    5  C   UNK N   1      32.213  14.813   6.874  0.00  0.00     0.183 C 
HETATM    6  C   UNK N   1      31.498  15.887   6.055  0.00  0.00     0.211 C 
ENDROOT
BRANCH   1   7
HETATM    7  O   UNK N   1      31.916  14.621   3.987  0.00  0.00    -0.353 OA
BRANCH   7   8
HETATM    8  C   UNK N   1      30.928  14.723   2.981  0.00  0.00     0.128 C 
HETATM    9  C   UNK N   1      29.758  15.684   3.285  0.00  0.00     0.066 C 
HETATM   10  C   UNK N   1      28.452  15.031   2.923  0.00  0.00    -0.072 C 
HETATM   11  C   UNK N   1      27.563  15.688   2.158  0.00  0.00    -0.023 C 
HETATM   12  C   UNK N   1      28.207  13.628   3.446  0.00  0.00    -0.017 C 
HETATM   13  C   UNK N   1      26.218  15.116   1.771  0.00  0.00     0.033 C 
HETATM   14  C   UNK N   1      25.782  13.897   2.596  0.00  0.00    -0.001 C 
HETATM   15  C   UNK N   1      25.116  14.267   3.927  0.00  0.00     0.001 C 
HETATM   16  C   UNK N   1      26.965  12.962   2.798  0.00  0.00     0.003 C 
HETATM   17  C   UNK N   1      23.764  14.918   3.633  0.00  0.00     0.038 C 
HETATM   18  C   UNK N   1      24.748  13.031   4.770  0.00  0.00    -0.033 C 
HETATM   19  C   UNK N   1      22.694  13.827   3.777  0.00  0.00     0.130 C 
HETATM   20  C   UNK N   1      23.404  12.553   4.220  0.00  0.00     0.032 C 
HETATM   21  O   UNK N   1      22.047  13.582   2.537  0.00  0.00    -0.355 OA
HETATM   22  C   UNK N   1      23.442  11.779   2.938  0.00  0.00     0.044 C 
HETATM   23  C   UNK N   1      23.609  10.282   3.170  0.00  0.00     0.015 C 
HETATM   24  C   UNK N   1      22.125  12.197   2.311  0.00  0.00     0.134 C 
HETATM   25  C   UNK N   1      22.147  11.930   0.793  0.00  0.00     0.061 C 
HETATM   26  N   UNK N   1      20.977  11.546   3.001  0.00  0.00    -0.391 N 
HETATM   27  C   UNK N   1      21.985  10.447   0.437  0.00  0.00     0.010 C 
HETATM   28  C   UNK N   1      21.021   9.714   1.374  0.00  0.00    -0.001 C 
HETATM   29  C   UNK N   1      20.161   8.751   0.585  0.00  0.00     0.011 C 
HETATM   30  C   UNK N   1      20.148  10.696   2.142  0.00  0.00     0.120 C 
HETATM   31  H   UNK N   1      20.782  11.681   3.994  0.00  0.00     0.156 HD
HETATM   32  C   UNK N   1      25.843  11.950   4.830  0.00  0.00     0.010 C 
HETATM   33  C   UNK N   1      24.513  13.489   6.204  0.00  0.00     0.016 C 
HETATM   34  C   UNK N   1      26.502  11.666   3.474  0.00  0.00     0.007 C 
HETATM   35  C   UNK N   1      29.405  12.706   3.144  0.00  0.00     0.016 C 
HETATM   36  C   UNK N   1      28.091  13.773   4.957  0.00  0.00     0.020 C 
HETATM   37  C   UNK N   1      30.540  13.373   2.360  0.00  0.00     0.033 C 
ENDBRANCH   7   8
ENDBRANCH   1   7
BRANCH   6  38
HETATM   38  O   UNK N   1      31.691  17.171   6.600  0.00  0.00    -0.346 OA
BRANCH  38  39
HETATM   39  C   UNK N   1      30.484  17.562   7.196  0.00  0.00     0.292 C 
HETATM   40  O   UNK N   1      29.515  16.555   7.049  0.00  0.00    -0.351 OA
HETATM   41  C   UNK N   1      28.284  17.224   7.203  0.00  0.00     0.152 C 
HETATM   42  C   UNK N   1      27.138  16.314   6.813  0.00  0.00     0.042 C 
HETATM   43  C   UNK N   1      28.088  17.758   8.637  0.00  0.00     0.178 C 
HETATM   44  C   UNK N   1      29.375  17.572   9.454  0.00  0.00     0.183 C 
HETATM   45  C   UNK N   1      30.653  17.936   8.686  0.00  0.00     0.204 C 
BRANCH  43  46
HETATM   46  O   UNK N   1      27.732  19.106   8.574  0.00  0.00    -0.390 OA
HETATM   47  H   UNK N   1      26.987  19.713   8.707  0.00  0.00     0.210 HD
ENDBRANCH  43  46
BRANCH  44  48
HETATM   48  O   UNK N   1      29.313  18.219  10.689  0.00  0.00    -0.390 OA
HETATM   49  H   UNK N   1      28.565  18.101  11.296  0.00  0.00     0.210 HD
ENDBRANCH  44  48
BRANCH  45  50
HETATM   50  O   UNK N   1      31.717  17.239   9.263  0.00  0.00    -0.388 OA
HETATM   51  H   UNK N   1      32.085  16.646   9.936  0.00  0.00     0.210 HD
ENDBRANCH  45  50
ENDBRANCH  38  39
ENDBRANCH   6  38
BRANCH   3  52
HETATM   52  C   UNK N   1      34.526  13.967   4.768  0.00  0.00     0.198 C 
BRANCH  52  53
HETATM   53  O   UNK N   1      34.807  14.204   3.423  0.00  0.00    -0.398 OA
HETATM   54  H   UNK N   1      34.157  14.338   2.717  0.00  0.00     0.209 HD
ENDBRANCH  52  53
ENDBRANCH   3  52
BRANCH   5  55
HETATM   55  O   UNK N   1      31.688  14.719   8.164  0.00  0.00    -0.390 OA
HETATM   56  H   UNK N   1      32.012  14.074   8.813  0.00  0.00     0.210 HD
ENDBRANCH   5  55
BRANCH   4  57
HETATM   57  O   UNK N   1      34.007  16.192   7.721  0.00  0.00    -0.348 OA
BRANCH  57  58
HETATM   58  C   UNK N   1      35.037  15.821   8.615  0.00  0.00     0.292 C 
HETATM   59  O   UNK N   1      35.206  14.410   8.701  0.00  0.00    -0.351 OA
HETATM   60  C   UNK N   1      34.519  13.951   9.837  0.00  0.00     0.152 C 
HETATM   61  C   UNK N   1      34.222  12.465   9.751  0.00  0.00     0.042 C 
HETATM   62  C   UNK N   1      35.230  14.378  11.139  0.00  0.00     0.178 C 
HETATM   63  C   UNK N   1      35.860  15.783  10.997  0.00  0.00     0.183 C 
HETATM   64  C   UNK N   1      35.053  16.584   9.974  0.00  0.00     0.204 C 
BRANCH  62  65
HETATM   65  O   UNK N   1      36.195  13.448  11.539  0.00  0.00    -0.390 OA
HETATM   66  H   UNK N   1      36.774  12.922  10.966  0.00  0.00     0.210 HD
ENDBRANCH  62  65
BRANCH  63  67
HETATM   67  O   UNK N   1      37.188  15.687  10.563  0.00  0.00    -0.390 OA
HETATM   68  H   UNK N   1      37.792  15.980   9.864  0.00  0.00     0.210 HD
ENDBRANCH  63  67
BRANCH  64  69
HETATM   69  O   UNK N   1      35.566  17.872   9.812  0.00  0.00    -0.388 OA
HETATM   70  H   UNK N   1      36.488  18.067  10.042  0.00  0.00     0.210 HD
ENDBRANCH  64  69
ENDBRANCH  57  58
ENDBRANCH   4  57
TORSDOF 15
ENDMDL
MODEL 2
REMARK VINA RESULT:      -8.9      3.304      7.245
REMARK  15 active torsions:
REMARK  status: ('A' for Active; 'I' for Inactive)
REMARK    1  A    between atoms: C_12  and  O_22 
REMARK    2  A    between atoms: C_23  and  O_22 
REMARK    3  A    between atoms: C_25  and  C_26 
REMARK    4  A    between atoms: C_26  and  O_27 
REMARK    5  A    between atoms: C_28  and  O_29 
REMARK    6  A    between atoms: C_30  and  O_29 
REMARK    7  A    between atoms: C_34  and  O_35 
REMARK    8  A    between atoms: C_36  and  O_37 
REMARK    9  A    between atoms: C_38  and  O_39 
REMARK   10  A    between atoms: C_40  and  O_41 
REMARK   11  A    between atoms: C_42  and  O_43 
REMARK   12  A    between atoms: C_44  and  O_43 
REMARK   13  A    between atoms: C_48  and  O_49 
REMARK   14  A    between atoms: C_50  and  O_51 
REMARK   15  A    between atoms: C_52  and  O_53 
ROOT
HETATM    1  C   UNK N   1      35.095  14.101   7.953  0.00  0.00     0.292 C 
HETATM    2  O   UNK N   1      34.210  13.511   8.901  0.00  0.00    -0.348 OA
HETATM    3  C   UNK N   1      34.228  14.197  10.153  0.00  0.00     0.180 C 
HETATM    4  C   UNK N   1      35.630  14.366  10.765  0.00  0.00     0.187 C 
HETATM    5  C   UNK N   1      36.605  14.908   9.724  0.00  0.00     0.183 C 
HETATM    6  C   UNK N   1      36.546  14.059   8.455  0.00  0.00     0.211 C 
ENDROOT
BRANCH   1   7
HETATM    7  O   UNK N   1      34.669  15.406   7.611  0.00  0.00    -0.353 OA
BRANCH   7   8
HETATM    8  C   UNK N   1      33.970  15.415   6.383  0.00  0.00     0.128 C 
HETATM    9  C   UNK N   1      33.587  16.810   5.839  0.00  0.00     0.066 C 
HETATM   10  C   UNK N   1      32.162  16.798   5.357  0.00  0.00    -0.072 C 
HETATM   11  C   UNK N   1      31.863  17.272   4.136  0.00  0.00    -0.023 C 
HETATM   12  C   UNK N   1      31.115  16.228   6.296  0.00  0.00    -0.017 C 
HETATM   13  C   UNK N   1      30.455  17.322   3.586  0.00  0.00     0.033 C 
HETATM   14  C   UNK N   1      29.353  17.134   4.638  0.00  0.00    -0.001 C 
HETATM   15  C   UNK N   1      28.989  18.427   5.378  0.00  0.00     0.001 C 
HETATM   16  C   UNK N   1      29.744  16.024   5.601  0.00  0.00     0.003 C 
HETATM   17  C   UNK N   1      28.298  19.375   4.397  0.00  0.00     0.038 C 
HETATM   18  C   UNK N   1      27.931  18.205   6.476  0.00  0.00    -0.033 C 
HETATM   19  C   UNK N   1      26.786  19.217   4.605  0.00  0.00     0.130 C 
HETATM   20  C   UNK N   1      26.586  18.231   5.750  0.00  0.00     0.032 C 
HETATM   21  O   UNK N   1      26.163  18.696   3.439  0.00  0.00    -0.355 OA
HETATM   22  C   UNK N   1      26.203  16.990   5.004  0.00  0.00     0.044 C 
HETATM   23  C   UNK N   1      25.442  16.001   5.877  0.00  0.00     0.015 C 
HETATM   24  C   UNK N   1      25.412  17.581   3.850  0.00  0.00     0.134 C 
HETATM   25  C   UNK N   1      25.326  16.572   2.689  0.00  0.00     0.061 C 
HETATM   26  N   UNK N   1      24.079  18.059   4.309  0.00  0.00    -0.391 N 
HETATM   27  C   UNK N   1      24.329  15.435   2.949  0.00  0.00     0.010 C 
HETATM   28  C   UNK N   1      23.086  15.899   3.713  0.00  0.00    -0.001 C 
HETATM   29  C   UNK N   1      21.851  15.228   3.153  0.00  0.00     0.011 C 
HETATM   30  C   UNK N   1      22.939  17.413   3.653  0.00  0.00     0.120 C 
HETATM   31  H   UNK N   1      23.968  18.780   5.023  0.00  0.00     0.156 HD
HETATM   32  C   UNK N   1      28.169  16.960   7.349  0.00  0.00     0.010 C 
HETATM   33  C   UNK N   1      27.963  19.404   7.414  0.00  0.00     0.016 C 
HETATM   34  C   UNK N   1      28.579  15.716   6.550  0.00  0.00     0.007 C 
HETATM   35  C   UNK N   1      31.543  14.849   6.835  0.00  0.00     0.016 C 
HETATM   36  C   UNK N   1      31.054  17.197   7.470  0.00  0.00     0.020 C 
HETATM   37  C   UNK N   1      32.880  14.338   6.286  0.00  0.00     0.033 C 
ENDBRANCH   7   8
ENDBRANCH   1   7
BRANCH   6  38
HETATM   38  O   UNK N   1      36.893  12.718   8.710  0.00  0.00    -0.346 OA
BRANCH  38  39
HETATM   39  C   UNK N   1      38.076  12.447   8.009  0.00  0.00     0.292 C 
HETATM   40  O   UNK N   1      38.568  13.616   7.406  0.00  0.00    -0.351 OA
HETATM   41  C   UNK N   1      39.400  13.154   6.367  0.00  0.00     0.152 C 
HETATM   42  C   UNK N   1      39.799  14.301   5.462  0.00  0.00     0.042 C 
HETATM   43  C   UNK N   1      40.651  12.427   6.904  0.00  0.00     0.178 C 
HETATM   44  C   UNK N   1      40.548  12.247   8.425  0.00  0.00     0.183 C 
HETATM   45  C   UNK N   1      39.159  11.803   8.903  0.00  0.00     0.204 C 
BRANCH  43  46
HETATM   46  O   UNK N   1      40.766  11.191   6.265  0.00  0.00    -0.390 OA
HETATM   47  H   UNK N   1      40.633  10.750   5.412  0.00  0.00     0.210 HD
ENDBRANCH  43  46
BRANCH  44  48
HETATM   48  O   UNK N   1      41.556  11.421   8.926  0.00  0.00    -0.390 OA
HETATM   49  H   UNK N   1      41.362  10.656   9.490  0.00  0.00     0.210 HD
ENDBRANCH  44  48
BRANCH  45  50
HETATM   50  O   UNK N   1      39.014  12.197  10.235  0.00  0.00    -0.388 OA
HETATM   51  H   UNK N   1      38.835  12.867  10.912  0.00  0.00     0.210 HD
ENDBRANCH  45  50
ENDBRANCH  38  39
ENDBRANCH   6  38
BRANCH   3  52
HETATM   52  C   UNK N   1      33.446  15.504  10.130  0.00  0.00     0.198 C 
BRANCH  52  53
HETATM   53  O   UNK N   1      32.085  15.240  10.284  0.00  0.00    -0.398 OA
HETATM   54  H   UNK N   1      31.359  15.677   9.811  0.00  0.00     0.209 HD
ENDBRANCH  52  53
ENDBRANCH   3  52
BRANCH   5  55
HETATM   55  O   UNK N   1      37.902  14.982  10.232  0.00  0.00    -0.390 OA
HETATM   56  H   UNK N   1      38.335  14.231  10.669  0.00  0.00     0.210 HD
ENDBRANCH   5  55
BRANCH   4  57
HETATM   57  O   UNK N   1      36.099  13.158  11.310  0.00  0.00    -0.348 OA
BRANCH  57  58
HETATM   58  C   UNK N   1      35.374  12.894  12.494  0.00  0.00     0.292 C 
HETATM   59  O   UNK N   1      35.456  13.960  13.434  0.00  0.00    -0.351 OA
HETATM   60  C   UNK N   1      36.451  13.644  14.376  0.00  0.00     0.152 C 
HETATM   61  C   UNK N   1      36.953  14.879  15.099  0.00  0.00     0.042 C 
HETATM   62  C   UNK N   1      35.999  12.504  15.313  0.00  0.00     0.178 C 
HETATM   63  C   UNK N   1      35.138  11.466  14.557  0.00  0.00     0.183 C 
HETATM   64  C   UNK N   1      35.549  11.462  13.084  0.00  0.00     0.204 C 
BRANCH  62  65
HETATM   65  O   UNK N   1      35.313  12.986  16.433  0.00  0.00    -0.390 OA
HETATM   66  H   UNK N   1      34.747  13.772  16.478  0.00  0.00     0.210 HD
ENDBRANCH  62  65
BRANCH  63  67
HETATM   67  O   UNK N   1      33.778  11.787  14.654  0.00  0.00    -0.390 OA
HETATM   68  H   UNK N   1      33.022  12.101  14.134  0.00  0.00     0.210 HD
ENDBRANCH  63  67
BRANCH  64  69
HETATM   69  O   UNK N   1      34.815  10.531  12.348  0.00  0.00    -0.388 OA
HETATM   70  H   UNK N   1      34.371   9.792  12.794  0.00  0.00     0.210 HD
ENDBRANCH  64  69
ENDBRANCH  57  58
ENDBRANCH   4  57
TORSDOF 15
ENDMDL
MODEL 3
REMARK VINA RESULT:      -8.9      4.066     11.518
REMARK  15 active torsions:
REMARK  status: ('A' for Active; 'I' for Inactive)
REMARK    1  A    between atoms: C_12  and  O_22 
REMARK    2  A    between atoms: C_23  and  O_22 
REMARK    3  A    between atoms: C_25  and  C_26 
REMARK    4  A    between atoms: C_26  and  O_27 
REMARK    5  A    between atoms: C_28  and  O_29 
REMARK    6  A    between atoms: C_30  and  O_29 
REMARK    7  A    between atoms: C_34  and  O_35 
REMARK    8  A    between atoms: C_36  and  O_37 
REMARK    9  A    between atoms: C_38  and  O_39 
REMARK   10  A    between atoms: C_40  and  O_41 
REMARK   11  A    between atoms: C_42  and  O_43 
REMARK   12  A    between atoms: C_44  and  O_43 
REMARK   13  A    between atoms: C_48  and  O_49 
REMARK   14  A    between atoms: C_50  and  O_51 
REMARK   15  A    between atoms: C_52  and  O_53 
ROOT
HETATM    1  C   UNK N   1      27.131  17.791   4.470  0.00  0.00     0.292 C 
HETATM    2  O   UNK N   1      26.709  19.017   3.881  0.00  0.00    -0.348 OA
HETATM    3  C   UNK N   1      25.581  19.578   4.555  0.00  0.00     0.180 C 
HETATM    4  C   UNK N   1      24.387  18.619   4.703  0.00  0.00     0.187 C 
HETATM    5  C   UNK N   1      24.851  17.270   5.245  0.00  0.00     0.183 C 
HETATM    6  C   UNK N   1      26.015  16.738   4.408  0.00  0.00     0.211 C 
ENDROOT
BRANCH   1   7
HETATM    7  O   UNK N   1      27.614  18.003   5.783  0.00  0.00    -0.353 OA
BRANCH   7   8
HETATM    8  C   UNK N   1      29.007  18.241   5.789  0.00  0.00     0.128 C 
HETATM    9  C   UNK N   1      29.729  18.025   4.440  0.00  0.00     0.066 C 
HETATM   10  C   UNK N   1      31.000  17.251   4.658  0.00  0.00    -0.072 C 
HETATM   11  C   UNK N   1      32.156  17.698   4.138  0.00  0.00    -0.023 C 
HETATM   12  C   UNK N   1      30.908  15.980   5.483  0.00  0.00    -0.017 C 
HETATM   13  C   UNK N   1      33.471  16.968   4.287  0.00  0.00     0.033 C 
HETATM   14  C   UNK N   1      33.343  15.512   4.757  0.00  0.00    -0.001 C 
HETATM   15  C   UNK N   1      33.053  14.526   3.617  0.00  0.00     0.001 C 
HETATM   16  C   UNK N   1      32.302  15.417   5.862  0.00  0.00     0.003 C 
HETATM   17  C   UNK N   1      34.290  14.435   2.723  0.00  0.00     0.038 C 
HETATM   18  C   UNK N   1      32.860  13.081   4.117  0.00  0.00    -0.033 C 
HETATM   19  C   UNK N   1      35.075  13.192   3.160  0.00  0.00     0.130 C 
HETATM   20  C   UNK N   1      34.271  12.513   4.262  0.00  0.00     0.032 C 
HETATM   21  O   UNK N   1      36.349  13.550   3.676  0.00  0.00    -0.355 OA
HETATM   22  C   UNK N   1      35.038  12.927   5.481  0.00  0.00     0.044 C 
HETATM   23  C   UNK N   1      34.799  11.994   6.661  0.00  0.00     0.015 C 
HETATM   24  C   UNK N   1      36.456  12.938   4.938  0.00  0.00     0.134 C 
HETATM   25  C   UNK N   1      37.367  13.792   5.840  0.00  0.00     0.061 C 
HETATM   26  N   UNK N   1      36.961  11.551   4.743  0.00  0.00    -0.391 N 
HETATM   27  C   UNK N   1      37.746  13.093   7.152  0.00  0.00     0.010 C 
HETATM   28  C   UNK N   1      37.957  11.586   6.981  0.00  0.00    -0.001 C 
HETATM   29  C   UNK N   1      39.141  11.131   7.806  0.00  0.00     0.011 C 
HETATM   30  C   UNK N   1      38.160  11.222   5.517  0.00  0.00     0.120 C 
HETATM   31  H   UNK N   1      36.509  10.883   4.118  0.00  0.00     0.156 HD
HETATM   32  C   UNK N   1      31.979  12.953   5.374  0.00  0.00     0.010 C 
HETATM   33  C   UNK N   1      32.164  12.290   3.018  0.00  0.00     0.016 C 
HETATM   34  C   UNK N   1      32.287  14.001   6.451  0.00  0.00     0.007 C 
HETATM   35  C   UNK N   1      30.161  16.231   6.808  0.00  0.00     0.016 C 
HETATM   36  C   UNK N   1      30.077  15.015   4.647  0.00  0.00     0.020 C 
HETATM   37  C   UNK N   1      29.723  17.683   7.027  0.00  0.00     0.033 C 
ENDBRANCH   7   8
ENDBRANCH   1   7
BRANCH   6  38
HETATM   38  O   UNK N   1      25.646  16.556   3.062  0.00  0.00    -0.346 OA
BRANCH  38  39
HETATM   39  C   UNK N   1      25.717  15.183   2.786  0.00  0.00     0.292 C 
HETATM   40  O   UNK N   1      26.072  14.468   3.942  0.00  0.00    -0.351 OA
HETATM   41  C   UNK N   1      26.597  13.253   3.459  0.00  0.00     0.152 C 
HETATM   42  C   UNK N   1      27.261  12.483   4.582  0.00  0.00     0.042 C 
HETATM   43  C   UNK N   1      25.521  12.388   2.770  0.00  0.00     0.178 C 
HETATM   44  C   UNK N   1      24.210  13.175   2.639  0.00  0.00     0.183 C 
HETATM   45  C   UNK N   1      24.404  14.630   2.189  0.00  0.00     0.204 C 
BRANCH  43  46
HETATM   46  O   UNK N   1      25.990  11.995   1.516  0.00  0.00    -0.390 OA
HETATM   47  H   UNK N   1      25.716  11.882   0.592  0.00  0.00     0.210 HD
ENDBRANCH  43  46
BRANCH  44  48
HETATM   48  O   UNK N   1      23.273  12.510   1.847  0.00  0.00    -0.390 OA
HETATM   49  H   UNK N   1      23.518  11.769   1.271  0.00  0.00     0.210 HD
ENDBRANCH  44  48
BRANCH  45  50
HETATM   50  O   UNK N   1      23.302  15.368   2.626  0.00  0.00    -0.388 OA
HETATM   51  H   UNK N   1      22.354  15.461   2.808  0.00  0.00     0.210 HD
ENDBRANCH  45  50
ENDBRANCH  38  39
ENDBRANCH   6  38
BRANCH   3  52
HETATM   52  C   UNK N   1      25.947  20.254   5.870  0.00  0.00     0.198 C 
BRANCH  52  53
HETATM   53  O   UNK N   1      27.023  21.119   5.672  0.00  0.00    -0.398 OA
HETATM   54  H   UNK N   1      27.825  20.927   5.161  0.00  0.00     0.209 HD
ENDBRANCH  52  53
ENDBRANCH   3  52
BRANCH   5  55
HETATM   55  O   UNK N   1      23.799  16.354   5.300  0.00  0.00    -0.390 OA
HETATM   56  H   UNK N   1      23.909  15.452   5.637  0.00  0.00     0.210 HD
ENDBRANCH   5  55
BRANCH   4  57
HETATM   57  O   UNK N   1      23.704  18.461   3.485  0.00  0.00    -0.348 OA
BRANCH  57  58
HETATM   58  C   UNK N   1      22.410  19.014   3.627  0.00  0.00     0.292 C 
HETATM   59  O   UNK N   1      21.413  18.023   3.846  0.00  0.00    -0.351 OA
HETATM   60  C   UNK N   1      20.789  17.744   2.618  0.00  0.00     0.152 C 
HETATM   61  C   UNK N   1      20.086  16.399   2.638  0.00  0.00     0.042 C 
HETATM   62  C   UNK N   1      19.895  18.916   2.160  0.00  0.00     0.178 C 
HETATM   63  C   UNK N   1      20.519  20.278   2.543  0.00  0.00     0.183 C 
HETATM   64  C   UNK N   1      22.040  20.126   2.600  0.00  0.00     0.204 C 
BRANCH  62  65
HETATM   65  O   UNK N   1      18.595  18.814   2.665  0.00  0.00    -0.390 OA
HETATM   66  H   UNK N   1      18.178  18.029   3.052  0.00  0.00     0.210 HD
ENDBRANCH  62  65
BRANCH  63  67
HETATM   67  O   UNK N   1      20.052  20.700   3.794  0.00  0.00    -0.390 OA
HETATM   68  H   UNK N   1      20.276  21.266   4.549  0.00  0.00     0.210 HD
ENDBRANCH  63  67
BRANCH  64  69
HETATM   69  O   UNK N   1      22.664  21.330   2.929  0.00  0.00    -0.388 OA
HETATM   70  H   UNK N   1      22.351  21.857   3.682  0.00  0.00     0.210 HD
ENDBRANCH  64  69
ENDBRANCH  57  58
ENDBRANCH   4  57
TORSDOF 15
ENDMDL
MODEL 4
REMARK VINA RESULT:      -8.9      2.169      5.011
REMARK  15 active torsions:
REMARK  status: ('A' for Active; 'I' for Inactive)
REMARK    1  A    between atoms: C_12  and  O_22 
REMARK    2  A    between atoms: C_23  and  O_22 
REMARK    3  A    between atoms: C_25  and  C_26 
REMARK    4  A    between atoms: C_26  and  O_27 
REMARK    5  A    between atoms: C_28  and  O_29 
REMARK    6  A    between atoms: C_30  and  O_29 
REMARK    7  A    between atoms: C_34  and  O_35 
REMARK    8  A    between atoms: C_36  and  O_37 
REMARK    9  A    between atoms: C_38  and  O_39 
REMARK   10  A    between atoms: C_40  and  O_41 
REMARK   11  A    between atoms: C_42  and  O_43 
REMARK   12  A    between atoms: C_44  and  O_43 
REMARK   13  A    between atoms: C_48  and  O_49 
REMARK   14  A    between atoms: C_50  and  O_51 
REMARK   15  A    between atoms: C_52  and  O_53 
ROOT
HETATM    1  C   UNK N   1      28.772  17.056   5.342  0.00  0.00     0.292 C 
HETATM    2  O   UNK N   1      28.474  16.481   6.610  0.00  0.00    -0.348 OA
HETATM    3  C   UNK N   1      29.248  17.062   7.660  0.00  0.00     0.180 C 
HETATM    4  C   UNK N   1      30.766  17.050   7.413  0.00  0.00     0.187 C 
HETATM    5  C   UNK N   1      31.084  17.577   6.016  0.00  0.00     0.183 C 
HETATM    6  C   UNK N   1      30.247  16.838   4.972  0.00  0.00     0.211 C 
ENDROOT
BRANCH   1   7
HETATM    7  O   UNK N   1      28.392  18.419   5.305  0.00  0.00    -0.353 OA
BRANCH   7   8
HETATM    8  C   UNK N   1      27.250  18.614   4.495  0.00  0.00     0.128 C 
HETATM    9  C   UNK N   1      25.928  18.872   5.251  0.00  0.00     0.066 C 
HETATM   10  C   UNK N   1      24.824  18.048   4.647  0.00  0.00    -0.072 C 
HETATM   11  C   UNK N   1      23.659  18.628   4.314  0.00  0.00    -0.023 C 
HETATM   12  C   UNK N   1      25.097  16.570   4.432  0.00  0.00    -0.017 C 
HETATM   13  C   UNK N   1      22.490  17.868   3.729  0.00  0.00     0.033 C 
HETATM   14  C   UNK N   1      22.585  16.343   3.871  0.00  0.00    -0.001 C 
HETATM   15  C   UNK N   1      22.096  15.824   5.230  0.00  0.00     0.001 C 
HETATM   16  C   UNK N   1      24.004  15.885   3.571  0.00  0.00     0.003 C 
HETATM   17  C   UNK N   1      20.584  16.031   5.316  0.00  0.00     0.038 C 
HETATM   18  C   UNK N   1      22.264  14.300   5.379  0.00  0.00    -0.033 C 
HETATM   19  C   UNK N   1      19.922  14.699   4.939  0.00  0.00     0.130 C 
HETATM   20  C   UNK N   1      21.039  13.692   4.696  0.00  0.00     0.032 C 
HETATM   21  O   UNK N   1      19.157  14.830   3.749  0.00  0.00    -0.355 OA
HETATM   22  C   UNK N   1      21.064  13.638   3.199  0.00  0.00     0.044 C 
HETATM   23  C   UNK N   1      21.697  12.355   2.676  0.00  0.00     0.015 C 
HETATM   24  C   UNK N   1      19.591  13.813   2.881  0.00  0.00     0.134 C 
HETATM   25  C   UNK N   1      19.411  14.280   1.423  0.00  0.00     0.061 C 
HETATM   26  N   UNK N   1      18.828  12.573   3.196  0.00  0.00    -0.391 N 
HETATM   27  C   UNK N   1      19.623  13.158   0.398  0.00  0.00     0.010 C 
HETATM   28  C   UNK N   1      19.102  11.803   0.886  0.00  0.00    -0.001 C 
HETATM   29  C   UNK N   1      18.429  11.066  -0.252  0.00  0.00     0.011 C 
HETATM   30  C   UNK N   1      18.138  11.972   2.051  0.00  0.00     0.120 C 
HETATM   31  H   UNK N   1      18.788  12.175   4.134  0.00  0.00     0.156 HD
HETATM   32  C   UNK N   1      23.616  13.755   4.885  0.00  0.00     0.010 C 
HETATM   33  C   UNK N   1      22.173  13.957   6.860  0.00  0.00     0.016 C 
HETATM   34  C   UNK N   1      24.069  14.353   3.547  0.00  0.00     0.007 C 
HETATM   35  C   UNK N   1      26.435  16.354   3.697  0.00  0.00     0.016 C 
HETATM   36  C   UNK N   1      25.223  15.975   5.828  0.00  0.00     0.020 C 
HETATM   37  C   UNK N   1      27.163  17.644   3.307  0.00  0.00     0.033 C 
ENDBRANCH   7   8
ENDBRANCH   1   7
BRANCH   6  38
HETATM   38  O   UNK N   1      30.510  15.455   4.978  0.00  0.00    -0.346 OA
BRANCH  38  39
HETATM   39  C   UNK N   1      31.635  15.235   4.171  0.00  0.00     0.292 C 
HETATM   40  O   UNK N   1      32.667  14.644   4.919  0.00  0.00    -0.351 OA
HETATM   41  C   UNK N   1      33.840  14.938   4.195  0.00  0.00     0.152 C 
HETATM   42  C   UNK N   1      35.065  14.586   5.014  0.00  0.00     0.042 C 
HETATM   43  C   UNK N   1      33.876  14.221   2.830  0.00  0.00     0.178 C 
HETATM   44  C   UNK N   1      32.534  13.528   2.558  0.00  0.00     0.183 C 
HETATM   45  C   UNK N   1      31.312  14.381   2.925  0.00  0.00     0.204 C 
BRANCH  43  46
HETATM   46  O   UNK N   1      34.162  15.156   1.834  0.00  0.00    -0.390 OA
HETATM   47  H   UNK N   1      34.837  15.408   1.185  0.00  0.00     0.210 HD
ENDBRANCH  43  46
BRANCH  44  48
HETATM   48  O   UNK N   1      32.449  13.038   1.254  0.00  0.00    -0.390 OA
HETATM   49  H   UNK N   1      32.852  13.500   0.502  0.00  0.00     0.210 HD
ENDBRANCH  44  48
BRANCH  45  50
HETATM   50  O   UNK N   1      30.240  13.519   3.169  0.00  0.00    -0.388 OA
HETATM   51  H   UNK N   1      29.849  12.633   3.211  0.00  0.00     0.210 HD
ENDBRANCH  45  50
ENDBRANCH  38  39
ENDBRANCH   6  38
BRANCH   3  52
HETATM   52  C   UNK N   1      28.742  18.435   8.085  0.00  0.00     0.198 C 
BRANCH  52  53
HETATM   53  O   UNK N   1      27.741  18.291   9.045  0.00  0.00    -0.398 OA
HETATM   54  H   UNK N   1      27.591  17.513   9.604  0.00  0.00     0.209 HD
ENDBRANCH  52  53
ENDBRANCH   3  52
BRANCH   5  55
HETATM   55  O   UNK N   1      32.448  17.487   5.737  0.00  0.00    -0.390 OA
HETATM   56  H   UNK N   1      32.838  16.728   5.276  0.00  0.00     0.210 HD
ENDBRANCH   5  55
BRANCH   4  57
HETATM   57  O   UNK N   1      31.304  15.763   7.596  0.00  0.00    -0.348 OA
BRANCH  57  58
HETATM   58  C   UNK N   1      32.095  15.777   8.768  0.00  0.00     0.292 C 
HETATM   59  O   UNK N   1      32.722  17.035   8.989  0.00  0.00    -0.351 OA
HETATM   60  C   UNK N   1      34.041  16.963   8.507  0.00  0.00     0.152 C 
HETATM   61  C   UNK N   1      34.618  18.342   8.243  0.00  0.00     0.042 C 
HETATM   62  C   UNK N   1      34.923  16.071   9.405  0.00  0.00     0.178 C 
HETATM   63  C   UNK N   1      34.121  14.872   9.963  0.00  0.00     0.183 C 
HETATM   64  C   UNK N   1      33.002  14.527   8.979  0.00  0.00     0.204 C 
BRANCH  62  65
HETATM   65  O   UNK N   1      35.510  16.794  10.449  0.00  0.00    -0.390 OA
HETATM   66  H   UNK N   1      35.280  17.689  10.742  0.00  0.00     0.210 HD
ENDBRANCH  62  65
BRANCH  63  67
HETATM   67  O   UNK N   1      33.559  15.189  11.206  0.00  0.00    -0.390 OA
HETATM   68  H   UNK N   1      33.454  15.914  11.841  0.00  0.00     0.210 HD
ENDBRANCH  63  67
BRANCH  64  69
HETATM   69  O   UNK N   1      32.248  13.439   9.422  0.00  0.00    -0.388 OA
HETATM   70  H   UNK N   1      32.625  12.544   9.415  0.00  0.00     0.210 HD
ENDBRANCH  64  69
ENDBRANCH  57  58
ENDBRANCH   4  57
TORSDOF 15
ENDMDL
MODEL 5
REMARK VINA RESULT:      -8.5      3.346      6.940
REMARK  15 active torsions:
REMARK  status: ('A' for Active; 'I' for Inactive)
REMARK    1  A    between atoms: C_12  and  O_22 
REMARK    2  A    between atoms: C_23  and  O_22 
REMARK    3  A    between atoms: C_25  and  C_26 
REMARK    4  A    between atoms: C_26  and  O_27 
REMARK    5  A    between atoms: C_28  and  O_29 
REMARK    6  A    between atoms: C_30  and  O_29 
REMARK    7  A    between atoms: C_34  and  O_35 
REMARK    8  A    between atoms: C_36  and  O_37 
REMARK    9  A    between atoms: C_38  and  O_39 
REMARK   10  A    between atoms: C_40  and  O_41 
REMARK   11  A    between atoms: C_42  and  O_43 
REMARK   12  A    between atoms: C_44  and  O_43 
REMARK   13  A    between atoms: C_48  and  O_49 
REMARK   14  A    between atoms: C_50  and  O_51 
REMARK   15  A    between atoms: C_52  and  O_53 
ROOT
HETATM    1  C   UNK N   1      35.279  14.201   8.352  0.00  0.00     0.292 C 
HETATM    2  O   UNK N   1      34.483  13.851   9.480  0.00  0.00    -0.348 OA
HETATM    3  C   UNK N   1      34.790  14.647  10.625  0.00  0.00     0.180 C 
HETATM    4  C   UNK N   1      36.280  14.661  11.008  0.00  0.00     0.187 C 
HETATM    5  C   UNK N   1      37.144  14.942   9.782  0.00  0.00     0.183 C 
HETATM    6  C   UNK N   1      36.772  13.989   8.646  0.00  0.00     0.211 C 
ENDROOT
BRANCH   1   7
HETATM    7  O   UNK N   1      34.986  15.516   7.918  0.00  0.00    -0.353 OA
BRANCH   7   8
HETATM    8  C   UNK N   1      34.321  15.511   6.671  0.00  0.00     0.128 C 
HETATM    9  C   UNK N   1      33.913  16.896   6.123  0.00  0.00     0.066 C 
HETATM   10  C   UNK N   1      32.503  16.844   5.601  0.00  0.00    -0.072 C 
HETATM   11  C   UNK N   1      32.224  17.315   4.374  0.00  0.00    -0.023 C 
HETATM   12  C   UNK N   1      31.447  16.239   6.508  0.00  0.00    -0.017 C 
HETATM   13  C   UNK N   1      30.832  17.326   3.785  0.00  0.00     0.033 C 
HETATM   14  C   UNK N   1      29.706  17.100   4.804  0.00  0.00    -0.001 C 
HETATM   15  C   UNK N   1      29.283  18.378   5.540  0.00  0.00     0.001 C 
HETATM   16  C   UNK N   1      30.103  15.997   5.774  0.00  0.00     0.003 C 
HETATM   17  C   UNK N   1      28.592  19.310   4.544  0.00  0.00     0.038 C 
HETATM   18  C   UNK N   1      28.202  18.119   6.607  0.00  0.00    -0.033 C 
HETATM   19  C   UNK N   1      27.080  19.107   4.708  0.00  0.00     0.130 C 
HETATM   20  C   UNK N   1      26.878  18.109   5.843  0.00  0.00     0.032 C 
HETATM   21  O   UNK N   1      26.506  18.573   3.524  0.00  0.00    -0.355 OA
HETATM   22  C   UNK N   1      26.553  16.861   5.081  0.00  0.00     0.044 C 
HETATM   23  C   UNK N   1      25.797  15.845   5.929  0.00  0.00     0.015 C 
HETATM   24  C   UNK N   1      25.777  17.434   3.909  0.00  0.00     0.134 C 
HETATM   25  C   UNK N   1      25.754  16.429   2.741  0.00  0.00     0.061 C 
HETATM   26  N   UNK N   1      24.418  17.870   4.332  0.00  0.00    -0.391 N 
HETATM   27  C   UNK N   1      24.785  15.262   2.968  0.00  0.00     0.010 C 
HETATM   28  C   UNK N   1      23.507  15.685   3.698  0.00  0.00    -0.001 C 
HETATM   29  C   UNK N   1      22.309  14.980   3.101  0.00  0.00     0.011 C 
HETATM   30  C   UNK N   1      23.316  17.194   3.641  0.00  0.00     0.120 C 
HETATM   31  H   UNK N   1      24.265  18.583   5.045  0.00  0.00     0.156 HD
HETATM   32  C   UNK N   1      28.453  16.877   7.481  0.00  0.00     0.010 C 
HETATM   33  C   UNK N   1      28.172  19.314   7.550  0.00  0.00     0.016 C 
HETATM   34  C   UNK N   1      28.922  15.650   6.688  0.00  0.00     0.007 C 
HETATM   35  C   UNK N   1      31.901  14.870   7.052  0.00  0.00     0.016 C 
HETATM   36  C   UNK N   1      31.325  17.199   7.684  0.00  0.00     0.020 C 
HETATM   37  C   UNK N   1      33.267  14.402   6.539  0.00  0.00     0.033 C 
ENDBRANCH   7   8
ENDBRANCH   1   7
BRANCH   6  38
HETATM   38  O   UNK N   1      36.969  12.644   9.011  0.00  0.00    -0.346 OA
BRANCH  38  39
HETATM   39  C   UNK N   1      36.407  11.846   8.005  0.00  0.00     0.292 C 
HETATM   40  O   UNK N   1      37.395  11.436   7.094  0.00  0.00    -0.351 OA
HETATM   41  C   UNK N   1      36.683  11.112   5.922  0.00  0.00     0.152 C 
HETATM   42  C   UNK N   1      37.639  10.899   4.766  0.00  0.00     0.042 C 
HETATM   43  C   UNK N   1      35.781   9.875   6.114  0.00  0.00     0.178 C 
HETATM   44  C   UNK N   1      35.770   9.449   7.588  0.00  0.00     0.183 C 
HETATM   45  C   UNK N   1      35.652  10.623   8.571  0.00  0.00     0.204 C 
BRANCH  43  46
HETATM   46  O   UNK N   1      34.491  10.182   5.678  0.00  0.00    -0.390 OA
HETATM   47  H   UNK N   1      33.588  10.340   5.995  0.00  0.00     0.210 HD
ENDBRANCH  43  46
BRANCH  44  48
HETATM   48  O   UNK N   1      34.815   8.463   7.845  0.00  0.00    -0.390 OA
HETATM   49  H   UNK N   1      33.974   8.422   7.364  0.00  0.00     0.210 HD
ENDBRANCH  44  48
BRANCH  45  50
HETATM   50  O   UNK N   1      36.193  10.219   9.794  0.00  0.00    -0.388 OA
HETATM   51  H   UNK N   1      36.935   9.927  10.345  0.00  0.00     0.210 HD
ENDBRANCH  45  50
ENDBRANCH  38  39
ENDBRANCH   6  38
BRANCH   3  52
HETATM   52  C   UNK N   1      34.198  16.049  10.554  0.00  0.00     0.198 C 
BRANCH  52  53
HETATM   53  O   UNK N   1      34.985  16.930  11.295  0.00  0.00    -0.398 OA
HETATM   54  H   UNK N   1      35.948  17.027  11.235  0.00  0.00     0.209 HD
ENDBRANCH  52  53
ENDBRANCH   3  52
BRANCH   5  55
HETATM   55  O   UNK N   1      38.503  14.867  10.090  0.00  0.00    -0.390 OA
HETATM   56  H   UNK N   1      38.829  14.785  11.000  0.00  0.00     0.210 HD
ENDBRANCH   5  55
BRANCH   4  57
HETATM   57  O   UNK N   1      36.661  13.455  11.624  0.00  0.00    -0.348 OA
BRANCH  57  58
HETATM   58  C   UNK N   1      35.801  13.228  12.723  0.00  0.00     0.292 C 
HETATM   59  O   UNK N   1      35.859  14.273  13.687  0.00  0.00    -0.351 OA
HETATM   60  C   UNK N   1      36.727  13.875  14.719  0.00  0.00     0.152 C 
HETATM   61  C   UNK N   1      37.235  15.063  15.514  0.00  0.00     0.042 C 
HETATM   62  C   UNK N   1      36.103  12.758  15.582  0.00  0.00     0.178 C 
HETATM   63  C   UNK N   1      35.256  11.793  14.721  0.00  0.00     0.183 C 
HETATM   64  C   UNK N   1      35.816  11.780  13.298  0.00  0.00     0.204 C 
BRANCH  62  65
HETATM   65  O   UNK N   1      35.340  13.272  16.635  0.00  0.00    -0.390 OA
HETATM   66  H   UNK N   1      34.373  13.294  16.700  0.00  0.00     0.210 HD
ENDBRANCH  62  65
BRANCH  63  67
HETATM   67  O   UNK N   1      33.919  12.208  14.685  0.00  0.00    -0.390 OA
HETATM   68  H   UNK N   1      33.057  11.994  14.297  0.00  0.00     0.210 HD
ENDBRANCH  63  67
BRANCH  64  69
HETATM   69  O   UNK N   1      35.100  10.912  12.473  0.00  0.00    -0.388 OA
HETATM   70  H   UNK N   1      35.065   9.962  12.669  0.00  0.00     0.210 HD
ENDBRANCH  64  69
ENDBRANCH  57  58
ENDBRANCH   4  57
TORSDOF 15
ENDMDL
MODEL 6
REMARK VINA RESULT:      -8.5      1.975      4.608
REMARK  15 active torsions:
REMARK  status: ('A' for Active; 'I' for Inactive)
REMARK    1  A    between atoms: C_12  and  O_22 
REMARK    2  A    between atoms: C_23  and  O_22 
REMARK    3  A    between atoms: C_25  and  C_26 
REMARK    4  A    between atoms: C_26  and  O_27 
REMARK    5  A    between atoms: C_28  and  O_29 
REMARK    6  A    between atoms: C_30  and  O_29 
REMARK    7  A    between atoms: C_34  and  O_35 
REMARK    8  A    between atoms: C_36  and  O_37 
REMARK    9  A    between atoms: C_38  and  O_39 
REMARK   10  A    between atoms: C_40  and  O_41 
REMARK   11  A    between atoms: C_42  and  O_43 
REMARK   12  A    between atoms: C_44  and  O_43 
REMARK   13  A    between atoms: C_48  and  O_49 
REMARK   14  A    between atoms: C_50  and  O_51 
REMARK   15  A    between atoms: C_52  and  O_53 
ROOT
HETATM    1  C   UNK N   1      30.941  16.355   5.931  0.00  0.00     0.292 C 
HETATM    2  O   UNK N   1      30.662  15.738   7.184  0.00  0.00    -0.348 OA
HETATM    3  C   UNK N   1      31.389  16.343   8.255  0.00  0.00     0.180 C 
HETATM    4  C   UNK N   1      32.908  16.423   8.027  0.00  0.00     0.187 C 
HETATM    5  C   UNK N   1      33.211  16.995   6.645  0.00  0.00     0.183 C 
HETATM    6  C   UNK N   1      32.431  16.229   5.576  0.00  0.00     0.211 C 
ENDROOT
BRANCH   1   7
HETATM    7  O   UNK N   1      30.483  17.693   5.915  0.00  0.00    -0.353 OA
BRANCH   7   8
HETATM    8  C   UNK N   1      29.540  17.904   4.884  0.00  0.00     0.128 C 
HETATM    9  C   UNK N   1      28.225  18.594   5.307  0.00  0.00     0.066 C 
HETATM   10  C   UNK N   1      27.052  17.880   4.695  0.00  0.00    -0.072 C 
HETATM   11  C   UNK N   1      26.111  18.578   4.036  0.00  0.00    -0.023 C 
HETATM   12  C   UNK N   1      26.997  16.371   4.850  0.00  0.00    -0.017 C 
HETATM   13  C   UNK N   1      24.887  17.942   3.415  0.00  0.00     0.033 C 
HETATM   14  C   UNK N   1      24.602  16.511   3.890  0.00  0.00    -0.001 C 
HETATM   15  C   UNK N   1      23.825  16.450   5.212  0.00  0.00     0.001 C 
HETATM   16  C   UNK N   1      25.901  15.723   3.964  0.00  0.00     0.003 C 
HETATM   17  C   UNK N   1      22.406  16.964   4.969  0.00  0.00     0.038 C 
HETATM   18  C   UNK N   1      23.608  15.006   5.707  0.00  0.00    -0.033 C 
HETATM   19  C   UNK N   1      21.508  15.737   4.763  0.00  0.00     0.130 C 
HETATM   20  C   UNK N   1      22.380  14.502   4.950  0.00  0.00     0.032 C 
HETATM   21  O   UNK N   1      20.965  15.719   3.450  0.00  0.00    -0.355 OA
HETATM   22  C   UNK N   1      22.595  14.077   3.530  0.00  0.00     0.044 C 
HETATM   23  C   UNK N   1      22.975  12.606   3.416  0.00  0.00     0.015 C 
HETATM   24  C   UNK N   1      21.261  14.454   2.912  0.00  0.00     0.134 C 
HETATM   25  C   UNK N   1      21.396  14.573   1.382  0.00  0.00     0.061 C 
HETATM   26  N   UNK N   1      20.193  13.505   3.333  0.00  0.00    -0.391 N 
HETATM   27  C   UNK N   1      21.477  13.215   0.674  0.00  0.00     0.010 C 
HETATM   28  C   UNK N   1      20.591  12.151   1.329  0.00  0.00    -0.001 C 
HETATM   29  C   UNK N   1      19.925  11.304   0.267  0.00  0.00     0.011 C 
HETATM   30  C   UNK N   1      19.544  12.788   2.232  0.00  0.00     0.120 C 
HETATM   31  H   UNK N   1      19.934  13.366   4.309  0.00  0.00     0.156 HD
HETATM   32  C   UNK N   1      24.850  14.102   5.600  0.00  0.00     0.010 C 
HETATM   33  C   UNK N   1      23.239  15.063   7.183  0.00  0.00     0.016 C 
HETATM   34  C   UNK N   1      25.608  14.251   4.275  0.00  0.00     0.007 C 
HETATM   35  C   UNK N   1      28.334  15.722   4.440  0.00  0.00     0.016 C 
HETATM   36  C   UNK N   1      26.788  16.125   6.339  0.00  0.00     0.020 C 
HETATM   37  C   UNK N   1      29.391  16.708   3.932  0.00  0.00     0.033 C 
ENDBRANCH   7   8
ENDBRANCH   1   7
BRANCH   6  38
HETATM   38  O   UNK N   1      32.774  14.864   5.560  0.00  0.00    -0.346 OA
BRANCH  38  39
HETATM   39  C   UNK N   1      33.442  14.611   4.354  0.00  0.00     0.292 C 
HETATM   40  O   UNK N   1      34.470  13.674   4.551  0.00  0.00    -0.351 OA
HETATM   41  C   UNK N   1      35.351  13.882   3.470  0.00  0.00     0.152 C 
HETATM   42  C   UNK N   1      36.641  13.120   3.687  0.00  0.00     0.042 C 
HETATM   43  C   UNK N   1      34.713  13.496   2.119  0.00  0.00     0.178 C 
HETATM   44  C   UNK N   1      33.227  13.163   2.309  0.00  0.00     0.183 C 
HETATM   45  C   UNK N   1      32.487  14.139   3.235  0.00  0.00     0.204 C 
BRANCH  43  46
HETATM   46  O   UNK N   1      34.874  14.554   1.223  0.00  0.00    -0.390 OA
HETATM   47  H   UNK N   1      35.285  15.427   1.129  0.00  0.00     0.210 HD
ENDBRANCH  43  46
BRANCH  44  48
HETATM   48  O   UNK N   1      32.563  13.003   1.091  0.00  0.00    -0.390 OA
HETATM   49  H   UNK N   1      32.700  12.226   0.527  0.00  0.00     0.210 HD
ENDBRANCH  44  48
BRANCH  45  50
HETATM   50  O   UNK N   1      31.379  13.475   3.765  0.00  0.00    -0.388 OA
HETATM   51  H   UNK N   1      30.711  13.346   4.456  0.00  0.00     0.210 HD
ENDBRANCH  45  50
ENDBRANCH  38  39
ENDBRANCH   6  38
BRANCH   3  52
HETATM   52  C   UNK N   1      30.799  17.675   8.699  0.00  0.00     0.198 C 
BRANCH  52  53
HETATM   53  O   UNK N   1      29.407  17.590   8.722  0.00  0.00    -0.398 OA
HETATM   54  H   UNK N   1      28.856  17.433   9.504  0.00  0.00     0.209 HD
ENDBRANCH  52  53
ENDBRANCH   3  52
BRANCH   5  55
HETATM   55  O   UNK N   1      34.581  16.990   6.381  0.00  0.00    -0.390 OA
HETATM   56  H   UNK N   1      35.113  16.178   6.398  0.00  0.00     0.210 HD
ENDBRANCH   5  55
BRANCH   4  57
HETATM   57  O   UNK N   1      33.517  15.166   8.193  0.00  0.00    -0.348 OA
BRANCH  57  58
HETATM   58  C   UNK N   1      34.571  15.305   9.125  0.00  0.00     0.292 C 
HETATM   59  O   UNK N   1      35.854  15.285   8.508  0.00  0.00    -0.351 OA
HETATM   60  C   UNK N   1      36.378  13.986   8.620  0.00  0.00     0.152 C 
HETATM   61  C   UNK N   1      37.472  13.732   7.600  0.00  0.00     0.042 C 
HETATM   62  C   UNK N   1      36.784  13.664  10.074  0.00  0.00     0.178 C 
HETATM   63  C   UNK N   1      35.808  14.311  11.084  0.00  0.00     0.183 C 
HETATM   64  C   UNK N   1      34.436  14.452  10.423  0.00  0.00     0.204 C 
BRANCH  62  65
HETATM   65  O   UNK N   1      38.100  14.051  10.350  0.00  0.00    -0.390 OA
HETATM   66  H   UNK N   1      38.787  13.520  10.782  0.00  0.00     0.210 HD
ENDBRANCH  62  65
BRANCH  63  67
HETATM   67  O   UNK N   1      36.264  15.578  11.469  0.00  0.00    -0.390 OA
HETATM   68  H   UNK N   1      36.806  16.032  12.132  0.00  0.00     0.210 HD
ENDBRANCH  63  67
BRANCH  64  69
HETATM   69  O   UNK N   1      33.504  15.019  11.292  0.00  0.00    -0.388 OA
HETATM   70  H   UNK N   1      32.769  14.489  11.640  0.00  0.00     0.210 HD
ENDBRANCH  64  69
ENDBRANCH  57  58
ENDBRANCH   4  57
TORSDOF 15
ENDMDL
MODEL 7
REMARK VINA RESULT:      -8.4      8.088     14.869
REMARK  15 active torsions:
REMARK  status: ('A' for Active; 'I' for Inactive)
REMARK    1  A    between atoms: C_12  and  O_22 
REMARK    2  A    between atoms: C_23  and  O_22 
REMARK    3  A    between atoms: C_25  and  C_26 
REMARK    4  A    between atoms: C_26  and  O_27 
REMARK    5  A    between atoms: C_28  and  O_29 
REMARK    6  A    between atoms: C_30  and  O_29 
REMARK    7  A    between atoms: C_34  and  O_35 
REMARK    8  A    between atoms: C_36  and  O_37 
REMARK    9  A    between atoms: C_38  and  O_39 
REMARK   10  A    between atoms: C_40  and  O_41 
REMARK   11  A    between atoms: C_42  and  O_43 
REMARK   12  A    between atoms: C_44  and  O_43 
REMARK   13  A    between atoms: C_48  and  O_49 
REMARK   14  A    between atoms: C_50  and  O_51 
REMARK   15  A    between atoms: C_52  and  O_53 
ROOT
HETATM    1  C   UNK N   1      34.929  12.646  12.176  0.00  0.00     0.292 C 
HETATM    2  O   UNK N   1      34.499  11.317  11.895  0.00  0.00    -0.348 OA
HETATM    3  C   UNK N   1      35.558  10.505  11.388  0.00  0.00     0.180 C 
HETATM    4  C   UNK N   1      36.288  11.098  10.170  0.00  0.00     0.187 C 
HETATM    5  C   UNK N   1      36.667  12.552  10.432  0.00  0.00     0.183 C 
HETATM    6  C   UNK N   1      35.444  13.338  10.905  0.00  0.00     0.211 C 
ENDROOT
BRANCH   1   7
HETATM    7  O   UNK N   1      35.875  12.656  13.229  0.00  0.00    -0.353 OA
BRANCH   7   8
HETATM    8  C   UNK N   1      35.262  12.940  14.470  0.00  0.00     0.128 C 
HETATM    9  C   UNK N   1      36.224  13.190  15.652  0.00  0.00     0.066 C 
HETATM   10  C   UNK N   1      35.748  12.442  16.867  0.00  0.00    -0.072 C 
HETATM   11  C   UNK N   1      35.632  13.079  18.044  0.00  0.00    -0.023 C 
HETATM   12  C   UNK N   1      35.406  10.974  16.691  0.00  0.00    -0.017 C 
HETATM   13  C   UNK N   1      35.187  12.397  19.319  0.00  0.00     0.033 C 
HETATM   14  C   UNK N   1      35.222  10.864  19.266  0.00  0.00    -0.001 C 
HETATM   15  C   UNK N   1      36.607  10.274  19.566  0.00  0.00     0.001 C 
HETATM   16  C   UNK N   1      34.683  10.381  17.928  0.00  0.00     0.003 C 
HETATM   17  C   UNK N   1      36.935  10.523  21.039  0.00  0.00     0.038 C 
HETATM   18  C   UNK N   1      36.638   8.738  19.441  0.00  0.00    -0.033 C 
HETATM   19  C   UNK N   1      36.584   9.240  21.804  0.00  0.00     0.130 C 
HETATM   20  C   UNK N   1      36.114   8.215  20.779  0.00  0.00     0.032 C 
HETATM   21  O   UNK N   1      35.535   9.472  22.733  0.00  0.00    -0.355 OA
HETATM   22  C   UNK N   1      34.631   8.258  20.981  0.00  0.00     0.044 C 
HETATM   23  C   UNK N   1      33.942   6.992  20.487  0.00  0.00     0.015 C 
HETATM   24  C   UNK N   1      34.552   8.500  22.477  0.00  0.00     0.134 C 
HETATM   25  C   UNK N   1      33.169   9.066  22.855  0.00  0.00     0.061 C 
HETATM   26  N   UNK N   1      34.905   7.268  23.235  0.00  0.00    -0.391 N 
HETATM   27  C   UNK N   1      32.059   8.007  22.845  0.00  0.00     0.010 C 
HETATM   28  C   UNK N   1      32.538   6.640  23.343  0.00  0.00    -0.001 C 
HETATM   29  C   UNK N   1      31.476   6.001  24.208  0.00  0.00     0.011 C 
HETATM   30  C   UNK N   1      33.846   6.764  24.113  0.00  0.00     0.120 C 
HETATM   31  H   UNK N   1      35.813   6.810  23.150  0.00  0.00     0.156 HD
HETATM   32  C   UNK N   1      35.912   8.184  18.202  0.00  0.00     0.010 C 
HETATM   33  C   UNK N   1      38.092   8.303  19.322  0.00  0.00     0.016 C 
HETATM   34  C   UNK N   1      34.558   8.852  17.931  0.00  0.00     0.007 C 
HETATM   35  C   UNK N   1      34.464  10.763  15.489  0.00  0.00     0.016 C 
HETATM   36  C   UNK N   1      36.729  10.285  16.382  0.00  0.00     0.020 C 
HETATM   37  C   UNK N   1      34.046  12.052  14.774  0.00  0.00     0.033 C 
ENDBRANCH   7   8
ENDBRANCH   1   7
BRANCH   6  38
HETATM   38  O   UNK N   1      34.416  13.329   9.943  0.00  0.00    -0.346 OA
BRANCH  38  39
HETATM   39  C   UNK N   1      34.475  14.545   9.250  0.00  0.00     0.292 C 
HETATM   40  O   UNK N   1      34.343  14.329   7.868  0.00  0.00    -0.351 OA
HETATM   41  C   UNK N   1      34.911  15.475   7.275  0.00  0.00     0.152 C 
HETATM   42  C   UNK N   1      35.075  15.270   5.783  0.00  0.00     0.042 C 
HETATM   43  C   UNK N   1      34.084  16.747   7.560  0.00  0.00     0.178 C 
HETATM   44  C   UNK N   1      32.968  16.440   8.567  0.00  0.00     0.183 C 
HETATM   45  C   UNK N   1      33.419  15.560   9.742  0.00  0.00     0.204 C 
BRANCH  43  46
HETATM   46  O   UNK N   1      34.934  17.740   8.049  0.00  0.00    -0.390 OA
HETATM   47  H   UNK N   1      34.940  18.645   8.397  0.00  0.00     0.210 HD
ENDBRANCH  43  46
BRANCH  44  48
HETATM   48  O   UNK N   1      32.323  17.597   9.007  0.00  0.00    -0.390 OA
HETATM   49  H   UNK N   1      31.602  17.570   9.656  0.00  0.00     0.210 HD
ENDBRANCH  44  48
BRANCH  45  50
HETATM   50  O   UNK N   1      32.293  14.908  10.250  0.00  0.00    -0.388 OA
HETATM   51  H   UNK N   1      31.802  14.492  10.975  0.00  0.00     0.210 HD
ENDBRANCH  45  50
ENDBRANCH  38  39
ENDBRANCH   6  38
BRANCH   3  52
HETATM   52  C   UNK N   1      36.523  10.038  12.470  0.00  0.00     0.198 C 
BRANCH  52  53
HETATM   53  O   UNK N   1      36.036   8.874  13.065  0.00  0.00    -0.398 OA
HETATM   54  H   UNK N   1      35.660   8.109  12.603  0.00  0.00     0.209 HD
ENDBRANCH  52  53
ENDBRANCH   3  52
BRANCH   5  55
HETATM   55  O   UNK N   1      37.247  13.137   9.305  0.00  0.00    -0.390 OA
HETATM   56  H   UNK N   1      37.339  12.667   8.462  0.00  0.00     0.210 HD
ENDBRANCH   5  55
BRANCH   4  57
HETATM   57  O   UNK N   1      35.511  10.984   9.003  0.00  0.00    -0.348 OA
BRANCH  57  58
HETATM   58  C   UNK N   1      34.556   9.962   9.205  0.00  0.00     0.292 C 
HETATM   59  O   UNK N   1      35.026   8.685   8.788  0.00  0.00    -0.351 OA
HETATM   60  C   UNK N   1      34.528   8.429   7.499  0.00  0.00     0.152 C 
HETATM   61  C   UNK N   1      35.340   7.366   6.783  0.00  0.00     0.042 C 
HETATM   62  C   UNK N   1      33.009   8.153   7.525  0.00  0.00     0.178 C 
HETATM   63  C   UNK N   1      32.300   9.023   8.588  0.00  0.00     0.183 C 
HETATM   64  C   UNK N   1      33.098  10.313   8.781  0.00  0.00     0.204 C 
BRANCH  62  65
HETATM   65  O   UNK N   1      32.726   6.799   7.732  0.00  0.00    -0.390 OA
HETATM   66  H   UNK N   1      32.077   6.425   8.349  0.00  0.00     0.210 HD
ENDBRANCH  62  65
BRANCH  63  67
HETATM   67  O   UNK N   1      32.222   8.343   9.810  0.00  0.00    -0.390 OA
HETATM   68  H   UNK N   1      32.583   8.332  10.709  0.00  0.00     0.210 HD
ENDBRANCH  63  67
BRANCH  64  69
HETATM   69  O   UNK N   1      32.498  11.151   9.723  0.00  0.00    -0.388 OA
HETATM   70  H   UNK N   1      31.695  11.647   9.498  0.00  0.00     0.210 HD
ENDBRANCH  64  69
ENDBRANCH  57  58
ENDBRANCH   4  57
TORSDOF 15
ENDMDL
MODEL 8
REMARK VINA RESULT:      -8.4      3.426      6.805
REMARK  15 active torsions:
REMARK  status: ('A' for Active; 'I' for Inactive)
REMARK    1  A    between atoms: C_12  and  O_22 
REMARK    2  A    between atoms: C_23  and  O_22 
REMARK    3  A    between atoms: C_25  and  C_26 
REMARK    4  A    between atoms: C_26  and  O_27 
REMARK    5  A    between atoms: C_28  and  O_29 
REMARK    6  A    between atoms: C_30  and  O_29 
REMARK    7  A    between atoms: C_34  and  O_35 
REMARK    8  A    between atoms: C_36  and  O_37 
REMARK    9  A    between atoms: C_38  and  O_39 
REMARK   10  A    between atoms: C_40  and  O_41 
REMARK   11  A    between atoms: C_42  and  O_43 
REMARK   12  A    between atoms: C_44  and  O_43 
REMARK   13  A    between atoms: C_48  and  O_49 
REMARK   14  A    between atoms: C_50  and  O_51 
REMARK   15  A    between atoms: C_52  and  O_53 
ROOT
HETATM    1  C   UNK N   1      33.998  14.194   8.746  0.00  0.00     0.292 C 
HETATM    2  O   UNK N   1      33.415  14.968   9.789  0.00  0.00    -0.348 OA
HETATM    3  C   UNK N   1      34.398  15.512  10.670  0.00  0.00     0.180 C 
HETATM    4  C   UNK N   1      35.370  14.474  11.257  0.00  0.00     0.187 C 
HETATM    5  C   UNK N   1      35.925  13.579  10.153  0.00  0.00     0.183 C 
HETATM    6  C   UNK N   1      34.781  13.002   9.317  0.00  0.00     0.211 C 
ENDROOT
BRANCH   1   7
HETATM    7  O   UNK N   1      34.780  15.007   7.892  0.00  0.00    -0.353 OA
BRANCH   7   8
HETATM    8  C   UNK N   1      34.152  15.195   6.640  0.00  0.00     0.128 C 
HETATM    9  C   UNK N   1      33.793  16.654   6.282  0.00  0.00     0.066 C 
HETATM   10  C   UNK N   1      32.398  16.716   5.723  0.00  0.00    -0.072 C 
HETATM   11  C   UNK N   1      32.166  17.362   4.568  0.00  0.00    -0.023 C 
HETATM   12  C   UNK N   1      31.302  16.020   6.509  0.00  0.00    -0.017 C 
HETATM   13  C   UNK N   1      30.792  17.495   3.952  0.00  0.00     0.033 C 
HETATM   14  C   UNK N   1      29.633  17.161   4.901  0.00  0.00    -0.001 C 
HETATM   15  C   UNK N   1      29.220  18.335   5.799  0.00  0.00     0.001 C 
HETATM   16  C   UNK N   1      29.974  15.922   5.715  0.00  0.00     0.003 C 
HETATM   17  C   UNK N   1      28.581  19.416   4.926  0.00  0.00     0.038 C 
HETATM   18  C   UNK N   1      28.103  17.960   6.791  0.00  0.00    -0.033 C 
HETATM   19  C   UNK N   1      27.060  19.235   5.023  0.00  0.00     0.130 C 
HETATM   20  C   UNK N   1      26.801  18.095   6.000  0.00  0.00     0.032 C 
HETATM   21  O   UNK N   1      26.508  18.889   3.761  0.00  0.00    -0.355 OA
HETATM   22  C   UNK N   1      26.467  16.975   5.063  0.00  0.00     0.044 C 
HETATM   23  C   UNK N   1      25.663  15.872   5.740  0.00  0.00     0.015 C 
HETATM   24  C   UNK N   1      25.741  17.728   3.964  0.00  0.00     0.134 C 
HETATM   25  C   UNK N   1      25.726  16.897   2.666  0.00  0.00     0.061 C 
HETATM   26  N   UNK N   1      24.381  18.139   4.410  0.00  0.00    -0.391 N 
HETATM   27  C   UNK N   1      24.722  15.738   2.702  0.00  0.00     0.010 C 
HETATM   28  C   UNK N   1      23.435  16.091   3.453  0.00  0.00    -0.001 C 
HETATM   29  C   UNK N   1      22.238  15.511   2.732  0.00  0.00     0.011 C 
HETATM   30  C   UNK N   1      23.283  17.598   3.604  0.00  0.00     0.120 C 
HETATM   31  H   UNK N   1      24.225  18.749   5.212  0.00  0.00     0.156 HD
HETATM   32  C   UNK N   1      28.298  16.601   7.487  0.00  0.00     0.010 C 
HETATM   33  C   UNK N   1      28.075  19.011   7.892  0.00  0.00     0.016 C 
HETATM   34  C   UNK N   1      28.759  15.484   6.542  0.00  0.00     0.007 C 
HETATM   35  C   UNK N   1      31.707  14.576   6.867  0.00  0.00     0.016 C 
HETATM   36  C   UNK N   1      31.170  16.810   7.805  0.00  0.00     0.020 C 
HETATM   37  C   UNK N   1      33.075  14.146   6.327  0.00  0.00     0.033 C 
ENDBRANCH   7   8
ENDBRANCH   1   7
BRANCH   6  38
HETATM   38  O   UNK N   1      33.906  12.225  10.100  0.00  0.00    -0.346 OA
BRANCH  38  39
HETATM   39  C   UNK N   1      34.193  10.878   9.842  0.00  0.00     0.292 C 
HETATM   40  O   UNK N   1      34.570  10.222  11.026  0.00  0.00    -0.351 OA
HETATM   41  C   UNK N   1      35.295   9.095  10.590  0.00  0.00     0.152 C 
HETATM   42  C   UNK N   1      35.989   8.429  11.760  0.00  0.00     0.042 C 
HETATM   43  C   UNK N   1      34.403   8.083   9.841  0.00  0.00     0.178 C 
HETATM   44  C   UNK N   1      33.003   8.673   9.618  0.00  0.00     0.183 C 
HETATM   45  C   UNK N   1      33.014  10.140   9.167  0.00  0.00     0.204 C 
BRANCH  43  46
HETATM   46  O   UNK N   1      35.004   7.762   8.623  0.00  0.00    -0.390 OA
HETATM   47  H   UNK N   1      35.059   7.064   7.952  0.00  0.00     0.210 HD
ENDBRANCH  43  46
BRANCH  44  48
HETATM   48  O   UNK N   1      32.225   7.879   8.773  0.00  0.00    -0.390 OA
HETATM   49  H   UNK N   1      32.609   7.168   8.236  0.00  0.00     0.210 HD
ENDBRANCH  44  48
BRANCH  45  50
HETATM   50  O   UNK N   1      31.791  10.712   9.525  0.00  0.00    -0.388 OA
HETATM   51  H   UNK N   1      31.244  11.473   9.770  0.00  0.00     0.210 HD
ENDBRANCH  45  50
ENDBRANCH  38  39
ENDBRANCH   6  38
BRANCH   3  52
HETATM   52  C   UNK N   1      35.123  16.717  10.085  0.00  0.00     0.198 C 
BRANCH  52  53
HETATM   53  O   UNK N   1      34.196  17.601   9.532  0.00  0.00    -0.398 OA
HETATM   54  H   UNK N   1      33.472  18.040  10.004  0.00  0.00     0.209 HD
ENDBRANCH  52  53
ENDBRANCH   3  52
BRANCH   5  55
HETATM   55  O   UNK N   1      36.737  12.570  10.675  0.00  0.00    -0.390 OA
HETATM   56  H   UNK N   1      37.632  12.741  11.007  0.00  0.00     0.210 HD
ENDBRANCH   5  55
BRANCH   4  57
HETATM   57  O   UNK N   1      34.753  13.706  12.261  0.00  0.00    -0.348 OA
BRANCH  57  58
HETATM   58  C   UNK N   1      35.760  13.207  13.119  0.00  0.00     0.292 C 
HETATM   59  O   UNK N   1      35.609  11.818  13.389  0.00  0.00    -0.351 OA
HETATM   60  C   UNK N   1      34.959  11.677  14.627  0.00  0.00     0.152 C 
HETATM   61  C   UNK N   1      34.321  10.308  14.774  0.00  0.00     0.042 C 
HETATM   62  C   UNK N   1      35.883  12.072  15.799  0.00  0.00     0.178 C 
HETATM   63  C   UNK N   1      36.799  13.256  15.414  0.00  0.00     0.183 C 
HETATM   64  C   UNK N   1      36.094  14.101  14.351  0.00  0.00     0.204 C 
BRANCH  62  65
HETATM   65  O   UNK N   1      36.646  10.991  16.253  0.00  0.00    -0.390 OA
HETATM   66  H   UNK N   1      36.769  10.136  15.813  0.00  0.00     0.210 HD
ENDBRANCH  62  65
BRANCH  63  67
HETATM   67  O   UNK N   1      38.016  12.792  14.900  0.00  0.00    -0.390 OA
HETATM   68  H   UNK N   1      38.413  12.060  14.403  0.00  0.00     0.210 HD
ENDBRANCH  63  67
BRANCH  64  69
HETATM   69  O   UNK N   1      36.868  15.198  13.972  0.00  0.00    -0.388 OA
HETATM   70  H   UNK N   1      37.591  15.510  14.539  0.00  0.00     0.210 HD
ENDBRANCH  64  69
ENDBRANCH  57  58
ENDBRANCH   4  57
TORSDOF 15
ENDMDL
MODEL 9
REMARK VINA RESULT:      -8.4      5.237     10.714
REMARK  15 active torsions:
REMARK  status: ('A' for Active; 'I' for Inactive)
REMARK    1  A    between atoms: C_12  and  O_22 
REMARK    2  A    between atoms: C_23  and  O_22 
REMARK    3  A    between atoms: C_25  and  C_26 
REMARK    4  A    between atoms: C_26  and  O_27 
REMARK    5  A    between atoms: C_28  and  O_29 
REMARK    6  A    between atoms: C_30  and  O_29 
REMARK    7  A    between atoms: C_34  and  O_35 
REMARK    8  A    between atoms: C_36  and  O_37 
REMARK    9  A    between atoms: C_38  and  O_39 
REMARK   10  A    between atoms: C_40  and  O_41 
REMARK   11  A    between atoms: C_42  and  O_43 
REMARK   12  A    between atoms: C_44  and  O_43 
REMARK   13  A    between atoms: C_48  and  O_49 
REMARK   14  A    between atoms: C_50  and  O_51 
REMARK   15  A    between atoms: C_52  and  O_53 
ROOT
HETATM    1  C   UNK N   1      35.820  11.921  12.777  0.00  0.00     0.292 C 
HETATM    2  O   UNK N   1      34.962  12.658  13.642  0.00  0.00    -0.348 OA
HETATM    3  C   UNK N   1      35.655  13.169  14.781  0.00  0.00     0.180 C 
HETATM    4  C   UNK N   1      36.434  12.110  15.580  0.00  0.00     0.187 C 
HETATM    5  C   UNK N   1      37.283  11.254  14.644  0.00  0.00     0.183 C 
HETATM    6  C   UNK N   1      36.424  10.709  13.504  0.00  0.00     0.211 C 
ENDROOT
BRANCH   1   7
HETATM    7  O   UNK N   1      36.802  12.763  12.204  0.00  0.00    -0.353 OA
BRANCH   7   8
HETATM    8  C   UNK N   1      36.806  12.666  10.795  0.00  0.00     0.128 C 
HETATM    9  C   UNK N   1      37.163  13.963  10.034  0.00  0.00     0.066 C 
HETATM   10  C   UNK N   1      36.206  14.165   8.891  0.00  0.00    -0.072 C 
HETATM   11  C   UNK N   1      36.677  14.423   7.659  0.00  0.00    -0.023 C 
HETATM   12  C   UNK N   1      34.723  14.054   9.197  0.00  0.00    -0.017 C 
HETATM   13  C   UNK N   1      35.786  14.666   6.462  0.00  0.00     0.033 C 
HETATM   14  C   UNK N   1      34.318  14.954   6.809  0.00  0.00    -0.001 C 
HETATM   15  C   UNK N   1      34.052  16.423   7.163  0.00  0.00     0.001 C 
HETATM   16  C   UNK N   1      33.855  14.016   7.912  0.00  0.00     0.003 C 
HETATM   17  C   UNK N   1      34.226  17.270   5.902  0.00  0.00     0.038 C 
HETATM   18  C   UNK N   1      32.589  16.679   7.574  0.00  0.00    -0.033 C 
HETATM   19  C   UNK N   1      32.827  17.499   5.314  0.00  0.00     0.130 C 
HETATM   20  C   UNK N   1      31.826  16.848   6.261  0.00  0.00     0.032 C 
HETATM   21  O   UNK N   1      32.708  16.894   4.035  0.00  0.00    -0.355 OA
HETATM   22  C   UNK N   1      31.491  15.593   5.514  0.00  0.00     0.044 C 
HETATM   23  C   UNK N   1      30.152  15.006   5.940  0.00  0.00     0.015 C 
HETATM   24  C   UNK N   1      31.558  16.086   4.080  0.00  0.00     0.134 C 
HETATM   25  C   UNK N   1      31.735  14.898   3.114  0.00  0.00     0.061 C 
HETATM   26  N   UNK N   1      30.378  16.934   3.753  0.00  0.00    -0.391 N 
HETATM   27  C   UNK N   1      30.446  14.092   2.905  0.00  0.00     0.010 C 
HETATM   28  C   UNK N   1      29.193  14.972   2.887  0.00  0.00    -0.001 C 
HETATM   29  C   UNK N   1      28.234  14.487   1.821  0.00  0.00     0.011 C 
HETATM   30  C   UNK N   1      29.551  16.433   2.653  0.00  0.00     0.120 C 
HETATM   31  H   UNK N   1      30.163  17.796   4.255  0.00  0.00     0.156 HD
HETATM   32  C   UNK N   1      32.002  15.626   8.532  0.00  0.00     0.010 C 
HETATM   33  C   UNK N   1      32.530  18.013   8.307  0.00  0.00     0.016 C 
HETATM   34  C   UNK N   1      32.349  14.183   8.148  0.00  0.00     0.007 C 
HETATM   35  C   UNK N   1      34.412  12.761   9.975  0.00  0.00     0.016 C 
HETATM   36  C   UNK N   1      34.407  15.238  10.100  0.00  0.00     0.020 C 
HETATM   37  C   UNK N   1      35.627  11.862  10.228  0.00  0.00     0.033 C 
ENDBRANCH   7   8
ENDBRANCH   1   7
BRANCH   6  38
HETATM   38  O   UNK N   1      35.372   9.905  13.984  0.00  0.00    -0.346 OA
BRANCH  38  39
HETATM   39  C   UNK N   1      35.674   8.576  13.658  0.00  0.00     0.292 C 
HETATM   40  O   UNK N   1      36.909   8.502  12.992  0.00  0.00    -0.351 OA
HETATM   41  C   UNK N   1      36.860   7.279  12.292  0.00  0.00     0.152 C 
HETATM   42  C   UNK N   1      38.018   7.182  11.321  0.00  0.00     0.042 C 
HETATM   43  C   UNK N   1      36.848   6.065  13.244  0.00  0.00     0.178 C 
HETATM   44  C   UNK N   1      36.705   6.532  14.699  0.00  0.00     0.183 C 
HETATM   45  C   UNK N   1      35.669   7.648  14.893  0.00  0.00     0.204 C 
BRANCH  43  46
HETATM   46  O   UNK N   1      35.793   5.222  12.889  0.00  0.00    -0.390 OA
HETATM   47  H   UNK N   1      35.028   4.751  13.254  0.00  0.00     0.210 HD
ENDBRANCH  43  46
BRANCH  44  48
HETATM   48  O   UNK N   1      36.488   5.467  15.575  0.00  0.00    -0.390 OA
HETATM   49  H   UNK N   1      35.999   4.672  15.310  0.00  0.00     0.210 HD
ENDBRANCH  44  48
BRANCH  45  50
HETATM   50  O   UNK N   1      36.001   8.350  16.053  0.00  0.00    -0.388 OA
HETATM   51  H   UNK N   1      36.500   9.036  16.522  0.00  0.00     0.210 HD
ENDBRANCH  45  50
ENDBRANCH  38  39
ENDBRANCH   6  38
BRANCH   3  52
HETATM   52  C   UNK N   1      36.503  14.394  14.463  0.00  0.00     0.198 C 
BRANCH  52  53
HETATM   53  O   UNK N   1      37.481  14.556  15.444  0.00  0.00    -0.398 OA
HETATM   54  H   UNK N   1      37.868  13.852  15.989  0.00  0.00     0.209 HD
ENDBRANCH  52  53
ENDBRANCH   3  52
BRANCH   5  55
HETATM   55  O   UNK N   1      37.926  10.228  15.337  0.00  0.00    -0.390 OA
HETATM   56  H   UNK N   1      38.165  10.301  16.275  0.00  0.00     0.210 HD
ENDBRANCH   5  55
BRANCH   4  57
HETATM   57  O   UNK N   1      35.569  11.308  16.345  0.00  0.00    -0.348 OA
BRANCH  57  58
HETATM   58  C   UNK N   1      35.856  11.524  17.712  0.00  0.00     0.292 C 
HETATM   59  O   UNK N   1      36.105  10.313  18.417  0.00  0.00    -0.351 OA
HETATM   60  C   UNK N   1      34.923   9.934  19.075  0.00  0.00     0.152 C 
HETATM   61  C   UNK N   1      34.926   8.458  19.431  0.00  0.00     0.042 C 
HETATM   62  C   UNK N   1      34.614  10.868  20.264  0.00  0.00     0.178 C 
HETATM   63  C   UNK N   1      35.018  12.327  19.949  0.00  0.00     0.183 C 
HETATM   64  C   UNK N   1      34.932  12.548  18.438  0.00  0.00     0.204 C 
BRANCH  62  65
HETATM   65  O   UNK N   1      35.225  10.436  21.445  0.00  0.00    -0.390 OA
HETATM   66  H   UNK N   1      35.566  10.990  22.164  0.00  0.00     0.210 HD
ENDBRANCH  62  65
BRANCH  63  67
HETATM   67  O   UNK N   1      36.328  12.579  20.376  0.00  0.00    -0.390 OA
HETATM   68  H   UNK N   1      37.046  12.213  20.914  0.00  0.00     0.210 HD
ENDBRANCH  63  67
BRANCH  64  69
HETATM   69  O   UNK N   1      35.273  13.855  18.090  0.00  0.00    -0.388 OA
HETATM   70  H   UNK N   1      36.204  14.109  17.985  0.00  0.00     0.210 HD
ENDBRANCH  64  69
ENDBRANCH  57  58
ENDBRANCH   4  57
TORSDOF 15
ENDMDL
