MODEL 1
REMARK VINA RESULT:      -3.2      0.000      0.000
REMARK  2 active torsions:
REMARK  status: ('A' for Active; 'I' for Inactive)
REMARK    1  A    between atoms: O_1  and  O_3 
REMARK    2  A    between atoms: O_3  and  O_4 
ROOT
HETATM    1  O   UNK N   1      21.146  20.800   0.008  0.00  0.00    -0.072 OA
ENDROOT
BRANCH   1   2
HETATM    2  O   UNK N   1      20.566  21.833   0.459  0.00  0.00    -0.220 OA
ATOM      3  HO  UNK N   1      20.722  22.679   0.054  1.00  0.00     0.256 HD
ENDBRANCH   1   2
BRANCH   1   4
HETATM    4  O   UNK N   1      20.600  19.785   0.015  0.00  0.00    -0.220 OA
ATOM      5  HO  UNK N   1      20.606  19.238  -0.762  1.00  0.00     0.256 HD
ENDBRANCH   1   4
TORSDOF 2
ENDMDL
MODEL 2
REMARK VINA RESULT:      -3.0      9.360     10.204
REMARK  2 active torsions:
REMARK  status: ('A' for Active; 'I' for Inactive)
REMARK    1  A    between atoms: O_1  and  O_3 
REMARK    2  A    between atoms: O_3  and  O_4 
ROOT
HETATM    1  O   UNK N   1      17.989  26.651   8.098  0.00  0.00    -0.072 OA
ENDROOT
BRANCH   1   2
HETATM    2  O   UNK N   1      17.428  27.777   8.248  0.00  0.00    -0.220 OA
ATOM      3  HO  UNK N   1      16.679  28.009   7.710  1.00  0.00     0.256 HD
ENDBRANCH   1   2
BRANCH   1   4
HETATM    4  O   UNK N   1      17.999  26.147   7.062  0.00  0.00    -0.220 OA
ATOM      5  HO  UNK N   1      18.041  26.679   6.276  1.00  0.00     0.256 HD
ENDBRANCH   1   4
TORSDOF 2
ENDMDL
MODEL 3
REMARK VINA RESULT:      -2.8     16.678     16.928
REMARK  2 active torsions:
REMARK  status: ('A' for Active; 'I' for Inactive)
REMARK    1  A    between atoms: O_1  and  O_3 
REMARK    2  A    between atoms: O_3  and  O_4 
ROOT
HETATM    1  O   UNK N   1      35.047  19.497   8.561  0.00  0.00    -0.072 OA
ENDROOT
BRANCH   1   2
HETATM    2  O   UNK N   1      36.064  19.548   9.315  0.00  0.00    -0.220 OA
ATOM      3  HO  UNK N   1      36.165  18.915  10.018  1.00  0.00     0.256 HD
ENDBRANCH   1   2
BRANCH   1   4
HETATM    4  O   UNK N   1      34.997  18.716   7.715  0.00  0.00    -0.220 OA
ATOM      5  HO  UNK N   1      34.896  17.795   7.925  1.00  0.00     0.256 HD
ENDBRANCH   1   4
TORSDOF 2
ENDMDL
MODEL 4
REMARK VINA RESULT:      -2.8     10.717     11.096
REMARK  2 active torsions:
REMARK  status: ('A' for Active; 'I' for Inactive)
REMARK    1  A    between atoms: O_1  and  O_3 
REMARK    2  A    between atoms: O_3  and  O_4 
ROOT
HETATM    1  O   UNK N   1      31.606  22.379  -2.370  0.00  0.00    -0.072 OA
ENDROOT
BRANCH   1   2
HETATM    2  O   UNK N   1      30.754  22.837  -1.551  0.00  0.00    -0.220 OA
ATOM      3  HO  UNK N   1      30.615  23.775  -1.486  1.00  0.00     0.256 HD
ENDBRANCH   1   2
BRANCH   1   4
HETATM    4  O   UNK N   1      32.250  21.469  -2.081  0.00  0.00    -0.220 OA
ATOM      5  HO  UNK N   1      33.176  21.457  -2.292  1.00  0.00     0.256 HD
ENDBRANCH   1   4
TORSDOF 2
ENDMDL
MODEL 5
REMARK VINA RESULT:      -2.7     33.807     34.011
REMARK  2 active torsions:
REMARK  status: ('A' for Active; 'I' for Inactive)
REMARK    1  A    between atoms: O_1  and  O_3 
REMARK    2  A    between atoms: O_3  and  O_4 
ROOT
HETATM    1  O   UNK N   1      47.918  18.003  20.627  0.00  0.00    -0.072 OA
ENDROOT
BRANCH   1   2
HETATM    2  O   UNK N   1      48.544  17.665  19.579  0.00  0.00    -0.220 OA
ATOM      3  HO  UNK N   1      49.110  16.901  19.590  1.00  0.00     0.256 HD
ENDBRANCH   1   2
BRANCH   1   4
HETATM    4  O   UNK N   1      47.523  19.079  20.739  0.00  0.00    -0.220 OA
ATOM      5  HO  UNK N   1      47.783  19.747  20.115  1.00  0.00     0.256 HD
ENDBRANCH   1   4
TORSDOF 2
ENDMDL
MODEL 6
REMARK VINA RESULT:      -2.7     15.604     16.008
REMARK  2 active torsions:
REMARK  status: ('A' for Active; 'I' for Inactive)
REMARK    1  A    between atoms: O_1  and  O_3 
REMARK    2  A    between atoms: O_3  and  O_4 
ROOT
HETATM    1  O   UNK N   1      23.710  12.003  13.292  0.00  0.00    -0.072 OA
ENDROOT
BRANCH   1   2
HETATM    2  O   UNK N   1      24.377  12.294  12.254  0.00  0.00    -0.220 OA
ATOM      3  HO  UNK N   1      24.607  11.613  11.632  1.00  0.00     0.256 HD
ENDBRANCH   1   2
BRANCH   1   4
HETATM    4  O   UNK N   1      23.816  12.645  14.243  0.00  0.00    -0.220 OA
ATOM      5  HO  UNK N   1      23.449  13.521  14.267  1.00  0.00     0.256 HD
ENDBRANCH   1   4
TORSDOF 2
ENDMDL
MODEL 7
REMARK VINA RESULT:      -2.5      3.341      3.729
REMARK  2 active torsions:
REMARK  status: ('A' for Active; 'I' for Inactive)
REMARK    1  A    between atoms: O_1  and  O_3 
REMARK    2  A    between atoms: O_3  and  O_4 
ROOT
HETATM    1  O   UNK N   1      23.178  21.411   3.002  0.00  0.00    -0.072 OA
ENDROOT
BRANCH   1   2
HETATM    2  O   UNK N   1      23.984  20.936   2.147  0.00  0.00    -0.220 OA
ATOM      3  HO  UNK N   1      24.242  21.458   1.396  1.00  0.00     0.256 HD
ENDBRANCH   1   2
BRANCH   1   4
HETATM    4  O   UNK N   1      22.094  21.654   2.696  0.00  0.00    -0.220 OA
ATOM      5  HO  UNK N   1      21.840  22.553   2.522  1.00  0.00     0.256 HD
ENDBRANCH   1   4
TORSDOF 2
ENDMDL
MODEL 8
REMARK VINA RESULT:      -2.5     18.882     19.097
REMARK  2 active torsions:
REMARK  status: ('A' for Active; 'I' for Inactive)
REMARK    1  A    between atoms: O_1  and  O_3 
REMARK    2  A    between atoms: O_3  and  O_4 
ROOT
HETATM    1  O   UNK N   1      36.178  16.902  10.522  0.00  0.00    -0.072 OA
ENDROOT
BRANCH   1   2
HETATM    2  O   UNK N   1      35.018  16.983  11.027  0.00  0.00    -0.220 OA
ATOM      3  HO  UNK N   1      34.255  16.791  10.494  1.00  0.00     0.256 HD
ENDBRANCH   1   2
BRANCH   1   4
HETATM    4  O   UNK N   1      36.916  16.102  10.901  0.00  0.00    -0.220 OA
ATOM      5  HO  UNK N   1      37.446  16.272  11.670  1.00  0.00     0.256 HD
ENDBRANCH   1   4
TORSDOF 2
ENDMDL
MODEL 9
REMARK VINA RESULT:      -2.4     23.681     24.032
REMARK  2 active torsions:
REMARK  status: ('A' for Active; 'I' for Inactive)
REMARK    1  A    between atoms: O_1  and  O_3 
REMARK    2  A    between atoms: O_3  and  O_4 
ROOT
HETATM    1  O   UNK N   1      44.210  24.122   3.245  0.00  0.00    -0.072 OA
ENDROOT
BRANCH   1   2
HETATM    2  O   UNK N   1      44.994  25.082   2.981  0.00  0.00    -0.220 OA
ATOM      3  HO  UNK N   1      45.900  24.906   2.752  1.00  0.00     0.256 HD
ENDBRANCH   1   2
BRANCH   1   4
HETATM    4  O   UNK N   1      43.598  24.131   4.221  0.00  0.00    -0.220 OA
ATOM      5  HO  UNK N   1      42.873  23.527   4.332  1.00  0.00     0.256 HD
ENDBRANCH   1   4
TORSDOF 2
ENDMDL
