REMARK  6 active torsions:
REMARK  status: ('A' for Active; 'I' for Inactive)
REMARK    1  A    between atoms: C_2  and  N_3 
REMARK    2  A    between atoms: N_3  and  C_4 
REMARK       I    between atoms: N_3  and  C_11 
REMARK    3  A    between atoms: C_4  and  C_5 
REMARK    4  A    between atoms: C_11  and  C_13 
REMARK    5  A    between atoms: C_13  and  N_14 
REMARK    6  A    between atoms: C_20  and  C_23 
ROOT
HETATM    1  N   UNK N   1      -0.796  -0.032   0.334  0.00  0.00    -0.274 N 
HETATM    2  C   UNK N   1       0.503   0.065   0.031  0.00  0.00     0.142 A 
HETATM    3  C   UNK N   1       0.794   1.320  -0.391  0.00  0.00     0.098 A 
HETATM    4  C   UNK N   1       2.102   1.663  -0.690  0.00  0.00     0.123 A 
HETATM    5  N   UNK N   1       3.058   0.692  -0.548  0.00  0.00    -0.349 N 
ATOM      6  HN  UNK N   1       4.030   0.914  -0.762  1.00  0.00     0.167 HD
HETATM    7  C   UNK N   1       2.736  -0.580  -0.122  0.00  0.00     0.117 A 
HETATM    8  N   UNK N   1       1.440  -0.892   0.179  0.00  0.00    -0.326 N 
ATOM      9  HN  UNK N   1       1.189  -1.825   0.506  1.00  0.00     0.169 HD
HETATM   10  N   UNK N   1      -0.331   2.066  -0.375  0.00  0.00    -0.299 N 
HETATM   11  C   UNK N   1      -1.297   1.214   0.086  0.00  0.00     0.331 A 
HETATM   12  O   UNK N   1      -2.451   1.547   0.311  0.00  0.00    -0.246 OA
HETATM   13  C   UNK N   1      -0.462   3.480  -0.684  0.00  0.00     0.161 C 
ENDROOT
BRANCH   1  14
HETATM   14  C   UNK N   1      -1.401  -1.137   1.048  0.00  0.00     0.238 C 
BRANCH  14  15
HETATM   15  C   UNK N   1      -2.141  -2.207   0.296  0.00  0.00     0.238 C 
HETATM   16  N   UNK N   1      -1.837  -3.512   0.564  0.00  0.00    -0.347 N 
HETATM   17  O   UNK N   1      -3.189  -1.919  -0.263  0.00  0.00    -0.272 OA
BRANCH  16  18
HETATM   18  C   UNK N   1      -0.561  -3.833   1.171  0.00  0.00     0.121 C 
HETATM   19  C   UNK N   1       0.355  -4.485   0.148  0.00  0.00     0.026 C 
ENDBRANCH  16  18
BRANCH  16  20
HETATM   20  C   UNK N   1      -2.958  -4.334   0.965  0.00  0.00     0.164 C 
BRANCH  20  21
HETATM   21  C   UNK N   1      -3.348  -5.522   0.167  0.00  0.00    -0.040 A 
HETATM   22  C   UNK N   1      -2.426  -6.341  -0.493  0.00  0.00     0.009 A 
HETATM   23  C   UNK N   1      -2.865  -7.531  -1.090  0.00  0.00     0.001 A 
HETATM   24  C   UNK N   1      -4.210  -7.912  -1.001  0.00  0.00     0.000 A 
HETATM   25  C   UNK N   1      -5.121  -7.102  -0.322  0.00  0.00     0.001 A 
HETATM   26  C   UNK N   1      -4.686  -5.917   0.266  0.00  0.00     0.009 A 
ENDBRANCH  20  21
ENDBRANCH  16  20
ENDBRANCH  14  15
ENDBRANCH   1  14
BRANCH   7  27
HETATM   27  C   UNK N   1       3.776  -1.613   0.019  0.00  0.00     0.008 A 
HETATM   28  C   UNK N   1       5.125  -1.304  -0.198  0.00  0.00     0.015 A 
HETATM   29  C   UNK N   1       6.104  -2.293  -0.061  0.00  0.00     0.001 A 
HETATM   30  C   UNK N   1       5.739  -3.597   0.286  0.00  0.00     0.000 A 
HETATM   31  C   UNK N   1       4.395  -3.914   0.501  0.00  0.00     0.001 A 
HETATM   32  C   UNK N   1       3.418  -2.924   0.372  0.00  0.00     0.015 A 
ENDBRANCH   7  27
TORSDOF 6
