MODEL 1
REMARK VINA RESULT:      -7.2      0.000      0.000
REMARK  8 active torsions:
REMARK  status: ('A' for Active; 'I' for Inactive)
REMARK    1  A    between atoms: C_4  and  C_7 
REMARK       I    between atoms: C_7  and  N_9 
REMARK    2  A    between atoms: C_12  and  C_15 
REMARK    3  A    between atoms: C_15  and  C_16 
REMARK    4  A    between atoms: C_16  and  C_17 
REMARK    5  A    between atoms: C_17  and  C_18 
REMARK    6  A    between atoms: C_18  and  N_19 
REMARK       I    between atoms: N_19  and  C_20 
REMARK    7  A    between atoms: C_20  and  C_22 
REMARK    8  A    between atoms: C_23  and  C_24 
ROOT
HETATM    1  C   UNK N   1      26.061  22.977  -6.774  0.00  0.00     0.002 C 
ENDROOT
BRANCH   1   2
HETATM    2  C   UNK N   1      25.938  23.980  -5.637  0.00  0.00     0.005 C 
BRANCH   2   3
HETATM    3  C   UNK N   1      27.312  24.233  -5.049  0.00  0.00    -0.012 C 
HETATM    4  C   UNK N   1      27.280  24.229  -3.518  0.00  0.00     0.024 C 
HETATM    5  C   UNK N   1      28.685  24.515  -2.980  0.00  0.00     0.126 C 
HETATM    6  N   UNK N   1      29.617  23.567  -3.563  0.00  0.00    -0.348 N 
HETATM    7  C   UNK N   1      30.415  22.796  -2.753  0.00  0.00     0.253 C 
HETATM    8  C   UNK N   1      29.672  23.501  -5.008  0.00  0.00     0.126 C 
HETATM    9  O   UNK N   1      30.378  22.971  -1.543  0.00  0.00    -0.267 OA
HETATM   10  C   UNK N   1      28.291  23.186  -5.560  0.00  0.00     0.024 C 
BRANCH   7  11
HETATM   11  C   UNK N   1      31.342  21.741  -3.283  0.00  0.00     0.032 A 
HETATM   12  C   UNK N   1      30.854  20.797  -4.203  0.00  0.00     0.017 A 
HETATM   13  C   UNK N   1      31.696  19.814  -4.731  0.00  0.00     0.001 A 
HETATM   14  C   UNK N   1      33.043  19.773  -4.362  0.00  0.00     0.000 A 
HETATM   15  C   UNK N   1      33.546  20.712  -3.461  0.00  0.00     0.001 A 
HETATM   16  C   UNK N   1      32.699  21.684  -2.926  0.00  0.00     0.017 A 
ENDBRANCH   7  11
ENDBRANCH   2   3
ENDBRANCH   1   2
BRANCH   1  17
HETATM   17  C   UNK N   1      25.570  23.567  -8.090  0.00  0.00     0.020 C 
BRANCH  17  18
HETATM   18  C   UNK N   1      26.727  24.109  -8.909  0.00  0.00     0.123 C 
BRANCH  18  19
HETATM   19  N   UNK N   1      26.875  25.520  -8.674  0.00  0.00    -0.358 N 
HETATM   20  C   UNK N   1      28.058  26.064  -8.316  0.00  0.00     0.241 C 
HETATM   21  O   UNK N   1      29.034  25.346  -8.155  0.00  0.00    -0.269 OA
HETATM   22  H   UNK N   1      26.091  26.106  -8.777  0.00  0.00     0.162 HD
BRANCH  20  23
HETATM   23  C   UNK N   1      28.220  27.524  -8.117  0.00  0.00     0.075 C 
HETATM   24  C   UNK N   1      27.890  28.340  -7.093  0.00  0.00     0.018 C 
BRANCH  24  25
HETATM   25  C   UNK N   1      27.272  28.099  -5.767  0.00  0.00    -0.021 A 
HETATM   26  C   UNK N   1      25.935  27.693  -5.738  0.00  0.00     0.014 A 
HETATM   27  C   UNK N   1      25.294  27.458  -4.522  0.00  0.00     0.018 A 
HETATM   28  C   UNK N   1      26.004  27.636  -3.334  0.00  0.00     0.087 A 
HETATM   29  N   UNK N   1      27.302  28.035  -3.371  0.00  0.00    -0.374 N 
HETATM   30  C   UNK N   1      27.939  28.268  -4.550  0.00  0.00     0.099 A 
ATOM     31  HN  UNK N   1      27.811  28.163  -2.496  1.00  0.00     0.164 HD
ENDBRANCH  24  25
ENDBRANCH  20  23
ENDBRANCH  18  19
ENDBRANCH  17  18
ENDBRANCH   1  17
TORSDOF 8
ENDMDL
MODEL 2
REMARK VINA RESULT:      -6.9     14.122     15.861
REMARK  8 active torsions:
REMARK  status: ('A' for Active; 'I' for Inactive)
REMARK    1  A    between atoms: C_4  and  C_7 
REMARK       I    between atoms: C_7  and  N_9 
REMARK    2  A    between atoms: C_12  and  C_15 
REMARK    3  A    between atoms: C_15  and  C_16 
REMARK    4  A    between atoms: C_16  and  C_17 
REMARK    5  A    between atoms: C_17  and  C_18 
REMARK    6  A    between atoms: C_18  and  N_19 
REMARK       I    between atoms: N_19  and  C_20 
REMARK    7  A    between atoms: C_20  and  C_22 
REMARK    8  A    between atoms: C_23  and  C_24 
ROOT
HETATM    1  C   UNK N   1      22.066  16.864   4.786  0.00  0.00     0.002 C 
ENDROOT
BRANCH   1   2
HETATM    2  C   UNK N   1      21.236  17.134   6.032  0.00  0.00     0.005 C 
BRANCH   2   3
HETATM    3  C   UNK N   1      20.818  15.811   6.644  0.00  0.00    -0.012 C 
HETATM    4  C   UNK N   1      21.286  14.625   5.796  0.00  0.00     0.024 C 
HETATM    5  C   UNK N   1      20.815  13.321   6.445  0.00  0.00     0.126 C 
HETATM    6  N   UNK N   1      21.266  13.288   7.824  0.00  0.00    -0.348 N 
HETATM    7  C   UNK N   1      22.004  12.225   8.284  0.00  0.00     0.253 C 
HETATM    8  C   UNK N   1      20.881  14.398   8.669  0.00  0.00     0.126 C 
HETATM    9  O   UNK N   1      22.214  11.279   7.537  0.00  0.00    -0.267 OA
HETATM   10  C   UNK N   1      21.369  15.701   8.058  0.00  0.00     0.024 C 
BRANCH   7  11
HETATM   11  C   UNK N   1      22.571  12.161   9.674  0.00  0.00     0.032 A 
HETATM   12  C   UNK N   1      21.696  12.020  10.765  0.00  0.00     0.017 A 
HETATM   13  C   UNK N   1      22.192  11.938  12.070  0.00  0.00     0.001 A 
HETATM   14  C   UNK N   1      23.569  11.976  12.300  0.00  0.00     0.000 A 
HETATM   15  C   UNK N   1      24.450  12.100  11.226  0.00  0.00     0.001 A 
HETATM   16  C   UNK N   1      23.952  12.195   9.925  0.00  0.00     0.017 A 
ENDBRANCH   7  11
ENDBRANCH   2   3
ENDBRANCH   1   2
BRANCH   1  17
HETATM   17  C   UNK N   1      21.636  17.757   3.629  0.00  0.00     0.020 C 
BRANCH  17  18
HETATM   18  C   UNK N   1      22.108  19.184   3.838  0.00  0.00     0.123 C 
BRANCH  18  19
HETATM   19  N   UNK N   1      23.468  19.320   3.393  0.00  0.00    -0.358 N 
HETATM   20  C   UNK N   1      23.969  20.504   2.982  0.00  0.00     0.241 C 
HETATM   21  O   UNK N   1      23.250  21.493   2.952  0.00  0.00    -0.269 OA
HETATM   22  H   UNK N   1      24.051  18.528   3.389  0.00  0.00     0.162 HD
BRANCH  20  23
HETATM   23  C   UNK N   1      25.384  20.654   2.565  0.00  0.00     0.075 C 
HETATM   24  C   UNK N   1      26.544  20.554   3.249  0.00  0.00     0.018 C 
BRANCH  24  25
HETATM   25  C   UNK N   1      26.861  20.230   4.661  0.00  0.00    -0.021 A 
HETATM   26  C   UNK N   1      27.855  19.278   4.901  0.00  0.00     0.014 A 
HETATM   27  C   UNK N   1      28.193  18.924   6.207  0.00  0.00     0.018 A 
HETATM   28  C   UNK N   1      27.525  19.531   7.271  0.00  0.00     0.087 A 
HETATM   29  N   UNK N   1      26.557  20.453   7.029  0.00  0.00    -0.374 N 
HETATM   30  C   UNK N   1      26.217  20.807   5.760  0.00  0.00     0.099 A 
ATOM     31  HN  UNK N   1      26.074  20.890   7.814  1.00  0.00     0.164 HD
ENDBRANCH  24  25
ENDBRANCH  20  23
ENDBRANCH  18  19
ENDBRANCH  17  18
ENDBRANCH   1  17
TORSDOF 8
ENDMDL
MODEL 3
REMARK VINA RESULT:      -6.8      2.399      6.601
REMARK  8 active torsions:
REMARK  status: ('A' for Active; 'I' for Inactive)
REMARK    1  A    between atoms: C_4  and  C_7 
REMARK       I    between atoms: C_7  and  N_9 
REMARK    2  A    between atoms: C_12  and  C_15 
REMARK    3  A    between atoms: C_15  and  C_16 
REMARK    4  A    between atoms: C_16  and  C_17 
REMARK    5  A    between atoms: C_17  and  C_18 
REMARK    6  A    between atoms: C_18  and  N_19 
REMARK       I    between atoms: N_19  and  C_20 
REMARK    7  A    between atoms: C_20  and  C_22 
REMARK    8  A    between atoms: C_23  and  C_24 
ROOT
HETATM    1  C   UNK N   1      31.293  21.124  -6.573  0.00  0.00     0.002 C 
ENDROOT
BRANCH   1   2
HETATM    2  C   UNK N   1      30.570  20.608  -7.809  0.00  0.00     0.005 C 
BRANCH   2   3
HETATM    3  C   UNK N   1      29.348  21.469  -8.063  0.00  0.00    -0.012 C 
HETATM    4  C   UNK N   1      28.051  20.680  -7.862  0.00  0.00     0.024 C 
HETATM    5  C   UNK N   1      26.855  21.589  -8.156  0.00  0.00     0.126 C 
HETATM    6  N   UNK N   1      26.960  22.789  -7.347  0.00  0.00    -0.348 N 
HETATM    7  C   UNK N   1      25.923  23.160  -6.526  0.00  0.00     0.253 C 
HETATM    8  C   UNK N   1      28.177  23.562  -7.470  0.00  0.00     0.126 C 
HETATM    9  O   UNK N   1      24.889  22.508  -6.542  0.00  0.00    -0.267 OA
HETATM   10  C   UNK N   1      29.376  22.685  -7.149  0.00  0.00     0.024 C 
BRANCH   7  11
HETATM   11  C   UNK N   1      25.993  24.343  -5.602  0.00  0.00     0.032 A 
HETATM   12  C   UNK N   1      26.541  24.179  -4.318  0.00  0.00     0.017 A 
HETATM   13  C   UNK N   1      26.639  25.264  -3.441  0.00  0.00     0.001 A 
HETATM   14  C   UNK N   1      26.211  26.531  -3.843  0.00  0.00     0.000 A 
HETATM   15  C   UNK N   1      25.680  26.713  -5.120  0.00  0.00     0.001 A 
HETATM   16  C   UNK N   1      25.570  25.625  -5.989  0.00  0.00     0.017 A 
ENDBRANCH   7  11
ENDBRANCH   2   3
ENDBRANCH   1   2
BRANCH   1  17
HETATM   17  C   UNK N   1      32.134  20.032  -5.927  0.00  0.00     0.020 C 
BRANCH  17  18
HETATM   18  C   UNK N   1      31.971  20.041  -4.417  0.00  0.00     0.123 C 
BRANCH  18  19
HETATM   19  N   UNK N   1      31.088  21.105  -4.026  0.00  0.00    -0.358 N 
HETATM   20  C   UNK N   1      31.320  21.859  -2.931  0.00  0.00     0.241 C 
HETATM   21  O   UNK N   1      32.289  21.624  -2.223  0.00  0.00    -0.269 OA
HETATM   22  H   UNK N   1      30.291  21.289  -4.573  0.00  0.00     0.162 HD
BRANCH  20  23
HETATM   23  C   UNK N   1      30.433  22.985  -2.553  0.00  0.00     0.075 C 
HETATM   24  C   UNK N   1      30.195  24.183  -3.129  0.00  0.00     0.018 C 
BRANCH  24  25
HETATM   25  C   UNK N   1      30.696  24.827  -4.367  0.00  0.00    -0.021 A 
HETATM   26  C   UNK N   1      29.862  25.751  -5.002  0.00  0.00     0.014 A 
HETATM   27  C   UNK N   1      30.273  26.384  -6.174  0.00  0.00     0.018 A 
HETATM   28  C   UNK N   1      31.527  26.082  -6.707  0.00  0.00     0.087 A 
HETATM   29  N   UNK N   1      32.330  25.179  -6.086  0.00  0.00    -0.374 N 
HETATM   30  C   UNK N   1      31.941  24.554  -4.942  0.00  0.00     0.099 A 
ATOM     31  HN  UNK N   1      33.244  24.965  -6.485  1.00  0.00     0.164 HD
ENDBRANCH  24  25
ENDBRANCH  20  23
ENDBRANCH  18  19
ENDBRANCH  17  18
ENDBRANCH   1  17
TORSDOF 8
ENDMDL
MODEL 4
REMARK VINA RESULT:      -6.7     14.002     16.928
REMARK  8 active torsions:
REMARK  status: ('A' for Active; 'I' for Inactive)
REMARK    1  A    between atoms: C_4  and  C_7 
REMARK       I    between atoms: C_7  and  N_9 
REMARK    2  A    between atoms: C_12  and  C_15 
REMARK    3  A    between atoms: C_15  and  C_16 
REMARK    4  A    between atoms: C_16  and  C_17 
REMARK    5  A    between atoms: C_17  and  C_18 
REMARK    6  A    between atoms: C_18  and  N_19 
REMARK       I    between atoms: N_19  and  C_20 
REMARK    7  A    between atoms: C_20  and  C_22 
REMARK    8  A    between atoms: C_23  and  C_24 
ROOT
HETATM    1  C   UNK N   1      21.206  16.104   7.204  0.00  0.00     0.002 C 
ENDROOT
BRANCH   1   2
HETATM    2  C   UNK N   1      20.490  17.042   6.244  0.00  0.00     0.005 C 
BRANCH   2   3
HETATM    3  C   UNK N   1      21.438  17.422   5.124  0.00  0.00    -0.012 C 
HETATM    4  C   UNK N   1      21.040  18.751   4.475  0.00  0.00     0.024 C 
HETATM    5  C   UNK N   1      22.013  19.071   3.337  0.00  0.00     0.126 C 
HETATM    6  N   UNK N   1      23.370  19.036   3.851  0.00  0.00    -0.348 N 
HETATM    7  C   UNK N   1      24.197  20.122   3.689  0.00  0.00     0.253 C 
HETATM    8  C   UNK N   1      23.796  17.818   4.503  0.00  0.00     0.126 C 
HETATM    9  O   UNK N   1      23.798  21.083   3.047  0.00  0.00    -0.267 OA
HETATM   10  C   UNK N   1      22.860  17.499   5.658  0.00  0.00     0.024 C 
BRANCH   7  11
HETATM   11  C   UNK N   1      25.584  20.186   4.262  0.00  0.00     0.032 A 
HETATM   12  C   UNK N   1      26.657  19.658   3.524  0.00  0.00     0.017 A 
HETATM   13  C   UNK N   1      27.963  19.719   4.021  0.00  0.00     0.001 A 
HETATM   14  C   UNK N   1      28.216  20.329   5.252  0.00  0.00     0.000 A 
HETATM   15  C   UNK N   1      27.164  20.872   5.989  0.00  0.00     0.001 A 
HETATM   16  C   UNK N   1      25.859  20.797   5.497  0.00  0.00     0.017 A 
ENDBRANCH   7  11
ENDBRANCH   2   3
ENDBRANCH   1   2
BRANCH   1  17
HETATM   17  C   UNK N   1      20.279  15.001   7.697  0.00  0.00     0.020 C 
BRANCH  17  18
HETATM   18  C   UNK N   1      20.237  14.963   9.214  0.00  0.00     0.123 C 
BRANCH  18  19
HETATM   19  N   UNK N   1      21.326  14.169   9.715  0.00  0.00    -0.358 N 
HETATM   20  C   UNK N   1      21.119  13.061  10.457  0.00  0.00     0.241 C 
HETATM   21  O   UNK N   1      19.979  12.725  10.747  0.00  0.00    -0.269 OA
HETATM   22  H   UNK N   1      22.249  14.441   9.510  0.00  0.00     0.162 HD
BRANCH  20  23
HETATM   23  C   UNK N   1      22.241  12.218  10.936  0.00  0.00     0.075 C 
HETATM   24  C   UNK N   1      23.350  11.754  10.322  0.00  0.00     0.018 C 
BRANCH  24  25
HETATM   25  C   UNK N   1      23.895  11.925   8.954  0.00  0.00    -0.021 A 
HETATM   26  C   UNK N   1      24.650  13.072   8.694  0.00  0.00     0.014 A 
HETATM   27  C   UNK N   1      25.183  13.294   7.425  0.00  0.00     0.018 A 
HETATM   28  C   UNK N   1      24.952  12.358   6.416  0.00  0.00     0.087 A 
HETATM   29  N   UNK N   1      24.214  11.247   6.676  0.00  0.00    -0.374 N 
HETATM   30  C   UNK N   1      23.688  11.019   7.910  0.00  0.00     0.099 A 
ATOM     31  HN  UNK N   1      24.050  10.570   5.931  1.00  0.00     0.164 HD
ENDBRANCH  24  25
ENDBRANCH  20  23
ENDBRANCH  18  19
ENDBRANCH  17  18
ENDBRANCH   1  17
TORSDOF 8
ENDMDL
MODEL 5
REMARK VINA RESULT:      -6.7     15.311     18.172
REMARK  8 active torsions:
REMARK  status: ('A' for Active; 'I' for Inactive)
REMARK    1  A    between atoms: C_4  and  C_7 
REMARK       I    between atoms: C_7  and  N_9 
REMARK    2  A    between atoms: C_12  and  C_15 
REMARK    3  A    between atoms: C_15  and  C_16 
REMARK    4  A    between atoms: C_16  and  C_17 
REMARK    5  A    between atoms: C_17  and  C_18 
REMARK    6  A    between atoms: C_18  and  N_19 
REMARK       I    between atoms: N_19  and  C_20 
REMARK    7  A    between atoms: C_20  and  C_22 
REMARK    8  A    between atoms: C_23  and  C_24 
ROOT
HETATM    1  C   UNK N   1      21.619  15.371   7.304  0.00  0.00     0.002 C 
ENDROOT
BRANCH   1   2
HETATM    2  C   UNK N   1      22.139  16.403   6.315  0.00  0.00     0.005 C 
BRANCH   2   3
HETATM    3  C   UNK N   1      21.149  16.538   5.174  0.00  0.00    -0.012 C 
HETATM    4  C   UNK N   1      21.758  17.285   3.984  0.00  0.00     0.024 C 
HETATM    5  C   UNK N   1      20.710  17.414   2.876  0.00  0.00     0.126 C 
HETATM    6  N   UNK N   1      20.193  16.096   2.557  0.00  0.00    -0.348 N 
HETATM    7  C   UNK N   1      20.229  15.635   1.263  0.00  0.00     0.253 C 
HETATM    8  C   UNK N   1      19.632  15.326   3.646  0.00  0.00     0.126 C 
HETATM    9  O   UNK N   1      20.635  16.376   0.379  0.00  0.00    -0.267 OA
HETATM   10  C   UNK N   1      20.670  15.159   4.744  0.00  0.00     0.024 C 
BRANCH   7  11
HETATM   11  C   UNK N   1      19.787  14.254   0.873  0.00  0.00     0.032 A 
HETATM   12  C   UNK N   1      20.703  13.191   0.956  0.00  0.00     0.017 A 
HETATM   13  C   UNK N   1      20.318  11.890   0.620  0.00  0.00     0.001 A 
HETATM   14  C   UNK N   1      19.006  11.629   0.216  0.00  0.00     0.000 A 
HETATM   15  C   UNK N   1      18.082  12.671   0.143  0.00  0.00     0.001 A 
HETATM   16  C   UNK N   1      18.473  13.972   0.467  0.00  0.00     0.017 A 
ENDBRANCH   7  11
ENDBRANCH   2   3
ENDBRANCH   1   2
BRANCH   1  17
HETATM   17  C   UNK N   1      20.682  16.002   8.325  0.00  0.00     0.020 C 
BRANCH  17  18
HETATM   18  C   UNK N   1      20.161  14.964   9.302  0.00  0.00     0.123 C 
BRANCH  18  19
HETATM   19  N   UNK N   1      21.247  14.148   9.775  0.00  0.00    -0.358 N 
HETATM   20  C   UNK N   1      21.035  13.015  10.477  0.00  0.00     0.241 C 
HETATM   21  O   UNK N   1      19.894  12.674  10.754  0.00  0.00    -0.269 OA
HETATM   22  H   UNK N   1      22.171  14.424   9.580  0.00  0.00     0.162 HD
BRANCH  20  23
HETATM   23  C   UNK N   1      22.153  12.151  10.926  0.00  0.00     0.075 C 
HETATM   24  C   UNK N   1      23.282  11.739  10.310  0.00  0.00     0.018 C 
BRANCH  24  25
HETATM   25  C   UNK N   1      23.859  12.008   8.971  0.00  0.00    -0.021 A 
HETATM   26  C   UNK N   1      24.618  13.171   8.812  0.00  0.00     0.014 A 
HETATM   27  C   UNK N   1      25.181  13.483   7.575  0.00  0.00     0.018 A 
HETATM   28  C   UNK N   1      24.975  12.621   6.497  0.00  0.00     0.087 A 
HETATM   29  N   UNK N   1      24.233  11.494   6.659  0.00  0.00    -0.374 N 
HETATM   30  C   UNK N   1      23.678  11.178   7.860  0.00  0.00     0.099 A 
ATOM     31  HN  UNK N   1      24.088  10.872   5.864  1.00  0.00     0.164 HD
ENDBRANCH  24  25
ENDBRANCH  20  23
ENDBRANCH  18  19
ENDBRANCH  17  18
ENDBRANCH   1  17
TORSDOF 8
ENDMDL
MODEL 6
REMARK VINA RESULT:      -6.5     10.907     13.191
REMARK  8 active torsions:
REMARK  status: ('A' for Active; 'I' for Inactive)
REMARK    1  A    between atoms: C_4  and  C_7 
REMARK       I    between atoms: C_7  and  N_9 
REMARK    2  A    between atoms: C_12  and  C_15 
REMARK    3  A    between atoms: C_15  and  C_16 
REMARK    4  A    between atoms: C_16  and  C_17 
REMARK    5  A    between atoms: C_17  and  C_18 
REMARK    6  A    between atoms: C_18  and  N_19 
REMARK       I    between atoms: N_19  and  C_20 
REMARK    7  A    between atoms: C_20  and  C_22 
REMARK    8  A    between atoms: C_23  and  C_24 
ROOT
HETATM    1  C   UNK N   1      26.525  15.448   4.583  0.00  0.00     0.002 C 
ENDROOT
BRANCH   1   2
HETATM    2  C   UNK N   1      27.285  14.175   4.241  0.00  0.00     0.005 C 
BRANCH   2   3
HETATM    3  C   UNK N   1      28.741  14.519   3.998  0.00  0.00    -0.012 C 
HETATM    4  C   UNK N   1      28.890  15.858   3.269  0.00  0.00     0.024 C 
HETATM    5  C   UNK N   1      30.375  16.140   3.027  0.00  0.00     0.126 C 
HETATM    6  N   UNK N   1      31.085  16.062   4.290  0.00  0.00    -0.348 N 
HETATM    7  C   UNK N   1      31.854  17.118   4.716  0.00  0.00     0.253 C 
HETATM    8  C   UNK N   1      30.958  14.832   5.042  0.00  0.00     0.126 C 
HETATM    9  O   UNK N   1      31.987  18.089   3.986  0.00  0.00    -0.267 OA
HETATM   10  C   UNK N   1      29.491  14.550   5.321  0.00  0.00     0.024 C 
BRANCH   7  11
HETATM   11  C   UNK N   1      32.550  17.139   6.047  0.00  0.00     0.032 A 
HETATM   12  C   UNK N   1      31.809  17.435   7.204  0.00  0.00     0.017 A 
HETATM   13  C   UNK N   1      32.423  17.443   8.461  0.00  0.00     0.001 A 
HETATM   14  C   UNK N   1      33.780  17.135   8.580  0.00  0.00     0.000 A 
HETATM   15  C   UNK N   1      34.525  16.824   7.443  0.00  0.00     0.001 A 
HETATM   16  C   UNK N   1      33.913  16.830   6.188  0.00  0.00     0.017 A 
ENDBRANCH   7  11
ENDBRANCH   2   3
ENDBRANCH   1   2
BRANCH   1  17
HETATM   17  C   UNK N   1      25.090  15.390   4.076  0.00  0.00     0.020 C 
BRANCH  17  18
HETATM   18  C   UNK N   1      24.707  16.682   3.377  0.00  0.00     0.123 C 
BRANCH  18  19
HETATM   19  N   UNK N   1      25.774  17.637   3.494  0.00  0.00    -0.358 N 
HETATM   20  C   UNK N   1      25.542  18.967   3.511  0.00  0.00     0.241 C 
HETATM   21  O   UNK N   1      24.400  19.388   3.393  0.00  0.00    -0.269 OA
HETATM   22  H   UNK N   1      26.700  17.313   3.565  0.00  0.00     0.162 HD
BRANCH  20  23
HETATM   23  C   UNK N   1      26.638  19.951   3.677  0.00  0.00     0.075 C 
HETATM   24  C   UNK N   1      27.511  20.173   4.684  0.00  0.00     0.018 C 
BRANCH  24  25
HETATM   25  C   UNK N   1      27.736  19.511   5.991  0.00  0.00    -0.021 A 
HETATM   26  C   UNK N   1      28.339  18.251   5.986  0.00  0.00     0.014 A 
HETATM   27  C   UNK N   1      28.570  17.574   7.183  0.00  0.00     0.018 A 
HETATM   28  C   UNK N   1      28.189  18.170   8.386  0.00  0.00     0.087 A 
HETATM   29  N   UNK N   1      27.599  19.394   8.382  0.00  0.00    -0.374 N 
HETATM   30  C   UNK N   1      27.368  20.065   7.221  0.00  0.00     0.099 A 
ATOM     31  HN  UNK N   1      27.324  19.819   9.267  1.00  0.00     0.164 HD
ENDBRANCH  24  25
ENDBRANCH  20  23
ENDBRANCH  18  19
ENDBRANCH  17  18
ENDBRANCH   1  17
TORSDOF 8
ENDMDL
MODEL 7
REMARK VINA RESULT:      -6.4      2.557      7.288
REMARK  8 active torsions:
REMARK  status: ('A' for Active; 'I' for Inactive)
REMARK    1  A    between atoms: C_4  and  C_7 
REMARK       I    between atoms: C_7  and  N_9 
REMARK    2  A    between atoms: C_12  and  C_15 
REMARK    3  A    between atoms: C_15  and  C_16 
REMARK    4  A    between atoms: C_16  and  C_17 
REMARK    5  A    between atoms: C_17  and  C_18 
REMARK    6  A    between atoms: C_18  and  N_19 
REMARK       I    between atoms: N_19  and  C_20 
REMARK    7  A    between atoms: C_20  and  C_22 
REMARK    8  A    between atoms: C_23  and  C_24 
ROOT
HETATM    1  C   UNK N   1      30.611  19.867  -6.856  0.00  0.00     0.002 C 
ENDROOT
BRANCH   1   2
HETATM    2  C   UNK N   1      29.293  19.552  -7.548  0.00  0.00     0.005 C 
BRANCH   2   3
HETATM    3  C   UNK N   1      28.707  20.836  -8.102  0.00  0.00    -0.012 C 
HETATM    4  C   UNK N   1      27.277  20.629  -8.612  0.00  0.00     0.024 C 
HETATM    5  C   UNK N   1      26.747  21.947  -9.182  0.00  0.00     0.126 C 
HETATM    6  N   UNK N   1      26.882  22.986  -8.178  0.00  0.00    -0.348 N 
HETATM    7  C   UNK N   1      25.787  23.724  -7.797  0.00  0.00     0.253 C 
HETATM    8  C   UNK N   1      28.204  23.209  -7.634  0.00  0.00     0.126 C 
HETATM    9  O   UNK N   1      24.720  23.541  -8.366  0.00  0.00    -0.267 OA
HETATM   10  C   UNK N   1      28.736  21.918  -7.033  0.00  0.00     0.024 C 
BRANCH   7  11
HETATM   11  C   UNK N   1      25.836  24.759  -6.710  0.00  0.00     0.032 A 
HETATM   12  C   UNK N   1      25.743  26.119  -7.052  0.00  0.00     0.017 A 
HETATM   13  C   UNK N   1      25.766  27.106  -6.062  0.00  0.00     0.001 A 
HETATM   14  C   UNK N   1      25.860  26.747  -4.716  0.00  0.00     0.000 A 
HETATM   15  C   UNK N   1      25.937  25.400  -4.359  0.00  0.00     0.001 A 
HETATM   16  C   UNK N   1      25.928  24.417  -5.351  0.00  0.00     0.017 A 
ENDBRANCH   7  11
ENDBRANCH   2   3
ENDBRANCH   1   2
BRANCH   1  17
HETATM   17  C   UNK N   1      31.794  19.656  -7.792  0.00  0.00     0.020 C 
BRANCH  17  18
HETATM   18  C   UNK N   1      33.102  19.647  -7.022  0.00  0.00     0.123 C 
BRANCH  18  19
HETATM   19  N   UNK N   1      32.849  19.857  -5.623  0.00  0.00    -0.358 N 
HETATM   20  C   UNK N   1      33.731  20.497  -4.826  0.00  0.00     0.241 C 
HETATM   21  O   UNK N   1      34.794  20.889  -5.285  0.00  0.00    -0.269 OA
HETATM   22  H   UNK N   1      32.008  19.524  -5.235  0.00  0.00     0.162 HD
BRANCH  20  23
HETATM   23  C   UNK N   1      33.450  20.752  -3.393  0.00  0.00     0.075 C 
HETATM   24  C   UNK N   1      32.574  21.572  -2.774  0.00  0.00     0.018 C 
BRANCH  24  25
HETATM   25  C   UNK N   1      31.538  22.507  -3.275  0.00  0.00    -0.021 A 
HETATM   26  C   UNK N   1      30.324  22.561  -2.585  0.00  0.00     0.014 A 
HETATM   27  C   UNK N   1      29.307  23.416  -3.011  0.00  0.00     0.018 A 
HETATM   28  C   UNK N   1      29.516  24.213  -4.137  0.00  0.00     0.087 A 
HETATM   29  N   UNK N   1      30.698  24.151  -4.805  0.00  0.00    -0.374 N 
HETATM   30  C   UNK N   1      31.698  23.322  -4.399  0.00  0.00     0.099 A 
ATOM     31  HN  UNK N   1      30.839  24.738  -5.627  1.00  0.00     0.164 HD
ENDBRANCH  24  25
ENDBRANCH  20  23
ENDBRANCH  18  19
ENDBRANCH  17  18
ENDBRANCH   1  17
TORSDOF 8
ENDMDL
MODEL 8
REMARK VINA RESULT:      -6.4      2.135      3.729
REMARK  8 active torsions:
REMARK  status: ('A' for Active; 'I' for Inactive)
REMARK    1  A    between atoms: C_4  and  C_7 
REMARK       I    between atoms: C_7  and  N_9 
REMARK    2  A    between atoms: C_12  and  C_15 
REMARK    3  A    between atoms: C_15  and  C_16 
REMARK    4  A    between atoms: C_16  and  C_17 
REMARK    5  A    between atoms: C_17  and  C_18 
REMARK    6  A    between atoms: C_18  and  N_19 
REMARK       I    between atoms: N_19  and  C_20 
REMARK    7  A    between atoms: C_20  and  C_22 
REMARK    8  A    between atoms: C_23  and  C_24 
ROOT
HETATM    1  C   UNK N   1      26.927  26.806  -7.858  0.00  0.00     0.002 C 
ENDROOT
BRANCH   1   2
HETATM    2  C   UNK N   1      28.027  27.245  -8.813  0.00  0.00     0.005 C 
BRANCH   2   3
HETATM    3  C   UNK N   1      29.368  26.807  -8.258  0.00  0.00    -0.012 C 
HETATM    4  C   UNK N   1      29.978  27.876  -7.347  0.00  0.00     0.024 C 
HETATM    5  C   UNK N   1      31.338  27.393  -6.837  0.00  0.00     0.126 C 
HETATM    6  N   UNK N   1      31.176  26.093  -6.213  0.00  0.00    -0.348 N 
HETATM    7  C   UNK N   1      31.603  25.889  -4.923  0.00  0.00     0.253 C 
HETATM    8  C   UNK N   1      30.576  25.047  -7.013  0.00  0.00     0.126 C 
HETATM    9  O   UNK N   1      32.183  26.793  -4.339  0.00  0.00    -0.267 OA
HETATM   10  C   UNK N   1      29.209  25.496  -7.502  0.00  0.00     0.024 C 
BRANCH   7  11
HETATM   11  C   UNK N   1      31.396  24.596  -4.186  0.00  0.00     0.032 A 
HETATM   12  C   UNK N   1      32.284  23.530  -4.408  0.00  0.00     0.017 A 
HETATM   13  C   UNK N   1      32.131  22.320  -3.725  0.00  0.00     0.001 A 
HETATM   14  C   UNK N   1      31.100  22.166  -2.795  0.00  0.00     0.000 A 
HETATM   15  C   UNK N   1      30.219  23.221  -2.552  0.00  0.00     0.001 A 
HETATM   16  C   UNK N   1      30.367  24.423  -3.247  0.00  0.00     0.017 A 
ENDBRANCH   7  11
ENDBRANCH   2   3
ENDBRANCH   1   2
BRANCH   1  17
HETATM   17  C   UNK N   1      25.821  26.059  -8.592  0.00  0.00     0.020 C 
BRANCH  17  18
HETATM   18  C   UNK N   1      25.541  24.719  -7.935  0.00  0.00     0.123 C 
BRANCH  18  19
HETATM   19  N   UNK N   1      25.657  24.839  -6.507  0.00  0.00    -0.358 N 
HETATM   20  C   UNK N   1      26.421  23.997  -5.780  0.00  0.00     0.241 C 
HETATM   21  O   UNK N   1      27.015  23.082  -6.332  0.00  0.00    -0.269 OA
HETATM   22  H   UNK N   1      25.165  25.557  -6.047  0.00  0.00     0.162 HD
BRANCH  20  23
HETATM   23  C   UNK N   1      26.576  24.149  -4.313  0.00  0.00     0.075 C 
HETATM   24  C   UNK N   1      26.727  25.236  -3.527  0.00  0.00     0.018 C 
BRANCH  24  25
HETATM   25  C   UNK N   1      26.767  26.691  -3.809  0.00  0.00    -0.021 A 
HETATM   26  C   UNK N   1      28.000  27.252  -4.153  0.00  0.00     0.014 A 
HETATM   27  C   UNK N   1      28.104  28.616  -4.423  0.00  0.00     0.018 A 
HETATM   28  C   UNK N   1      26.962  29.415  -4.343  0.00  0.00     0.087 A 
HETATM   29  N   UNK N   1      25.768  28.862  -4.004  0.00  0.00    -0.374 N 
HETATM   30  C   UNK N   1      25.653  27.533  -3.738  0.00  0.00     0.099 A 
ATOM     31  HN  UNK N   1      24.940  29.456  -3.947  1.00  0.00     0.164 HD
ENDBRANCH  24  25
ENDBRANCH  20  23
ENDBRANCH  18  19
ENDBRANCH  17  18
ENDBRANCH   1  17
TORSDOF 8
ENDMDL
MODEL 9
REMARK VINA RESULT:      -6.3     15.886     19.477
REMARK  8 active torsions:
REMARK  status: ('A' for Active; 'I' for Inactive)
REMARK    1  A    between atoms: C_4  and  C_7 
REMARK       I    between atoms: C_7  and  N_9 
REMARK    2  A    between atoms: C_12  and  C_15 
REMARK    3  A    between atoms: C_15  and  C_16 
REMARK    4  A    between atoms: C_16  and  C_17 
REMARK    5  A    between atoms: C_17  and  C_18 
REMARK    6  A    between atoms: C_18  and  N_19 
REMARK       I    between atoms: N_19  and  C_20 
REMARK    7  A    between atoms: C_20  and  C_22 
REMARK    8  A    between atoms: C_23  and  C_24 
ROOT
HETATM    1  C   UNK N   1      36.418  14.079   8.188  0.00  0.00     0.002 C 
ENDROOT
BRANCH   1   2
HETATM    2  C   UNK N   1      36.065  14.860   9.445  0.00  0.00     0.005 C 
BRANCH   2   3
HETATM    3  C   UNK N   1      35.821  13.886  10.581  0.00  0.00    -0.012 C 
HETATM    4  C   UNK N   1      37.039  12.992  10.830  0.00  0.00     0.024 C 
HETATM    5  C   UNK N   1      36.727  12.014  11.966  0.00  0.00     0.126 C 
HETATM    6  N   UNK N   1      36.284  12.763  13.127  0.00  0.00    -0.348 N 
HETATM    7  C   UNK N   1      36.916  12.599  14.336  0.00  0.00     0.253 C 
HETATM    8  C   UNK N   1      35.155  13.650  12.948  0.00  0.00     0.126 C 
HETATM    9  O   UNK N   1      37.805  11.765  14.434  0.00  0.00    -0.267 OA
HETATM   10  C   UNK N   1      35.458  14.651  11.845  0.00  0.00     0.024 C 
BRANCH   7  11
HETATM   11  C   UNK N   1      36.564  13.397  15.559  0.00  0.00     0.032 A 
HETATM   12  C   UNK N   1      37.218  14.619  15.791  0.00  0.00     0.017 A 
HETATM   13  C   UNK N   1      36.899  15.397  16.910  0.00  0.00     0.001 A 
HETATM   14  C   UNK N   1      35.909  14.973  17.799  0.00  0.00     0.000 A 
HETATM   15  C   UNK N   1      35.241  13.769  17.573  0.00  0.00     0.001 A 
HETATM   16  C   UNK N   1      35.570  12.989  16.463  0.00  0.00     0.017 A 
ENDBRANCH   7  11
ENDBRANCH   2   3
ENDBRANCH   1   2
BRANCH   1  17
HETATM   17  C   UNK N   1      35.686  14.628   6.970  0.00  0.00     0.020 C 
BRANCH  17  18
HETATM   18  C   UNK N   1      34.374  15.278   7.371  0.00  0.00     0.123 C 
BRANCH  18  19
HETATM   19  N   UNK N   1      33.723  15.822   6.211  0.00  0.00    -0.358 N 
HETATM   20  C   UNK N   1      33.800  17.133   5.898  0.00  0.00     0.241 C 
HETATM   21  O   UNK N   1      34.412  17.899   6.629  0.00  0.00    -0.269 OA
HETATM   22  H   UNK N   1      33.206  15.221   5.628  0.00  0.00     0.162 HD
BRANCH  20  23
HETATM   23  C   UNK N   1      33.165  17.686   4.678  0.00  0.00     0.075 C 
HETATM   24  C   UNK N   1      31.904  17.614   4.202  0.00  0.00     0.018 C 
BRANCH  24  25
HETATM   25  C   UNK N   1      30.662  16.988   4.718  0.00  0.00    -0.021 A 
HETATM   26  C   UNK N   1      30.307  17.247   6.044  0.00  0.00     0.014 A 
HETATM   27  C   UNK N   1      29.155  16.681   6.590  0.00  0.00     0.018 A 
HETATM   28  C   UNK N   1      28.363  15.851   5.796  0.00  0.00     0.087 A 
HETATM   29  N   UNK N   1      28.718  15.602   4.508  0.00  0.00    -0.374 N 
HETATM   30  C   UNK N   1      29.839  16.147   3.964  0.00  0.00     0.099 A 
ATOM     31  HN  UNK N   1      28.131  14.993   3.937  1.00  0.00     0.164 HD
ENDBRANCH  24  25
ENDBRANCH  20  23
ENDBRANCH  18  19
ENDBRANCH  17  18
ENDBRANCH   1  17
TORSDOF 8
ENDMDL
