MODEL 1
REMARK VINA RESULT:      -5.6      0.000      0.000
REMARK  5 active torsions:
REMARK  status: ('A' for Active; 'I' for Inactive)
REMARK    1  A    between atoms: C_3  and  N_17 
REMARK    2  A    between atoms: C_9  and  N_8 
REMARK    3  A    between atoms: C_11  and  O_16 
REMARK    4  A    between atoms: C_12  and  C_14 
REMARK    5  A    between atoms: C_14  and  O_15 
ROOT
HETATM    1  C   UNK N   1      34.392  14.211  10.448  0.00  0.00     0.126 A 
HETATM    2  C   UNK N   1      35.143  13.650  11.479  0.00  0.00     0.093 A 
HETATM    3  C   UNK N   1      36.070  14.448  12.149  0.00  0.00     0.126 A 
HETATM    4  N   UNK N   1      36.221  15.746  11.789  0.00  0.00    -0.293 N 
ATOM      5  HN  UNK N   1      36.895  16.329  12.286  1.00  0.00     0.172 HD
HETATM    6  C   UNK N   1      35.486  16.291  10.770  0.00  0.00     0.330 A 
HETATM    7  O   UNK N   1      35.683  17.455  10.458  0.00  0.00    -0.246 OA
HETATM    8  N   UNK N   1      34.548  15.522  10.095  0.00  0.00    -0.281 N 
HETATM    9 Cl   UNK N   1      34.931  11.956  11.890  0.00  0.00    -0.079 Cl
ENDROOT
BRANCH   8  10
HETATM   10  C   UNK N   1      33.813  16.015   8.911  0.00  0.00     0.235 C 
HETATM   11  C   UNK N   1      32.422  15.455   8.712  0.00  0.00     0.088 C 
HETATM   12  C   UNK N   1      32.197  15.974   7.342  0.00  0.00     0.153 C 
HETATM   13  C   UNK N   1      33.536  15.664   6.710  0.00  0.00     0.176 C 
HETATM   14  O   UNK N   1      34.525  15.828   7.704  0.00  0.00    -0.356 OA
BRANCH  12  15
HETATM   15  O   UNK N   1      31.155  15.302   6.705  0.00  0.00    -0.393 OA
HETATM   16  H   UNK N   1      30.202  15.333   6.883  0.00  0.00     0.210 HD
ENDBRANCH  12  15
BRANCH  13  17
HETATM   17  C   UNK N   1      33.806  16.591   5.533  0.00  0.00     0.198 C 
BRANCH  17  18
HETATM   18  O   UNK N   1      34.147  17.868   5.985  0.00  0.00    -0.398 OA
HETATM   19  H   UNK N   1      33.828  18.669   5.542  0.00  0.00     0.209 HD
ENDBRANCH  17  18
ENDBRANCH  13  17
ENDBRANCH   8  10
BRANCH   3  20
HETATM   20  N   UNK N   1      36.866  13.914  13.182  0.00  0.00    -0.384 N 
HETATM   21  H   UNK N   1      36.465  13.324  13.862  0.00  0.00     0.157 HD
HETATM   22  H   UNK N   1      37.825  14.131  13.226  0.00  0.00     0.157 HD
ENDBRANCH   3  20
TORSDOF 5
ENDMDL
MODEL 2
REMARK VINA RESULT:      -5.6      4.335      6.884
REMARK  5 active torsions:
REMARK  status: ('A' for Active; 'I' for Inactive)
REMARK    1  A    between atoms: C_3  and  N_17 
REMARK    2  A    between atoms: C_9  and  N_8 
REMARK    3  A    between atoms: C_11  and  O_16 
REMARK    4  A    between atoms: C_12  and  C_14 
REMARK    5  A    between atoms: C_14  and  O_15 
ROOT
HETATM    1  C   UNK N   1      32.198  17.079   5.683  0.00  0.00     0.126 A 
HETATM    2  C   UNK N   1      31.506  17.173   4.477  0.00  0.00     0.093 A 
HETATM    3  C   UNK N   1      30.115  17.267   4.505  0.00  0.00     0.126 A 
HETATM    4  N   UNK N   1      29.467  17.266   5.695  0.00  0.00    -0.293 N 
ATOM      5  HN  UNK N   1      28.449  17.342   5.712  1.00  0.00     0.172 HD
HETATM    6  C   UNK N   1      30.151  17.166   6.877  0.00  0.00     0.330 A 
HETATM    7  O   UNK N   1      29.521  17.133   7.922  0.00  0.00    -0.246 OA
HETATM    8  N   UNK N   1      31.537  17.083   6.878  0.00  0.00    -0.281 N 
HETATM    9 Cl   UNK N   1      32.389  17.142   2.960  0.00  0.00    -0.079 Cl
ENDROOT
BRANCH   8  10
HETATM   10  C   UNK N   1      32.323  16.851   8.108  0.00  0.00     0.235 C 
HETATM   11  C   UNK N   1      33.458  17.817   8.364  0.00  0.00     0.088 C 
HETATM   12  C   UNK N   1      34.101  17.075   9.474  0.00  0.00     0.153 C 
HETATM   13  C   UNK N   1      34.047  15.665   8.927  0.00  0.00     0.176 C 
HETATM   14  O   UNK N   1      32.851  15.542   8.185  0.00  0.00    -0.356 OA
BRANCH  12  15
HETATM   15  O   UNK N   1      35.411  17.499   9.684  0.00  0.00    -0.393 OA
HETATM   16  H   UNK N   1      35.758  18.132  10.332  0.00  0.00     0.210 HD
ENDBRANCH  12  15
BRANCH  13  17
HETATM   17  C   UNK N   1      34.079  14.646  10.056  0.00  0.00     0.198 C 
BRANCH  17  18
HETATM   18  O   UNK N   1      33.233  15.039  11.095  0.00  0.00    -0.398 OA
HETATM   19  H   UNK N   1      32.392  14.589  11.268  0.00  0.00     0.209 HD
ENDBRANCH  17  18
ENDBRANCH  13  17
ENDBRANCH   8  10
BRANCH   3  20
HETATM   20  N   UNK N   1      29.375  17.341   3.308  0.00  0.00    -0.384 N 
HETATM   21  H   UNK N   1      29.832  17.509   2.452  0.00  0.00     0.157 HD
HETATM   22  H   UNK N   1      28.398  17.226   3.326  0.00  0.00     0.157 HD
ENDBRANCH   3  20
TORSDOF 5
ENDMDL
MODEL 3
REMARK VINA RESULT:      -5.6     12.116     13.691
REMARK  5 active torsions:
REMARK  status: ('A' for Active; 'I' for Inactive)
REMARK    1  A    between atoms: C_3  and  N_17 
REMARK    2  A    between atoms: C_9  and  N_8 
REMARK    3  A    between atoms: C_11  and  O_16 
REMARK    4  A    between atoms: C_12  and  C_14 
REMARK    5  A    between atoms: C_14  and  O_15 
ROOT
HETATM    1  C   UNK N   1      20.795  15.624   8.749  0.00  0.00     0.126 A 
HETATM    2  C   UNK N   1      20.591  16.838   8.098  0.00  0.00     0.093 A 
HETATM    3  C   UNK N   1      21.281  17.091   6.912  0.00  0.00     0.126 A 
HETATM    4  N   UNK N   1      22.129  16.156   6.418  0.00  0.00    -0.293 N 
ATOM      5  HN  UNK N   1      22.626  16.342   5.546  1.00  0.00     0.172 HD
HETATM    6  C   UNK N   1      22.331  14.967   7.066  0.00  0.00     0.330 A 
HETATM    7  O   UNK N   1      23.133  14.172   6.601  0.00  0.00    -0.246 OA
HETATM    8  N   UNK N   1      21.649  14.686   8.241  0.00  0.00    -0.281 N 
HETATM    9 Cl   UNK N   1      19.503  18.028   8.792  0.00  0.00    -0.079 Cl
ENDROOT
BRANCH   8  10
HETATM   10  C   UNK N   1      21.913  13.477   9.050  0.00  0.00     0.235 C 
HETATM   11  C   UNK N   1      20.839  13.092  10.042  0.00  0.00     0.088 C 
HETATM   12  C   UNK N   1      21.611  12.063  10.778  0.00  0.00     0.153 C 
HETATM   13  C   UNK N   1      22.942  12.770  10.918  0.00  0.00     0.176 C 
HETATM   14  O   UNK N   1      23.140  13.541   9.752  0.00  0.00    -0.356 OA
BRANCH  12  15
HETATM   15  O   UNK N   1      21.040  11.783  12.018  0.00  0.00    -0.393 OA
HETATM   16  H   UNK N   1      20.220  11.308  12.226  0.00  0.00     0.210 HD
ENDBRANCH  12  15
BRANCH  13  17
HETATM   17  C   UNK N   1      24.072  11.765  11.088  0.00  0.00     0.198 C 
BRANCH  17  18
HETATM   18  O   UNK N   1      25.192  12.378  11.653  0.00  0.00    -0.398 OA
HETATM   19  H   UNK N   1      25.129  13.222  12.126  0.00  0.00     0.209 HD
ENDBRANCH  17  18
ENDBRANCH  13  17
ENDBRANCH   8  10
BRANCH   3  20
HETATM   20  N   UNK N   1      21.121  18.316   6.233  0.00  0.00    -0.384 N 
HETATM   21  H   UNK N   1      21.618  19.113   6.526  0.00  0.00     0.157 HD
HETATM   22  H   UNK N   1      20.509  18.375   5.464  0.00  0.00     0.157 HD
ENDBRANCH   3  20
TORSDOF 5
ENDMDL
MODEL 4
REMARK VINA RESULT:      -5.6     12.253     13.351
REMARK  5 active torsions:
REMARK  status: ('A' for Active; 'I' for Inactive)
REMARK    1  A    between atoms: C_3  and  N_17 
REMARK    2  A    between atoms: C_9  and  N_8 
REMARK    3  A    between atoms: C_11  and  O_16 
REMARK    4  A    between atoms: C_12  and  C_14 
REMARK    5  A    between atoms: C_14  and  O_15 
ROOT
HETATM    1  C   UNK N   1      22.416  13.867   8.649  0.00  0.00     0.126 A 
HETATM    2  C   UNK N   1      22.919  12.965   9.584  0.00  0.00     0.093 A 
HETATM    3  C   UNK N   1      22.082  12.515  10.604  0.00  0.00     0.126 A 
HETATM    4  N   UNK N   1      20.802  12.958  10.666  0.00  0.00    -0.293 N 
ATOM      5  HN  UNK N   1      20.191  12.621  11.409  1.00  0.00     0.172 HD
HETATM    6  C   UNK N   1      20.315  13.850   9.749  0.00  0.00     0.330 A 
HETATM    7  O   UNK N   1      19.167  14.249   9.867  0.00  0.00    -0.246 OA
HETATM    8  N   UNK N   1      21.124  14.305   8.716  0.00  0.00    -0.281 N 
HETATM    9 Cl   UNK N   1      24.592  12.441   9.477  0.00  0.00    -0.079 Cl
ENDROOT
BRANCH   8  10
HETATM   10  C   UNK N   1      20.696  15.357   7.770  0.00  0.00     0.235 C 
HETATM   11  C   UNK N   1      20.209  14.879   6.420  0.00  0.00     0.088 C 
HETATM   12  C   UNK N   1      20.166  16.200   5.748  0.00  0.00     0.153 C 
HETATM   13  C   UNK N   1      21.475  16.791   6.225  0.00  0.00     0.176 C 
HETATM   14  O   UNK N   1      21.695  16.332   7.542  0.00  0.00    -0.356 OA
BRANCH  12  15
HETATM   15  O   UNK N   1      20.131  16.069   4.362  0.00  0.00    -0.393 OA
HETATM   16  H   UNK N   1      20.167  16.754   3.677  0.00  0.00     0.210 HD
ENDBRANCH  12  15
BRANCH  13  17
HETATM   17  C   UNK N   1      21.425  18.311   6.193  0.00  0.00     0.198 C 
BRANCH  17  18
HETATM   18  O   UNK N   1      20.836  18.806   7.359  0.00  0.00    -0.398 OA
HETATM   19  H   UNK N   1      21.144  19.623   7.780  0.00  0.00     0.209 HD
ENDBRANCH  17  18
ENDBRANCH  13  17
ENDBRANCH   8  10
BRANCH   3  20
HETATM   20  N   UNK N   1      22.558  11.620  11.583  0.00  0.00    -0.384 N 
HETATM   21  H   UNK N   1      23.497  11.324  11.570  0.00  0.00     0.157 HD
HETATM   22  H   UNK N   1      21.950  11.288  12.283  0.00  0.00     0.157 HD
ENDBRANCH   3  20
TORSDOF 5
ENDMDL
MODEL 5
REMARK VINA RESULT:      -5.6      4.020      6.554
REMARK  5 active torsions:
REMARK  status: ('A' for Active; 'I' for Inactive)
REMARK    1  A    between atoms: C_3  and  N_17 
REMARK    2  A    between atoms: C_9  and  N_8 
REMARK    3  A    between atoms: C_11  and  O_16 
REMARK    4  A    between atoms: C_12  and  C_14 
REMARK    5  A    between atoms: C_14  and  O_15 
ROOT
HETATM    1  C   UNK N   1      31.612  16.976   6.303  0.00  0.00     0.126 A 
HETATM    2  C   UNK N   1      31.198  17.215   4.994  0.00  0.00     0.093 A 
HETATM    3  C   UNK N   1      32.116  17.054   3.957  0.00  0.00     0.126 A 
HETATM    4  N   UNK N   1      33.384  16.667   4.239  0.00  0.00    -0.293 N 
ATOM      5  HN  UNK N   1      34.051  16.543   3.476  1.00  0.00     0.172 HD
HETATM    6  C   UNK N   1      33.788  16.441   5.527  0.00  0.00     0.330 A 
HETATM    7  O   UNK N   1      34.951  16.131   5.734  0.00  0.00    -0.246 OA
HETATM    8  N   UNK N   1      32.891  16.583   6.577  0.00  0.00    -0.281 N 
HETATM    9 Cl   UNK N   1      29.551  17.740   4.683  0.00  0.00    -0.079 Cl
ENDROOT
BRANCH   8  10
HETATM   10  C   UNK N   1      33.296  16.472   7.995  0.00  0.00     0.235 C 
HETATM   11  C   UNK N   1      34.251  17.531   8.498  0.00  0.00     0.088 C 
HETATM   12  C   UNK N   1      34.582  16.894   9.796  0.00  0.00     0.153 C 
HETATM   13  C   UNK N   1      34.768  15.459   9.355  0.00  0.00     0.176 C 
HETATM   14  O   UNK N   1      33.850  15.210   8.312  0.00  0.00    -0.356 OA
BRANCH  12  15
HETATM   15  O   UNK N   1      35.749  17.424  10.343  0.00  0.00    -0.393 OA
HETATM   16  H   UNK N   1      36.221  17.169  11.151  0.00  0.00     0.210 HD
ENDBRANCH  12  15
BRANCH  13  17
HETATM   17  C   UNK N   1      34.526  14.503  10.514  0.00  0.00     0.198 C 
BRANCH  17  18
HETATM   18  O   UNK N   1      33.415  14.906  11.258  0.00  0.00    -0.398 OA
HETATM   19  H   UNK N   1      33.096  14.396  12.018  0.00  0.00     0.209 HD
ENDBRANCH  17  18
ENDBRANCH  13  17
ENDBRANCH   8  10
BRANCH   3  20
HETATM   20  N   UNK N   1      31.744  17.307   2.621  0.00  0.00    -0.384 N 
HETATM   21  H   UNK N   1      30.839  17.079   2.307  0.00  0.00     0.157 HD
HETATM   22  H   UNK N   1      32.391  17.712   2.000  0.00  0.00     0.157 HD
ENDBRANCH   3  20
TORSDOF 5
ENDMDL
MODEL 6
REMARK VINA RESULT:      -5.5      3.343      4.459
REMARK  5 active torsions:
REMARK  status: ('A' for Active; 'I' for Inactive)
REMARK    1  A    between atoms: C_3  and  N_17 
REMARK    2  A    between atoms: C_9  and  N_8 
REMARK    3  A    between atoms: C_11  and  O_16 
REMARK    4  A    between atoms: C_12  and  C_14 
REMARK    5  A    between atoms: C_14  and  O_15 
ROOT
HETATM    1  C   UNK N   1      31.970  15.685   8.682  0.00  0.00     0.126 A 
HETATM    2  C   UNK N   1      33.116  14.898   8.755  0.00  0.00     0.093 A 
HETATM    3  C   UNK N   1      34.364  15.518   8.699  0.00  0.00     0.126 A 
HETATM    4  N   UNK N   1      34.438  16.866   8.578  0.00  0.00    -0.293 N 
ATOM      5  HN  UNK N   1      35.353  17.316   8.545  1.00  0.00     0.172 HD
HETATM    6  C   UNK N   1      33.308  17.635   8.500  0.00  0.00     0.330 A 
HETATM    7  O   UNK N   1      33.425  18.841   8.355  0.00  0.00    -0.246 OA
HETATM    8  N   UNK N   1      32.054  17.044   8.565  0.00  0.00    -0.281 N 
HETATM    9 Cl   UNK N   1      32.969  13.153   8.884  0.00  0.00    -0.079 Cl
ENDROOT
BRANCH   8  10
HETATM   10  C   UNK N   1      30.801  17.803   8.364  0.00  0.00     0.235 C 
HETATM   11  C   UNK N   1      29.804  17.752   9.500  0.00  0.00     0.088 C 
HETATM   12  C   UNK N   1      28.662  18.371   8.786  0.00  0.00     0.153 C 
HETATM   13  C   UNK N   1      28.752  17.655   7.456  0.00  0.00     0.176 C 
HETATM   14  O   UNK N   1      30.119  17.437   7.180  0.00  0.00    -0.356 OA
BRANCH  12  15
HETATM   15  O   UNK N   1      27.454  18.115   9.432  0.00  0.00    -0.393 OA
HETATM   16  H   UNK N   1      26.922  18.697   9.997  0.00  0.00     0.210 HD
ENDBRANCH  12  15
BRANCH  13  17
HETATM   17  C   UNK N   1      28.112  18.485   6.352  0.00  0.00     0.198 C 
BRANCH  17  18
HETATM   18  O   UNK N   1      27.181  19.377   6.887  0.00  0.00    -0.398 OA
HETATM   19  H   UNK N   1      26.560  19.865   6.326  0.00  0.00     0.209 HD
ENDBRANCH  17  18
ENDBRANCH  13  17
ENDBRANCH   8  10
BRANCH   3  20
HETATM   20  N   UNK N   1      35.549  14.756   8.747  0.00  0.00    -0.384 N 
HETATM   21  H   UNK N   1      35.542  13.810   8.471  0.00  0.00     0.157 HD
HETATM   22  H   UNK N   1      36.387  15.169   9.057  0.00  0.00     0.157 HD
ENDBRANCH   3  20
TORSDOF 5
ENDMDL
MODEL 7
REMARK VINA RESULT:      -5.5     16.150     18.550
REMARK  5 active torsions:
REMARK  status: ('A' for Active; 'I' for Inactive)
REMARK    1  A    between atoms: C_3  and  N_17 
REMARK    2  A    between atoms: C_9  and  N_8 
REMARK    3  A    between atoms: C_11  and  O_16 
REMARK    4  A    between atoms: C_12  and  C_14 
REMARK    5  A    between atoms: C_14  and  O_15 
ROOT
HETATM    1  C   UNK N   1      27.128  25.950  -3.882  0.00  0.00     0.126 A 
HETATM    2  C   UNK N   1      26.115  26.818  -4.283  0.00  0.00     0.093 A 
HETATM    3  C   UNK N   1      25.231  26.408  -5.280  0.00  0.00     0.126 A 
HETATM    4  N   UNK N   1      25.372  25.179  -5.835  0.00  0.00    -0.293 N 
ATOM      5  HN  UNK N   1      24.718  24.879  -6.560  1.00  0.00     0.172 HD
HETATM    6  C   UNK N   1      26.373  24.332  -5.443  0.00  0.00     0.330 A 
HETATM    7  O   UNK N   1      26.481  23.250  -5.998  0.00  0.00    -0.246 OA
HETATM    8  N   UNK N   1      27.259  24.712  -4.444  0.00  0.00    -0.281 N 
HETATM    9 Cl   UNK N   1      25.992  28.410  -3.552  0.00  0.00    -0.079 Cl
ENDROOT
BRANCH   8  10
HETATM   10  C   UNK N   1      28.431  23.896  -4.062  0.00  0.00     0.235 C 
HETATM   11  C   UNK N   1      28.553  23.553  -2.594  0.00  0.00     0.088 C 
HETATM   12  C   UNK N   1      29.932  23.012  -2.633  0.00  0.00     0.153 C 
HETATM   13  C   UNK N   1      30.605  24.043  -3.514  0.00  0.00     0.176 C 
HETATM   14  O   UNK N   1      29.658  24.469  -4.470  0.00  0.00    -0.356 OA
BRANCH  12  15
HETATM   15  O   UNK N   1      30.501  22.966  -1.362  0.00  0.00    -0.393 OA
HETATM   16  H   UNK N   1      31.422  22.804  -1.104  0.00  0.00     0.210 HD
ENDBRANCH  12  15
BRANCH  13  17
HETATM   17  C   UNK N   1      31.826  23.450  -4.202  0.00  0.00     0.198 C 
BRANCH  17  18
HETATM   18  O   UNK N   1      32.281  22.326  -3.509  0.00  0.00    -0.398 OA
HETATM   19  H   UNK N   1      31.757  21.513  -3.453  0.00  0.00     0.209 HD
ENDBRANCH  17  18
ENDBRANCH  13  17
ENDBRANCH   8  10
BRANCH   3  20
HETATM   20  N   UNK N   1      24.206  27.264  -5.731  0.00  0.00    -0.384 N 
HETATM   21  H   UNK N   1      24.379  27.901  -6.462  0.00  0.00     0.157 HD
HETATM   22  H   UNK N   1      23.316  27.226  -5.314  0.00  0.00     0.157 HD
ENDBRANCH   3  20
TORSDOF 5
ENDMDL
MODEL 8
REMARK VINA RESULT:      -5.5      5.032      7.179
REMARK  5 active torsions:
REMARK  status: ('A' for Active; 'I' for Inactive)
REMARK    1  A    between atoms: C_3  and  N_17 
REMARK    2  A    between atoms: C_9  and  N_8 
REMARK    3  A    between atoms: C_11  and  O_16 
REMARK    4  A    between atoms: C_12  and  C_14 
REMARK    5  A    between atoms: C_14  and  O_15 
ROOT
HETATM    1  C   UNK N   1      30.018  17.539   6.679  0.00  0.00     0.126 A 
HETATM    2  C   UNK N   1      28.837  17.832   6.002  0.00  0.00     0.093 A 
HETATM    3  C   UNK N   1      27.788  18.427   6.703  0.00  0.00     0.126 A 
HETATM    4  N   UNK N   1      27.938  18.709   8.021  0.00  0.00    -0.293 N 
ATOM      5  HN  UNK N   1      27.171  19.151   8.528  1.00  0.00     0.172 HD
HETATM    6  C   UNK N   1      29.098  18.412   8.684  0.00  0.00     0.330 A 
HETATM    7  O   UNK N   1      29.172  18.650   9.878  0.00  0.00    -0.246 OA
HETATM    8  N   UNK N   1      30.161  17.830   8.006  0.00  0.00    -0.281 N 
HETATM    9 Cl   UNK N   1      28.682  17.423   4.302  0.00  0.00    -0.079 Cl
ENDROOT
BRANCH   8  10
HETATM   10  C   UNK N   1      31.391  17.375   8.689  0.00  0.00     0.235 C 
HETATM   11  C   UNK N   1      32.681  18.023   8.238  0.00  0.00     0.088 C 
HETATM   12  C   UNK N   1      33.615  17.113   8.942  0.00  0.00     0.153 C 
HETATM   13  C   UNK N   1      32.970  15.777   8.643  0.00  0.00     0.176 C 
HETATM   14  O   UNK N   1      31.572  15.974   8.623  0.00  0.00    -0.356 OA
BRANCH  12  15
HETATM   15  O   UNK N   1      34.903  17.195   8.417  0.00  0.00    -0.393 OA
HETATM   16  H   UNK N   1      35.526  17.939   8.426  0.00  0.00     0.210 HD
ENDBRANCH  12  15
BRANCH  13  17
HETATM   17  C   UNK N   1      33.346  14.748   9.700  0.00  0.00     0.198 C 
BRANCH  17  18
HETATM   18  O   UNK N   1      32.816  15.105  10.941  0.00  0.00    -0.398 OA
HETATM   19  H   UNK N   1      33.371  15.179  11.732  0.00  0.00     0.209 HD
ENDBRANCH  17  18
ENDBRANCH  13  17
ENDBRANCH   8  10
BRANCH   3  20
HETATM   20  N   UNK N   1      26.568  18.720   6.061  0.00  0.00    -0.384 N 
HETATM   21  H   UNK N   1      25.886  18.018   5.949  0.00  0.00     0.157 HD
HETATM   22  H   UNK N   1      26.396  19.628   5.723  0.00  0.00     0.157 HD
ENDBRANCH   3  20
TORSDOF 5
ENDMDL
MODEL 9
REMARK VINA RESULT:      -5.4     18.484     19.917
REMARK  5 active torsions:
REMARK  status: ('A' for Active; 'I' for Inactive)
REMARK    1  A    between atoms: C_3  and  N_17 
REMARK    2  A    between atoms: C_9  and  N_8 
REMARK    3  A    between atoms: C_11  and  O_16 
REMARK    4  A    between atoms: C_12  and  C_14 
REMARK    5  A    between atoms: C_14  and  O_15 
ROOT
HETATM    1  C   UNK N   1      27.015  26.209  -5.704  0.00  0.00     0.126 A 
HETATM    2  C   UNK N   1      26.978  27.439  -5.050  0.00  0.00     0.093 A 
HETATM    3  C   UNK N   1      26.717  27.466  -3.680  0.00  0.00     0.126 A 
HETATM    4  N   UNK N   1      26.507  26.304  -3.015  0.00  0.00    -0.293 N 
ATOM      5  HN  UNK N   1      26.323  26.327  -2.012  1.00  0.00     0.172 HD
HETATM    6  C   UNK N   1      26.537  25.098  -3.664  0.00  0.00     0.330 A 
HETATM    7  O   UNK N   1      26.305  24.082  -3.029  0.00  0.00    -0.246 OA
HETATM    8  N   UNK N   1      26.806  25.043  -5.025  0.00  0.00    -0.281 N 
HETATM    9 Cl   UNK N   1      27.230  28.919  -5.961  0.00  0.00    -0.079 Cl
ENDROOT
BRANCH   8  10
HETATM   10  C   UNK N   1      26.732  23.788  -5.803  0.00  0.00     0.235 C 
HETATM   11  C   UNK N   1      27.789  23.605  -6.870  0.00  0.00     0.088 C 
HETATM   12  C   UNK N   1      27.188  22.427  -7.541  0.00  0.00     0.153 C 
HETATM   13  C   UNK N   1      25.736  22.852  -7.586  0.00  0.00     0.176 C 
HETATM   14  O   UNK N   1      25.471  23.592  -6.413  0.00  0.00    -0.356 OA
BRANCH  12  15
HETATM   15  O   UNK N   1      27.714  22.241  -8.817  0.00  0.00    -0.393 OA
HETATM   16  H   UNK N   1      27.508  22.707  -9.643  0.00  0.00     0.210 HD
ENDBRANCH  12  15
BRANCH  13  17
HETATM   17  C   UNK N   1      24.821  21.638  -7.665  0.00  0.00     0.198 C 
BRANCH  17  18
HETATM   18  O   UNK N   1      23.543  22.014  -8.083  0.00  0.00    -0.398 OA
HETATM   19  H   UNK N   1      23.099  22.799  -7.727  0.00  0.00     0.209 HD
ENDBRANCH  17  18
ENDBRANCH  13  17
ENDBRANCH   8  10
BRANCH   3  20
HETATM   20  N   UNK N   1      26.649  28.690  -2.985  0.00  0.00    -0.384 N 
HETATM   21  H   UNK N   1      27.393  29.333  -3.039  0.00  0.00     0.157 HD
HETATM   22  H   UNK N   1      25.856  28.904  -2.443  0.00  0.00     0.157 HD
ENDBRANCH   3  20
TORSDOF 5
ENDMDL
