REMARK  2 active torsions:
REMARK  status: ('A' for Active; 'I' for Inactive)
REMARK    1  A    between atoms: C_2  and  N_3 
REMARK    2  A    between atoms: C_7  and  C_10 
REMARK       I    between atoms: C_19  and  N_22 
ROOT
HETATM    1  N   UNK N   1      -0.218  -2.283   0.000  0.00  0.00    -0.299 N 
HETATM    2  C   UNK N   1       1.037  -1.691   0.000  0.00  0.00     0.138 A 
HETATM    3  C   UNK N   1       1.155  -0.287  -0.000  0.00  0.00     0.033 A 
HETATM    4  C   UNK N   1       0.019   0.500  -0.000  0.00  0.00     0.036 A 
HETATM    5  C   UNK N   1      -1.242  -0.071   0.000  0.00  0.00     0.061 A 
HETATM    6  C   UNK N   1      -1.355  -1.479   0.000  0.00  0.00     0.261 A 
HETATM    7  O   UNK N   1      -2.463  -1.995   0.000  0.00  0.00    -0.267 OA
HETATM    8  C   UNK N   1       2.430   0.295  -0.000  0.00  0.00     0.036 A 
HETATM    9  N   UNK N   1       3.527  -0.500  -0.000  0.00  0.00    -0.195 N 
ATOM     10  HN  UNK N   1       4.455  -0.077  -0.000  1.00  0.00     0.184 HD
HETATM   11  C   UNK N   1       3.409  -1.852   0.000  0.00  0.00     0.677 A 
HETATM   12  N   UNK N   1       2.179  -2.434   0.000  0.00  0.00    -0.176 N 
ATOM     13  HN  UNK N   1       2.110  -3.451   0.000  1.00  0.00     0.186 HD
HETATM   14  N   UNK N   1       4.566  -2.654   0.000  0.00  0.00    -0.234 N 
HETATM   15  C   UNK N   1       2.607   1.779  -0.000  0.00  0.00     0.070 C 
HETATM   16  H   UNK N   1       4.485  -3.636   0.000  0.00  0.00     0.174 HD
HETATM   17  H   UNK N   1       5.456  -2.234   0.000  0.00  0.00     0.174 HD
ENDROOT
BRANCH   5  18
HETATM   18  C   UNK N   1      -2.402   0.848   0.000  0.00  0.00     0.065 A 
HETATM   19  C   UNK N   1      -3.741   0.514   0.000  0.00  0.00     0.050 A 
HETATM   20  C   UNK N   1      -4.398   1.733   0.000  0.00  0.00     0.109 A 
HETATM   21  N   UNK N   1      -3.482   2.721  -0.000  0.00  0.00    -0.311 N 
HETATM   22  N   UNK N   1      -2.275   2.186  -0.000  0.00  0.00    -0.300 N 
ATOM     23  HN  UNK N   1      -3.687   3.720  -0.000  1.00  0.00     0.186 HD
HETATM   24  H   UNK N   1      -1.425   2.683  -0.000  0.00  0.00     0.187 HD
ENDBRANCH   5  18
BRANCH   1  25
HETATM   25  C   UNK N   1      -0.458  -3.748   0.000  0.00  0.00     0.129 C 
HETATM   26  C   UNK N   1       0.748  -4.675  -0.000  0.00  0.00     0.027 C 
ENDBRANCH   1  25
TORSDOF 2
