MODEL 1
REMARK VINA RESULT:      -8.2      0.000      0.000
REMARK  6 active torsions:
REMARK  status: ('A' for Active; 'I' for Inactive)
REMARK    1  A    between atoms: C_4  and  C_2 
REMARK    2  A    between atoms: C_4  and  C_21 
REMARK    3  A    between atoms: C_6  and  C_10 
REMARK       I    between atoms: C_21  and  N_23 
REMARK    4  A    between atoms: C_24  and  N_23 
REMARK    5  A    between atoms: C_29  and  C_30 
REMARK    6  A    between atoms: C_29  and  O_32 
ROOT
HETATM    1  C   UNK N   1      35.408  12.835   9.592  0.00  0.00     0.177 A 
HETATM    2  C   UNK N   1      36.442  12.840  10.740  0.00  0.00     0.112 A 
HETATM    3  C   UNK N   1      35.546  12.592  11.897  0.00  0.00     0.063 A 
HETATM    4  N   UNK N   1      34.341  12.449  11.530  0.00  0.00    -0.267 N 
ATOM      5  HN  UNK N   1      33.562  12.293  12.170  1.00  0.00     0.194 HD
HETATM    6  O   UNK N   1      34.217  12.527  10.226  0.00  0.00    -0.258 OA
ENDROOT
BRANCH   1   7
HETATM    7  C   UNK N   1      35.694  11.774   8.503  0.00  0.00     0.025 C 
HETATM    8  C   UNK N   1      34.494  10.890   8.211  0.00  0.00     0.013 C 
HETATM    9  C   UNK N   1      36.907  10.904   8.784  0.00  0.00     0.013 C 
ENDBRANCH   1   7
BRANCH   1  10
HETATM   10  C   UNK N   1      35.377  14.227   8.991  0.00  0.00     0.256 C 
HETATM   11  O   UNK N   1      36.419  14.839   8.800  0.00  0.00    -0.270 OA
HETATM   12  N   UNK N   1      34.172  14.780   8.676  0.00  0.00    -0.348 N 
HETATM   13  H   UNK N   1      33.383  14.196   8.747  0.00  0.00     0.163 HD
BRANCH  12  14
HETATM   14  C   UNK N   1      33.941  16.146   8.247  0.00  0.00     0.159 C 
HETATM   15  C   UNK N   1      34.561  17.190   9.157  0.00  0.00     0.141 C 
HETATM   16  C   UNK N   1      34.722  18.270   8.168  0.00  0.00     0.263 C 
HETATM   17  O   UNK N   1      35.036  19.408   8.472  0.00  0.00    -0.265 OA
HETATM   18  O   UNK N   1      34.545  17.891   6.893  0.00  0.00    -0.279 OA
HETATM   19  C   UNK N   1      34.210  16.564   6.780  0.00  0.00     0.218 C 
BRANCH  19  20
HETATM   20  C   UNK N   1      32.964  16.423   5.918  0.00  0.00     0.293 C 
HETATM   21  F   UNK N   1      32.400  17.655   5.648  0.00  0.00    -0.250 F 
ENDBRANCH  19  20
BRANCH  19  22
HETATM   22  O   UNK N   1      35.276  15.875   6.199  0.00  0.00    -0.361 OA
HETATM   23  H   UNK N   1      36.233  15.735   6.276  0.00  0.00     0.213 HD
ENDBRANCH  19  22
ENDBRANCH  12  14
ENDBRANCH   1  10
BRANCH   3  24
HETATM   24  C   UNK N   1      35.856  13.044  13.262  0.00  0.00     0.068 A 
HETATM   25  C   UNK N   1      35.495  12.239  14.362  0.00  0.00     0.003 A 
HETATM   26  C   UNK N   1      34.843  11.006  14.189  0.00  0.00     0.014 A 
HETATM   27  C   UNK N   1      35.842  12.660  15.662  0.00  0.00    -0.022 A 
HETATM   28  C   UNK N   1      34.543  10.204  15.290  0.00  0.00     0.001 A 
HETATM   29  C   UNK N   1      34.885  10.628  16.576  0.00  0.00     0.001 A 
HETATM   30  C   UNK N   1      35.531  11.854  16.763  0.00  0.00     0.012 A 
HETATM   31  C   UNK N   1      36.515  13.866  15.838  0.00  0.00     0.029 A 
HETATM   32  C   UNK N   1      36.858  14.631  14.720  0.00  0.00     0.089 A 
HETATM   33  N   UNK N   1      36.541  14.201  13.466  0.00  0.00    -0.364 N 
ATOM     34  HN  UNK N   1      36.824  14.760  12.660  1.00  0.00     0.165 HD
ENDBRANCH   3  24
TORSDOF 6
ENDMDL
MODEL 2
REMARK VINA RESULT:      -8.0      3.660      8.383
REMARK  6 active torsions:
REMARK  status: ('A' for Active; 'I' for Inactive)
REMARK    1  A    between atoms: C_4  and  C_2 
REMARK    2  A    between atoms: C_4  and  C_21 
REMARK    3  A    between atoms: C_6  and  C_10 
REMARK       I    between atoms: C_21  and  N_23 
REMARK    4  A    between atoms: C_24  and  N_23 
REMARK    5  A    between atoms: C_29  and  C_30 
REMARK    6  A    between atoms: C_29  and  O_32 
ROOT
HETATM    1  C   UNK N   1      33.999  14.783   8.981  0.00  0.00     0.177 A 
HETATM    2  C   UNK N   1      32.487  14.755   8.660  0.00  0.00     0.112 A 
HETATM    3  C   UNK N   1      32.261  16.189   8.351  0.00  0.00     0.063 A 
HETATM    4  N   UNK N   1      33.334  16.858   8.434  0.00  0.00    -0.267 N 
ATOM      5  HN  UNK N   1      33.394  17.865   8.283  1.00  0.00     0.194 HD
HETATM    6  O   UNK N   1      34.359  16.098   8.739  0.00  0.00    -0.258 OA
ENDROOT
BRANCH   1   7
HETATM    7  C   UNK N   1      34.843  13.850   8.083  0.00  0.00     0.025 C 
HETATM    8  C   UNK N   1      35.712  14.609   7.094  0.00  0.00     0.013 C 
HETATM    9  C   UNK N   1      34.034  12.800   7.341  0.00  0.00     0.013 C 
ENDBRANCH   1   7
BRANCH   1  10
HETATM   10  C   UNK N   1      34.168  14.419  10.444  0.00  0.00     0.256 C 
HETATM   11  O   UNK N   1      33.766  15.175  11.317  0.00  0.00    -0.270 OA
HETATM   12  N   UNK N   1      34.777  13.243  10.761  0.00  0.00    -0.348 N 
HETATM   13  H   UNK N   1      34.975  12.629  10.018  0.00  0.00     0.163 HD
BRANCH  12  14
HETATM   14  C   UNK N   1      35.163  12.809  12.090  0.00  0.00     0.159 C 
HETATM   15  C   UNK N   1      35.037  11.313  12.310  0.00  0.00     0.141 C 
HETATM   16  C   UNK N   1      36.052  11.164  13.368  0.00  0.00     0.263 C 
HETATM   17  O   UNK N   1      36.200  10.135  14.007  0.00  0.00    -0.265 OA
HETATM   18  O   UNK N   1      36.839  12.236  13.542  0.00  0.00    -0.279 OA
HETATM   19  C   UNK N   1      36.504  13.276  12.710  0.00  0.00     0.218 C 
BRANCH  19  20
HETATM   20  C   UNK N   1      36.334  14.549  13.525  0.00  0.00     0.293 C 
HETATM   21  F   UNK N   1      36.787  14.380  14.819  0.00  0.00    -0.250 F 
ENDBRANCH  19  20
BRANCH  19  22
HETATM   22  O   UNK N   1      37.517  13.443  11.764  0.00  0.00    -0.361 OA
HETATM   23  H   UNK N   1      38.323  13.027  11.419  0.00  0.00     0.213 HD
ENDBRANCH  19  22
ENDBRANCH  12  14
ENDBRANCH   1  10
BRANCH   3  24
HETATM   24  C   UNK N   1      30.959  16.851   8.529  0.00  0.00     0.068 A 
HETATM   25  C   UNK N   1      30.243  17.294   7.399  0.00  0.00     0.003 A 
HETATM   26  C   UNK N   1      30.740  17.119   6.096  0.00  0.00     0.014 A 
HETATM   27  C   UNK N   1      28.974  17.882   7.580  0.00  0.00    -0.022 A 
HETATM   28  C   UNK N   1      29.989  17.521   4.993  0.00  0.00     0.001 A 
HETATM   29  C   UNK N   1      28.735  18.108   5.177  0.00  0.00     0.001 A 
HETATM   30  C   UNK N   1      28.228  18.290   6.468  0.00  0.00     0.012 A 
HETATM   31  C   UNK N   1      28.462  18.032   8.866  0.00  0.00     0.029 A 
HETATM   32  C   UNK N   1      29.203  17.573   9.959  0.00  0.00     0.089 A 
HETATM   33  N   UNK N   1      30.417  16.981   9.770  0.00  0.00    -0.364 N 
ATOM     34  HN  UNK N   1      30.931  16.629  10.577  1.00  0.00     0.165 HD
ENDBRANCH   3  24
TORSDOF 6
ENDMDL
MODEL 3
REMARK VINA RESULT:      -8.0      3.003      8.377
REMARK  6 active torsions:
REMARK  status: ('A' for Active; 'I' for Inactive)
REMARK    1  A    between atoms: C_4  and  C_2 
REMARK    2  A    between atoms: C_4  and  C_21 
REMARK    3  A    between atoms: C_6  and  C_10 
REMARK       I    between atoms: C_21  and  N_23 
REMARK    4  A    between atoms: C_24  and  N_23 
REMARK    5  A    between atoms: C_29  and  C_30 
REMARK    6  A    between atoms: C_29  and  O_32 
ROOT
HETATM    1  C   UNK N   1      35.495  14.455   9.959  0.00  0.00     0.177 A 
HETATM    2  C   UNK N   1      34.284  14.327   9.008  0.00  0.00     0.112 A 
HETATM    3  C   UNK N   1      34.141  15.740   8.577  0.00  0.00     0.063 A 
HETATM    4  N   UNK N   1      35.031  16.477   9.098  0.00  0.00    -0.267 N 
ATOM      5  HN  UNK N   1      35.098  17.484   8.951  1.00  0.00     0.194 HD
HETATM    6  O   UNK N   1      35.855  15.788   9.851  0.00  0.00    -0.258 OA
ENDROOT
BRANCH   1   7
HETATM    7  C   UNK N   1      36.697  13.568   9.560  0.00  0.00     0.025 C 
HETATM    8  C   UNK N   1      38.033  14.270   9.736  0.00  0.00     0.013 C 
HETATM    9  C   UNK N   1      36.608  12.996   8.155  0.00  0.00     0.013 C 
ENDBRANCH   1   7
BRANCH   1  10
HETATM   10  C   UNK N   1      35.020  14.118  11.360  0.00  0.00     0.256 C 
HETATM   11  O   UNK N   1      34.183  14.818  11.912  0.00  0.00    -0.270 OA
HETATM   12  N   UNK N   1      35.547  13.030  11.988  0.00  0.00    -0.348 N 
HETATM   13  H   UNK N   1      36.129  12.446  11.452  0.00  0.00     0.163 HD
BRANCH  12  14
HETATM   14  C   UNK N   1      35.334  12.651  13.371  0.00  0.00     0.159 C 
HETATM   15  C   UNK N   1      34.531  11.376  13.544  0.00  0.00     0.141 C 
HETATM   16  C   UNK N   1      35.054  10.967  14.859  0.00  0.00     0.263 C 
HETATM   17  O   UNK N   1      34.572  10.057  15.513  0.00  0.00    -0.265 OA
HETATM   18  O   UNK N   1      36.141  11.642  15.262  0.00  0.00    -0.279 OA
HETATM   19  C   UNK N   1      36.520  12.612  14.367  0.00  0.00     0.218 C 
BRANCH  19  20
HETATM   20  C   UNK N   1      36.689  13.939  15.092  0.00  0.00     0.293 C 
HETATM   21  F   UNK N   1      36.793  14.988  14.199  0.00  0.00    -0.250 F 
ENDBRANCH  19  20
BRANCH  19  22
HETATM   22  O   UNK N   1      37.724  12.233  13.771  0.00  0.00    -0.361 OA
HETATM   23  H   UNK N   1      38.686  12.253  13.901  0.00  0.00     0.213 HD
ENDBRANCH  19  22
ENDBRANCH  12  14
ENDBRANCH   1  10
BRANCH   3  24
HETATM   24  C   UNK N   1      32.862  16.319   8.140  0.00  0.00     0.068 A 
HETATM   25  C   UNK N   1      32.664  16.624   6.777  0.00  0.00     0.003 A 
HETATM   26  C   UNK N   1      33.663  16.386   5.818  0.00  0.00     0.014 A 
HETATM   27  C   UNK N   1      31.416  17.131   6.364  0.00  0.00    -0.022 A 
HETATM   28  C   UNK N   1      33.423  16.648   4.469  0.00  0.00     0.001 A 
HETATM   29  C   UNK N   1      32.187  17.156   4.065  0.00  0.00     0.001 A 
HETATM   30  C   UNK N   1      31.185  17.400   5.010  0.00  0.00     0.012 A 
HETATM   31  C   UNK N   1      30.411  17.341   7.306  0.00  0.00     0.029 A 
HETATM   32  C   UNK N   1      30.648  17.021   8.645  0.00  0.00     0.089 A 
HETATM   33  N   UNK N   1      31.850  16.504   9.030  0.00  0.00    -0.364 N 
ATOM     34  HN  UNK N   1      31.995  16.252  10.007  1.00  0.00     0.165 HD
ENDBRANCH   3  24
TORSDOF 6
ENDMDL
MODEL 4
REMARK VINA RESULT:      -7.9      3.257      5.231
REMARK  6 active torsions:
REMARK  status: ('A' for Active; 'I' for Inactive)
REMARK    1  A    between atoms: C_4  and  C_2 
REMARK    2  A    between atoms: C_4  and  C_21 
REMARK    3  A    between atoms: C_6  and  C_10 
REMARK       I    between atoms: C_21  and  N_23 
REMARK    4  A    between atoms: C_24  and  N_23 
REMARK    5  A    between atoms: C_29  and  C_30 
REMARK    6  A    between atoms: C_29  and  O_32 
ROOT
HETATM    1  C   UNK N   1      35.719  13.419  12.199  0.00  0.00     0.177 A 
HETATM    2  C   UNK N   1      34.989  12.951  13.478  0.00  0.00     0.112 A 
HETATM    3  C   UNK N   1      36.154  12.681  14.357  0.00  0.00     0.063 A 
HETATM    4  N   UNK N   1      37.248  12.947  13.775  0.00  0.00    -0.267 N 
ATOM      5  HN  UNK N   1      38.168  12.811  14.195  1.00  0.00     0.194 HD
HETATM    6  O   UNK N   1      37.054  13.418  12.566  0.00  0.00    -0.258 OA
ENDROOT
BRANCH   1   7
HETATM    7  C   UNK N   1      35.319  14.841  11.740  0.00  0.00     0.025 C 
HETATM    8  C   UNK N   1      34.014  14.865  10.963  0.00  0.00     0.013 C 
HETATM    9  C   UNK N   1      36.393  15.565  10.946  0.00  0.00     0.013 C 
ENDBRANCH   1   7
BRANCH   1  10
HETATM   10  C   UNK N   1      35.439  12.404  11.108  0.00  0.00     0.256 C 
HETATM   11  O   UNK N   1      36.174  12.329  10.133  0.00  0.00    -0.270 OA
HETATM   12  N   UNK N   1      34.356  11.587  11.233  0.00  0.00    -0.348 N 
HETATM   13  H   UNK N   1      33.872  11.619  12.089  0.00  0.00     0.163 HD
BRANCH  12  14
HETATM   14  C   UNK N   1      33.847  10.677  10.225  0.00  0.00     0.159 C 
HETATM   15  C   UNK N   1      33.146   9.458  10.795  0.00  0.00     0.141 C 
HETATM   16  C   UNK N   1      32.256   9.169   9.656  0.00  0.00     0.263 C 
HETATM   17  O   UNK N   1      31.595   8.147   9.571  0.00  0.00    -0.265 OA
HETATM   18  O   UNK N   1      32.188  10.146   8.739  0.00  0.00    -0.279 OA
HETATM   19  C   UNK N   1      33.002  11.209   9.040  0.00  0.00     0.218 C 
BRANCH  19  20
HETATM   20  C   UNK N   1      33.871  11.545   7.837  0.00  0.00     0.293 C 
HETATM   21  F   UNK N   1      34.191  12.889   7.810  0.00  0.00    -0.250 F 
ENDBRANCH  19  20
BRANCH  19  22
HETATM   22  O   UNK N   1      32.209  12.306   9.381  0.00  0.00    -0.361 OA
HETATM   23  H   UNK N   1      31.832  13.124   9.020  0.00  0.00     0.213 HD
ENDBRANCH  19  22
ENDBRANCH  12  14
ENDBRANCH   1  10
BRANCH   3  24
HETATM   24  C   UNK N   1      36.118  11.706  15.458  0.00  0.00     0.068 A 
HETATM   25  C   UNK N   1      35.798  12.138  16.762  0.00  0.00     0.003 A 
HETATM   26  C   UNK N   1      35.510  13.485  17.040  0.00  0.00     0.014 A 
HETATM   27  C   UNK N   1      35.719  11.186  17.798  0.00  0.00    -0.022 A 
HETATM   28  C   UNK N   1      35.146  13.877  18.328  0.00  0.00     0.001 A 
HETATM   29  C   UNK N   1      35.073  12.931  19.353  0.00  0.00     0.001 A 
HETATM   30  C   UNK N   1      35.361  11.588  19.089  0.00  0.00     0.012 A 
HETATM   31  C   UNK N   1      35.975   9.845  17.522  0.00  0.00     0.029 A 
HETATM   32  C   UNK N   1      36.283   9.459  16.214  0.00  0.00     0.089 A 
HETATM   33  N   UNK N   1      36.331  10.385  15.215  0.00  0.00    -0.364 N 
ATOM     34  HN  UNK N   1      36.531  10.081  14.262  1.00  0.00     0.165 HD
ENDBRANCH   3  24
TORSDOF 6
ENDMDL
MODEL 5
REMARK VINA RESULT:      -7.9      2.629      3.902
REMARK  6 active torsions:
REMARK  status: ('A' for Active; 'I' for Inactive)
REMARK    1  A    between atoms: C_4  and  C_2 
REMARK    2  A    between atoms: C_4  and  C_21 
REMARK    3  A    between atoms: C_6  and  C_10 
REMARK       I    between atoms: C_21  and  N_23 
REMARK    4  A    between atoms: C_24  and  N_23 
REMARK    5  A    between atoms: C_29  and  C_30 
REMARK    6  A    between atoms: C_29  and  O_32 
ROOT
HETATM    1  C   UNK N   1      35.687  11.127  12.770  0.00  0.00     0.177 A 
HETATM    2  C   UNK N   1      36.376  11.267  14.147  0.00  0.00     0.112 A 
HETATM    3  C   UNK N   1      35.183  11.329  15.028  0.00  0.00     0.063 A 
HETATM    4  N   UNK N   1      34.108  11.222  14.365  0.00  0.00    -0.267 N 
ATOM      5  HN  UNK N   1      33.175  11.262  14.776  1.00  0.00     0.194 HD
HETATM    6  O   UNK N   1      34.341  11.054  13.085  0.00  0.00    -0.258 OA
ENDROOT
BRANCH   1   7
HETATM    7  C   UNK N   1      36.099   9.854  11.996  0.00  0.00     0.025 C 
HETATM    8  C   UNK N   1      34.998   8.808  11.951  0.00  0.00     0.013 C 
HETATM    9  C   UNK N   1      37.385   9.213  12.489  0.00  0.00     0.013 C 
ENDBRANCH   1   7
BRANCH   1  10
HETATM   10  C   UNK N   1      36.005  12.373  11.966  0.00  0.00     0.256 C 
HETATM   11  O   UNK N   1      36.956  13.078  12.273  0.00  0.00    -0.270 OA
HETATM   12  N   UNK N   1      35.211  12.690  10.905  0.00  0.00    -0.348 N 
HETATM   13  H   UNK N   1      34.535  12.026  10.642  0.00  0.00     0.163 HD
BRANCH  12  14
HETATM   14  C   UNK N   1      35.267  13.913  10.128  0.00  0.00     0.159 C 
HETATM   15  C   UNK N   1      35.012  13.713   8.646  0.00  0.00     0.141 C 
HETATM   16  C   UNK N   1      34.502  15.059   8.331  0.00  0.00     0.263 C 
HETATM   17  O   UNK N   1      34.314  15.448   7.190  0.00  0.00    -0.265 OA
HETATM   18  O   UNK N   1      34.210  15.811   9.403  0.00  0.00    -0.279 OA
HETATM   19  C   UNK N   1      34.487  15.171  10.586  0.00  0.00     0.218 C 
BRANCH  19  20
HETATM   20  C   UNK N   1      35.340  16.072  11.467  0.00  0.00     0.293 C 
HETATM   21  F   UNK N   1      36.648  16.113  11.024  0.00  0.00    -0.250 F 
ENDBRANCH  19  20
BRANCH  19  22
HETATM   22  O   UNK N   1      33.286  14.868  11.229  0.00  0.00    -0.361 OA
HETATM   23  H   UNK N   1      32.723  15.136  11.972  0.00  0.00     0.213 HD
ENDBRANCH  19  22
ENDBRANCH  12  14
ENDBRANCH   1  10
BRANCH   3  24
HETATM   24  C   UNK N   1      35.184  12.010  16.332  0.00  0.00     0.068 A 
HETATM   25  C   UNK N   1      35.211  11.246  17.517  0.00  0.00     0.003 A 
HETATM   26  C   UNK N   1      35.238   9.842  17.487  0.00  0.00     0.014 A 
HETATM   27  C   UNK N   1      35.263  11.912  18.759  0.00  0.00    -0.022 A 
HETATM   28  C   UNK N   1      35.317   9.111  18.673  0.00  0.00     0.001 A 
HETATM   29  C   UNK N   1      35.362   9.775  19.901  0.00  0.00     0.001 A 
HETATM   30  C   UNK N   1      35.333  11.173  19.945  0.00  0.00     0.012 A 
HETATM   31  C   UNK N   1      35.266  13.304  18.795  0.00  0.00     0.029 A 
HETATM   32  C   UNK N   1      35.244  14.022  17.596  0.00  0.00     0.089 A 
HETATM   33  N   UNK N   1      35.222  13.368  16.400  0.00  0.00    -0.364 N 
ATOM     34  HN  UNK N   1      35.233  13.908  15.535  1.00  0.00     0.165 HD
ENDBRANCH   3  24
TORSDOF 6
ENDMDL
MODEL 6
REMARK VINA RESULT:      -7.8      5.336     10.359
REMARK  6 active torsions:
REMARK  status: ('A' for Active; 'I' for Inactive)
REMARK    1  A    between atoms: C_4  and  C_2 
REMARK    2  A    between atoms: C_4  and  C_21 
REMARK    3  A    between atoms: C_6  and  C_10 
REMARK       I    between atoms: C_21  and  N_23 
REMARK    4  A    between atoms: C_24  and  N_23 
REMARK    5  A    between atoms: C_29  and  C_30 
REMARK    6  A    between atoms: C_29  and  O_32 
ROOT
HETATM    1  C   UNK N   1      30.840  15.397   4.205  0.00  0.00     0.177 A 
HETATM    2  C   UNK N   1      29.589  15.941   4.931  0.00  0.00     0.112 A 
HETATM    3  C   UNK N   1      29.023  16.803   3.863  0.00  0.00     0.063 A 
HETATM    4  N   UNK N   1      29.721  16.752   2.806  0.00  0.00    -0.267 N 
ATOM      5  HN  UNK N   1      29.520  17.287   1.961  1.00  0.00     0.194 HD
HETATM    6  O   UNK N   1      30.735  15.929   2.931  0.00  0.00    -0.258 OA
ENDROOT
BRANCH   1   7
HETATM    7  C   UNK N   1      30.882  13.854   4.111  0.00  0.00     0.025 C 
HETATM    8  C   UNK N   1      31.218  13.357   2.715  0.00  0.00     0.013 C 
HETATM    9  C   UNK N   1      29.620  13.165   4.602  0.00  0.00     0.013 C 
ENDBRANCH   1   7
BRANCH   1  10
HETATM   10  C   UNK N   1      32.062  15.925   4.931  0.00  0.00     0.256 C 
HETATM   11  O   UNK N   1      33.113  16.090   4.328  0.00  0.00    -0.270 OA
HETATM   12  N   UNK N   1      31.967  16.202   6.262  0.00  0.00    -0.348 N 
HETATM   13  H   UNK N   1      31.069  16.156   6.662  0.00  0.00     0.163 HD
BRANCH  12  14
HETATM   14  C   UNK N   1      33.061  16.559   7.144  0.00  0.00     0.159 C 
HETATM   15  C   UNK N   1      33.729  17.875   6.796  0.00  0.00     0.141 C 
HETATM   16  C   UNK N   1      34.240  18.219   8.135  0.00  0.00     0.263 C 
HETATM   17  O   UNK N   1      35.015  19.139   8.334  0.00  0.00    -0.265 OA
HETATM   18  O   UNK N   1      33.745  17.469   9.131  0.00  0.00    -0.279 OA
HETATM   19  C   UNK N   1      32.881  16.501   8.682  0.00  0.00     0.218 C 
BRANCH  19  20
HETATM   20  C   UNK N   1      33.291  15.148   9.246  0.00  0.00     0.293 C 
HETATM   21  F   UNK N   1      33.728  15.262  10.551  0.00  0.00    -0.250 F 
ENDBRANCH  19  20
BRANCH  19  22
HETATM   22  O   UNK N   1      31.586  16.821   9.095  0.00  0.00    -0.361 OA
HETATM   23  H   UNK N   1      30.662  16.814   8.800  0.00  0.00     0.213 HD
ENDBRANCH  19  22
ENDBRANCH  12  14
ENDBRANCH   1  10
BRANCH   3  24
HETATM   24  C   UNK N   1      28.185  17.979   4.142  0.00  0.00     0.068 A 
HETATM   25  C   UNK N   1      26.783  17.876   4.040  0.00  0.00     0.003 A 
HETATM   26  C   UNK N   1      26.158  16.670   3.678  0.00  0.00     0.014 A 
HETATM   27  C   UNK N   1      25.989  18.997   4.359  0.00  0.00    -0.022 A 
HETATM   28  C   UNK N   1      24.767  16.581   3.634  0.00  0.00     0.001 A 
HETATM   29  C   UNK N   1      23.985  17.695   3.946  0.00  0.00     0.001 A 
HETATM   30  C   UNK N   1      24.594  18.902   4.306  0.00  0.00     0.012 A 
HETATM   31  C   UNK N   1      26.601  20.186   4.748  0.00  0.00     0.029 A 
HETATM   32  C   UNK N   1      27.994  20.243   4.840  0.00  0.00     0.089 A 
HETATM   33  N   UNK N   1      28.751  19.145   4.556  0.00  0.00    -0.364 N 
ATOM     34  HN  UNK N   1      29.765  19.198   4.656  1.00  0.00     0.165 HD
ENDBRANCH   3  24
TORSDOF 6
ENDMDL
MODEL 7
REMARK VINA RESULT:      -7.7      5.025      9.073
REMARK  6 active torsions:
REMARK  status: ('A' for Active; 'I' for Inactive)
REMARK    1  A    between atoms: C_4  and  C_2 
REMARK    2  A    between atoms: C_4  and  C_21 
REMARK    3  A    between atoms: C_6  and  C_10 
REMARK       I    between atoms: C_21  and  N_23 
REMARK    4  A    between atoms: C_24  and  N_23 
REMARK    5  A    between atoms: C_29  and  C_30 
REMARK    6  A    between atoms: C_29  and  O_32 
ROOT
HETATM    1  C   UNK N   1      31.361  15.254   4.363  0.00  0.00     0.177 A 
HETATM    2  C   UNK N   1      30.143  15.735   5.183  0.00  0.00     0.112 A 
HETATM    3  C   UNK N   1      29.556  16.710   4.230  0.00  0.00     0.063 A 
HETATM    4  N   UNK N   1      30.219  16.762   3.151  0.00  0.00    -0.267 N 
ATOM      5  HN  UNK N   1      29.998  17.385   2.373  1.00  0.00     0.194 HD
HETATM    6  O   UNK N   1      31.223  15.918   3.155  0.00  0.00    -0.258 OA
ENDROOT
BRANCH   1   7
HETATM    7  C   UNK N   1      31.375  13.729   4.107  0.00  0.00     0.025 C 
HETATM    8  C   UNK N   1      31.631  13.377   2.651  0.00  0.00     0.013 C 
HETATM    9  C   UNK N   1      30.131  13.004   4.591  0.00  0.00     0.013 C 
ENDBRANCH   1   7
BRANCH   1  10
HETATM   10  C   UNK N   1      32.614  15.688   5.098  0.00  0.00     0.256 C 
HETATM   11  O   UNK N   1      33.717  15.474   4.614  0.00  0.00    -0.270 OA
HETATM   12  N   UNK N   1      32.486  16.311   6.303  0.00  0.00    -0.348 N 
HETATM   13  H   UNK N   1      31.576  16.554   6.583  0.00  0.00     0.163 HD
BRANCH  12  14
HETATM   14  C   UNK N   1      33.565  16.649   7.212  0.00  0.00     0.159 C 
HETATM   15  C   UNK N   1      34.152  18.029   6.985  0.00  0.00     0.141 C 
HETATM   16  C   UNK N   1      34.651  18.278   8.349  0.00  0.00     0.263 C 
HETATM   17  O   UNK N   1      35.373  19.221   8.630  0.00  0.00    -0.265 OA
HETATM   18  O   UNK N   1      34.208  17.412   9.272  0.00  0.00    -0.279 OA
HETATM   19  C   UNK N   1      33.399  16.440   8.738  0.00  0.00     0.218 C 
BRANCH  19  20
HETATM   20  C   UNK N   1      33.892  15.068   9.175  0.00  0.00     0.293 C 
HETATM   21  F   UNK N   1      34.851  14.581   8.308  0.00  0.00    -0.250 F 
ENDBRANCH  19  20
BRANCH  19  22
HETATM   22  O   UNK N   1      32.092  16.644   9.182  0.00  0.00    -0.361 OA
HETATM   23  H   UNK N   1      31.454  16.355   9.853  0.00  0.00     0.213 HD
ENDBRANCH  19  22
ENDBRANCH  12  14
ENDBRANCH   1  10
BRANCH   3  24
HETATM   24  C   UNK N   1      28.747  17.862   4.659  0.00  0.00     0.068 A 
HETATM   25  C   UNK N   1      28.553  18.105   6.034  0.00  0.00     0.003 A 
HETATM   26  C   UNK N   1      29.117  17.272   7.015  0.00  0.00     0.014 A 
HETATM   27  C   UNK N   1      27.817  19.239   6.431  0.00  0.00    -0.022 A 
HETATM   28  C   UNK N   1      28.953  17.563   8.369  0.00  0.00     0.001 A 
HETATM   29  C   UNK N   1      28.219  18.686   8.758  0.00  0.00     0.001 A 
HETATM   30  C   UNK N   1      27.650  19.522   7.791  0.00  0.00     0.012 A 
HETATM   31  C   UNK N   1      27.280  20.085   5.464  0.00  0.00     0.029 A 
HETATM   32  C   UNK N   1      27.500  19.810   4.112  0.00  0.00     0.089 A 
HETATM   33  N   UNK N   1      28.237  18.725   3.739  0.00  0.00    -0.364 N 
ATOM     34  HN  UNK N   1      28.410  18.556   2.748  1.00  0.00     0.165 HD
ENDBRANCH   3  24
TORSDOF 6
ENDMDL
MODEL 8
REMARK VINA RESULT:      -7.7      3.500      8.134
REMARK  6 active torsions:
REMARK  status: ('A' for Active; 'I' for Inactive)
REMARK    1  A    between atoms: C_4  and  C_2 
REMARK    2  A    between atoms: C_4  and  C_21 
REMARK    3  A    between atoms: C_6  and  C_10 
REMARK       I    between atoms: C_21  and  N_23 
REMARK    4  A    between atoms: C_24  and  N_23 
REMARK    5  A    between atoms: C_29  and  C_30 
REMARK    6  A    between atoms: C_29  and  O_32 
ROOT
HETATM    1  C   UNK N   1      34.427  15.575   7.674  0.00  0.00     0.177 A 
HETATM    2  C   UNK N   1      32.911  15.446   7.945  0.00  0.00     0.112 A 
HETATM    3  C   UNK N   1      32.433  16.722   7.356  0.00  0.00     0.063 A 
HETATM    4  N   UNK N   1      33.387  17.390   6.856  0.00  0.00    -0.267 N 
ATOM      5  HN  UNK N   1      33.279  18.307   6.421  1.00  0.00     0.194 HD
HETATM    6  O   UNK N   1      34.532  16.759   6.965  0.00  0.00    -0.258 OA
ENDROOT
BRANCH   1   7
HETATM    7  C   UNK N   1      35.008  14.420   6.826  0.00  0.00     0.025 C 
HETATM    8  C   UNK N   1      35.848  14.909   5.659  0.00  0.00     0.013 C 
HETATM    9  C   UNK N   1      33.968  13.433   6.322  0.00  0.00     0.013 C 
ENDBRANCH   1   7
BRANCH   1  10
HETATM   10  C   UNK N   1      35.130  15.663   9.016  0.00  0.00     0.256 C 
HETATM   11  O   UNK N   1      35.386  16.754   9.506  0.00  0.00    -0.270 OA
HETATM   12  N   UNK N   1      35.473  14.510   9.654  0.00  0.00    -0.348 N 
HETATM   13  H   UNK N   1      35.140  13.670   9.265  0.00  0.00     0.163 HD
BRANCH  12  14
HETATM   14  C   UNK N   1      36.282  14.402  10.853  0.00  0.00     0.159 C 
HETATM   15  C   UNK N   1      35.560  14.814  12.122  0.00  0.00     0.141 C 
HETATM   16  C   UNK N   1      36.332  14.005  13.082  0.00  0.00     0.263 C 
HETATM   17  O   UNK N   1      36.229  14.131  14.291  0.00  0.00    -0.265 OA
HETATM   18  O   UNK N   1      37.124  13.079  12.522  0.00  0.00    -0.279 OA
HETATM   19  C   UNK N   1      37.076  13.105  11.150  0.00  0.00     0.218 C 
BRANCH  19  20
HETATM   20  C   UNK N   1      38.490  13.171  10.590  0.00  0.00     0.293 C 
HETATM   21  F   UNK N   1      38.683  14.323   9.853  0.00  0.00    -0.250 F 
ENDBRANCH  19  20
BRANCH  19  22
HETATM   22  O   UNK N   1      36.433  11.952  10.697  0.00  0.00    -0.361 OA
HETATM   23  H   UNK N   1      35.803  11.266  10.970  0.00  0.00     0.213 HD
ENDBRANCH  19  22
ENDBRANCH  12  14
ENDBRANCH   1  10
BRANCH   3  24
HETATM   24  C   UNK N   1      31.208  17.402   7.804  0.00  0.00     0.068 A 
HETATM   25  C   UNK N   1      30.081  17.437   6.957  0.00  0.00     0.003 A 
HETATM   26  C   UNK N   1      30.096  16.835   5.687  0.00  0.00     0.014 A 
HETATM   27  C   UNK N   1      28.897  18.048   7.418  0.00  0.00    -0.022 A 
HETATM   28  C   UNK N   1      28.951  16.839   4.890  0.00  0.00     0.001 A 
HETATM   29  C   UNK N   1      27.782  17.450   5.349  0.00  0.00     0.001 A 
HETATM   30  C   UNK N   1      27.755  18.055   6.610  0.00  0.00     0.012 A 
HETATM   31  C   UNK N   1      28.867  18.621   8.687  0.00  0.00     0.029 A 
HETATM   32  C   UNK N   1      30.005  18.559   9.496  0.00  0.00     0.089 A 
HETATM   33  N   UNK N   1      31.136  17.941   9.050  0.00  0.00    -0.364 N 
ATOM     34  HN  UNK N   1      31.948  17.883   9.665  1.00  0.00     0.165 HD
ENDBRANCH   3  24
TORSDOF 6
ENDMDL
MODEL 9
REMARK VINA RESULT:      -7.7     17.941     21.722
REMARK  6 active torsions:
REMARK  status: ('A' for Active; 'I' for Inactive)
REMARK    1  A    between atoms: C_4  and  C_2 
REMARK    2  A    between atoms: C_4  and  C_21 
REMARK    3  A    between atoms: C_6  and  C_10 
REMARK       I    between atoms: C_21  and  N_23 
REMARK    4  A    between atoms: C_24  and  N_23 
REMARK    5  A    between atoms: C_29  and  C_30 
REMARK    6  A    between atoms: C_29  and  O_32 
ROOT
HETATM    1  C   UNK N   1      26.822  25.656  -5.297  0.00  0.00     0.177 A 
HETATM    2  C   UNK N   1      27.246  24.632  -4.220  0.00  0.00     0.112 A 
HETATM    3  C   UNK N   1      28.715  24.628  -4.430  0.00  0.00     0.063 A 
HETATM    4  N   UNK N   1      29.057  25.439  -5.342  0.00  0.00    -0.267 N 
ATOM      5  HN  UNK N   1      30.018  25.574  -5.658  1.00  0.00     0.194 HD
HETATM    6  O   UNK N   1      28.025  26.085  -5.831  0.00  0.00    -0.258 OA
ENDROOT
BRANCH   1   7
HETATM    7  C   UNK N   1      26.054  26.872  -4.731  0.00  0.00     0.025 C 
HETATM    8  C   UNK N   1      26.423  28.176  -5.418  0.00  0.00     0.013 C 
HETATM    9  C   UNK N   1      26.177  27.042  -3.226  0.00  0.00     0.013 C 
ENDBRANCH   1   7
BRANCH   1  10
HETATM   10  C   UNK N   1      25.984  24.923  -6.327  0.00  0.00     0.256 C 
HETATM   11  O   UNK N   1      25.216  24.037  -5.979  0.00  0.00    -0.270 OA
HETATM   12  N   UNK N   1      26.108  25.266  -7.640  0.00  0.00    -0.348 N 
HETATM   13  H   UNK N   1      26.655  26.059  -7.842  0.00  0.00     0.163 HD
BRANCH  12  14
HETATM   14  C   UNK N   1      25.513  24.575  -8.767  0.00  0.00     0.159 C 
HETATM   15  C   UNK N   1      25.048  25.496  -9.879  0.00  0.00     0.141 C 
HETATM   16  C   UNK N   1      25.148  24.548 -11.002  0.00  0.00     0.263 C 
HETATM   17  O   UNK N   1      24.706  24.785 -12.114  0.00  0.00    -0.265 OA
HETATM   18  O   UNK N   1      25.811  23.416 -10.720  0.00  0.00    -0.279 OA
HETATM   19  C   UNK N   1      26.231  23.364  -9.414  0.00  0.00     0.218 C 
BRANCH  19  20
HETATM   20  C   UNK N   1      25.791  22.049  -8.787  0.00  0.00     0.293 C 
HETATM   21  F   UNK N   1      26.540  20.991  -9.265  0.00  0.00    -0.250 F 
ENDBRANCH  19  20
BRANCH  19  22
HETATM   22  O   UNK N   1      27.623  23.469  -9.381  0.00  0.00    -0.361 OA
HETATM   23  H   UNK N   1      28.435  23.005  -9.639  0.00  0.00     0.213 HD
ENDBRANCH  19  22
ENDBRANCH  12  14
ENDBRANCH   1  10
BRANCH   3  24
HETATM   24  C   UNK N   1      29.568  23.474  -4.107  0.00  0.00     0.068 A 
HETATM   25  C   UNK N   1      29.660  22.400  -5.016  0.00  0.00     0.003 A 
HETATM   26  C   UNK N   1      28.956  22.402  -6.232  0.00  0.00     0.014 A 
HETATM   27  C   UNK N   1      30.520  21.323  -4.717  0.00  0.00    -0.022 A 
HETATM   28  C   UNK N   1      29.105  21.352  -7.137  0.00  0.00     0.001 A 
HETATM   29  C   UNK N   1      29.953  20.284  -6.834  0.00  0.00     0.001 A 
HETATM   30  C   UNK N   1      30.658  20.268  -5.626  0.00  0.00     0.012 A 
HETATM   31  C   UNK N   1      31.243  21.328  -3.527  0.00  0.00     0.029 A 
HETATM   32  C   UNK N   1      31.126  22.416  -2.657  0.00  0.00     0.089 A 
HETATM   33  N   UNK N   1      30.313  23.465  -2.969  0.00  0.00    -0.364 N 
ATOM     34  HN  UNK N   1      30.260  24.261  -2.334  1.00  0.00     0.165 HD
ENDBRANCH   3  24
TORSDOF 6
ENDMDL
