MODEL 1
REMARK VINA RESULT:      -9.0      0.000      0.000
REMARK  4 active torsions:
REMARK  status: ('A' for Active; 'I' for Inactive)
REMARK    1  A    between atoms: C_2  and  C_3 
REMARK    2  A    between atoms: C_2  and  C_16 
REMARK    3  A    between atoms: C_6  and  C_10 
REMARK    4  A    between atoms: C_18  and  N_22 
REMARK       I    between atoms: N_22  and  C_23 
REMARK       I    between atoms: C_23  and  N_26 
ROOT
HETATM    1  C   UNK N   1      34.921  15.555   9.895  0.00  0.00     0.045 A 
HETATM    2  C   UNK N   1      34.014  15.347   8.883  0.00  0.00     0.086 A 
HETATM    3  C   UNK N   1      33.416  16.578   8.731  0.00  0.00     0.186 A 
HETATM    4  O   UNK N   1      33.941  17.425   9.583  0.00  0.00    -0.219 OA
HETATM    5  N   UNK N   1      34.853  16.840  10.303  0.00  0.00    -0.263 N 
ATOM      6  HN  UNK N   1      35.411  17.271  11.041  1.00  0.00     0.194 HD
ENDROOT
BRANCH   1   7
HETATM    7  C   UNK N   1      35.835  14.498  10.449  0.00  0.00     0.066 C 
HETATM    8  C   UNK N   1      36.844  13.860   9.501  0.00  0.00     0.021 C 
BRANCH   7   9
HETATM    9  C   UNK N   1      35.777  14.028  11.879  0.00  0.00    -0.046 A 
HETATM   10  C   UNK N   1      35.023  12.907  12.233  0.00  0.00     0.009 A 
HETATM   11  C   UNK N   1      34.970  12.483  13.558  0.00  0.00     0.016 A 
HETATM   12  C   UNK N   1      35.672  13.168  14.564  0.00  0.00     0.013 A 
HETATM   13  C   UNK N   1      36.440  14.301  14.202  0.00  0.00     0.128 A 
HETATM   14  C   UNK N   1      36.483  14.719  12.870  0.00  0.00     0.051 A 
HETATM   15  F   UNK N   1      37.144  15.007  15.122  0.00  0.00    -0.205 F 
BRANCH  12  16
HETATM   16  C   UNK N   1      35.575  12.677  15.967  0.00  0.00    -0.023 A 
HETATM   17  C   UNK N   1      35.915  11.346  16.267  0.00  0.00     0.012 A 
HETATM   18  C   UNK N   1      35.822  10.863  17.574  0.00  0.00     0.001 A 
HETATM   19  C   UNK N   1      35.388  11.705  18.599  0.00  0.00     0.000 A 
HETATM   20  C   UNK N   1      35.048  13.030  18.317  0.00  0.00     0.001 A 
HETATM   21  C   UNK N   1      35.140  13.512  17.009  0.00  0.00     0.012 A 
ENDBRANCH  12  16
ENDBRANCH   7   9
ENDBRANCH   1   7
BRANCH   3  22
HETATM   22  N   UNK N   1      32.398  16.908   7.796  0.00  0.00    -0.169 N 
HETATM   23  C   UNK N   1      31.102  17.381   8.174  0.00  0.00     0.676 C 
HETATM   24  N   UNK N   1      30.842  17.646   9.406  0.00  0.00    -0.234 N 
HETATM   25  N   UNK N   1      30.088  17.558   7.190  0.00  0.00    -0.214 N 
HETATM   26  H   UNK N   1      29.982  18.050   9.660  0.00  0.00     0.174 HD
ATOM     27  HN  UNK N   1      31.534  17.435  10.126  1.00  0.00     0.174 HD
HETATM   28  C   UNK N   1      28.774  18.039   7.613  0.00  0.00     0.167 C 
HETATM   29  C   UNK N   1      30.399  17.298   5.790  0.00  0.00     0.167 C 
HETATM   30  C   UNK N   1      27.771  18.086   6.465  0.00  0.00     0.188 C 
HETATM   31  O   UNK N   1      28.409  18.545   5.309  0.00  0.00    -0.388 OA
HETATM   32  C   UNK N   1      29.177  17.456   4.884  0.00  0.00     0.188 C 
HETATM   33  H   UNK N   1      32.595  16.805   6.836  0.00  0.00     0.186 HD
ENDBRANCH   3  22
TORSDOF 4
ENDMDL
MODEL 2
REMARK VINA RESULT:      -8.9      1.390      1.993
REMARK  4 active torsions:
REMARK  status: ('A' for Active; 'I' for Inactive)
REMARK    1  A    between atoms: C_2  and  C_3 
REMARK    2  A    between atoms: C_2  and  C_16 
REMARK    3  A    between atoms: C_6  and  C_10 
REMARK    4  A    between atoms: C_18  and  N_22 
REMARK       I    between atoms: N_22  and  C_23 
REMARK       I    between atoms: C_23  and  N_26 
ROOT
HETATM    1  C   UNK N   1      35.331  15.046  10.822  0.00  0.00     0.045 A 
HETATM    2  C   UNK N   1      34.703  14.881   9.609  0.00  0.00     0.086 A 
HETATM    3  C   UNK N   1      34.103  16.101   9.391  0.00  0.00     0.186 A 
HETATM    4  O   UNK N   1      34.369  16.902  10.394  0.00  0.00    -0.219 OA
HETATM    5  N   UNK N   1      35.107  16.295  11.278  0.00  0.00    -0.263 N 
ATOM      6  HN  UNK N   1      35.451  16.691  12.153  1.00  0.00     0.194 HD
ENDROOT
BRANCH   1   7
HETATM    7  C   UNK N   1      36.132  13.980  11.517  0.00  0.00     0.066 C 
HETATM    8  C   UNK N   1      37.175  13.226  10.699  0.00  0.00     0.021 C 
BRANCH   7   9
HETATM    9  C   UNK N   1      35.931  13.611  12.962  0.00  0.00    -0.046 A 
HETATM   10  C   UNK N   1      36.738  14.163  13.960  0.00  0.00     0.009 A 
HETATM   11  C   UNK N   1      36.549  13.812  15.294  0.00  0.00     0.016 A 
HETATM   12  C   UNK N   1      35.546  12.902  15.666  0.00  0.00     0.013 A 
HETATM   13  C   UNK N   1      34.726  12.348  14.655  0.00  0.00     0.128 A 
HETATM   14  C   UNK N   1      34.927  12.705  13.319  0.00  0.00     0.051 A 
HETATM   15  F   UNK N   1      33.737  11.466  14.944  0.00  0.00    -0.205 F 
BRANCH  12  16
HETATM   16  C   UNK N   1      35.391  12.555  17.106  0.00  0.00    -0.023 A 
HETATM   17  C   UNK N   1      35.145  13.570  18.048  0.00  0.00     0.012 A 
HETATM   18  C   UNK N   1      35.006  13.268  19.403  0.00  0.00     0.001 A 
HETATM   19  C   UNK N   1      35.112  11.946  19.837  0.00  0.00     0.000 A 
HETATM   20  C   UNK N   1      35.355  10.926  18.914  0.00  0.00     0.001 A 
HETATM   21  C   UNK N   1      35.495  11.229  17.558  0.00  0.00     0.012 A 
ENDBRANCH  12  16
ENDBRANCH   7   9
ENDBRANCH   1   7
BRANCH   3  22
HETATM   22  N   UNK N   1      33.326  16.465   8.259  0.00  0.00    -0.169 N 
HETATM   23  C   UNK N   1      31.911  16.669   8.306  0.00  0.00     0.676 C 
HETATM   24  N   UNK N   1      31.289  16.648   9.432  0.00  0.00    -0.234 N 
HETATM   25  N   UNK N   1      31.178  16.895   7.106  0.00  0.00    -0.214 N 
HETATM   26  H   UNK N   1      30.332  16.871   9.479  0.00  0.00     0.174 HD
ATOM     27  HN  UNK N   1      31.793  16.397  10.283  1.00  0.00     0.174 HD
HETATM   28  C   UNK N   1      29.733  17.097   7.191  0.00  0.00     0.167 C 
HETATM   29  C   UNK N   1      31.892  16.961   5.836  0.00  0.00     0.167 C 
HETATM   30  C   UNK N   1      29.080  17.229   5.819  0.00  0.00     0.188 C 
HETATM   31  O   UNK N   1      29.902  17.991   4.984  0.00  0.00    -0.388 OA
HETATM   32  C   UNK N   1      30.946  17.124   4.645  0.00  0.00     0.188 C 
HETATM   33  H   UNK N   1      33.785  16.581   7.395  0.00  0.00     0.186 HD
ENDBRANCH   3  22
TORSDOF 4
ENDMDL
MODEL 3
REMARK VINA RESULT:      -8.6      1.739      2.845
REMARK  4 active torsions:
REMARK  status: ('A' for Active; 'I' for Inactive)
REMARK    1  A    between atoms: C_2  and  C_3 
REMARK    2  A    between atoms: C_2  and  C_16 
REMARK    3  A    between atoms: C_6  and  C_10 
REMARK    4  A    between atoms: C_18  and  N_22 
REMARK       I    between atoms: N_22  and  C_23 
REMARK       I    between atoms: C_23  and  N_26 
ROOT
HETATM    1  C   UNK N   1      35.980  14.231  11.763  0.00  0.00     0.045 A 
HETATM    2  C   UNK N   1      34.779  14.077  11.111  0.00  0.00     0.086 A 
HETATM    3  C   UNK N   1      34.498  15.346  10.656  0.00  0.00     0.186 A 
HETATM    4  O   UNK N   1      35.462  16.160  11.011  0.00  0.00    -0.219 OA
HETATM    5  N   UNK N   1      36.373  15.519  11.684  0.00  0.00    -0.263 N 
ATOM      6  HN  UNK N   1      37.226  15.917  12.080  1.00  0.00     0.194 HD
ENDROOT
BRANCH   1   7
HETATM    7  C   UNK N   1      36.721  13.120  12.454  0.00  0.00     0.066 C 
HETATM    8  C   UNK N   1      37.892  12.479  11.719  0.00  0.00     0.021 C 
BRANCH   7   9
HETATM    9  C   UNK N   1      36.341  12.602  13.816  0.00  0.00    -0.046 A 
HETATM   10  C   UNK N   1      36.988  11.493  14.365  0.00  0.00     0.009 A 
HETATM   11  C   UNK N   1      36.626  11.017  15.622  0.00  0.00     0.016 A 
HETATM   12  C   UNK N   1      35.609  11.639  16.365  0.00  0.00     0.013 A 
HETATM   13  C   UNK N   1      34.958  12.766  15.809  0.00  0.00     0.128 A 
HETATM   14  C   UNK N   1      35.327  13.233  14.545  0.00  0.00     0.051 A 
HETATM   15  F   UNK N   1      33.969  13.416  16.472  0.00  0.00    -0.205 F 
BRANCH  12  16
HETATM   16  C   UNK N   1      35.255  11.085  17.701  0.00  0.00    -0.023 A 
HETATM   17  C   UNK N   1      34.697   9.798  17.799  0.00  0.00     0.012 A 
HETATM   18  C   UNK N   1      34.350   9.263  19.041  0.00  0.00     0.001 A 
HETATM   19  C   UNK N   1      34.558  10.007  20.204  0.00  0.00     0.000 A 
HETATM   20  C   UNK N   1      35.113  11.286  20.123  0.00  0.00     0.001 A 
HETATM   21  C   UNK N   1      35.459  11.821  18.880  0.00  0.00     0.012 A 
ENDBRANCH  12  16
ENDBRANCH   7   9
ENDBRANCH   1   7
BRANCH   3  22
HETATM   22  N   UNK N   1      33.357  15.735   9.903  0.00  0.00    -0.169 N 
HETATM   23  C   UNK N   1      33.371  15.913   8.483  0.00  0.00     0.676 C 
HETATM   24  N   UNK N   1      34.417  15.603   7.801  0.00  0.00    -0.234 N 
HETATM   25  N   UNK N   1      32.229  16.439   7.815  0.00  0.00    -0.214 N 
HETATM   26  H   UNK N   1      34.403  15.644   6.818  0.00  0.00     0.174 HD
ATOM     27  HN  UNK N   1      35.268  15.313   8.284  1.00  0.00     0.174 HD
HETATM   28  C   UNK N   1      32.280  16.611   6.365  0.00  0.00     0.167 C 
HETATM   29  C   UNK N   1      31.031  16.748   8.586  0.00  0.00     0.167 C 
HETATM   30  C   UNK N   1      31.021  17.271   5.810  0.00  0.00     0.188 C 
HETATM   31  O   UNK N   1      29.900  16.764   6.473  0.00  0.00    -0.388 OA
HETATM   32  C   UNK N   1      29.934  17.381   7.727  0.00  0.00     0.188 C 
HETATM   33  H   UNK N   1      32.511  15.891  10.384  0.00  0.00     0.186 HD
ENDBRANCH   3  22
TORSDOF 4
ENDMDL
MODEL 4
REMARK VINA RESULT:      -8.4      2.711      4.785
REMARK  4 active torsions:
REMARK  status: ('A' for Active; 'I' for Inactive)
REMARK    1  A    between atoms: C_2  and  C_3 
REMARK    2  A    between atoms: C_2  and  C_16 
REMARK    3  A    between atoms: C_6  and  C_10 
REMARK    4  A    between atoms: C_18  and  N_22 
REMARK       I    between atoms: N_22  and  C_23 
REMARK       I    between atoms: C_23  and  N_26 
ROOT
HETATM    1  C   UNK N   1      35.727  13.729  13.759  0.00  0.00     0.045 A 
HETATM    2  C   UNK N   1      35.907  14.619  12.727  0.00  0.00     0.086 A 
HETATM    3  C   UNK N   1      35.249  14.024  11.673  0.00  0.00     0.186 A 
HETATM    4  O   UNK N   1      34.730  12.888  12.070  0.00  0.00    -0.219 OA
HETATM    5  N   UNK N   1      35.002  12.678  13.326  0.00  0.00    -0.263 N 
ATOM      6  HN  UNK N   1      34.720  11.868  13.879  1.00  0.00     0.194 HD
ENDROOT
BRANCH   1   7
HETATM    7  C   UNK N   1      36.271  13.918  15.149  0.00  0.00     0.066 C 
HETATM    8  C   UNK N   1      37.203  15.098  15.394  0.00  0.00     0.021 C 
BRANCH   7   9
HETATM    9  C   UNK N   1      35.958  12.984  16.287  0.00  0.00    -0.046 A 
HETATM   10  C   UNK N   1      36.190  11.611  16.171  0.00  0.00     0.009 A 
HETATM   11  C   UNK N   1      35.892  10.754  17.226  0.00  0.00     0.016 A 
HETATM   12  C   UNK N   1      35.357  11.247  18.428  0.00  0.00     0.013 A 
HETATM   13  C   UNK N   1      35.128  12.638  18.546  0.00  0.00     0.128 A 
HETATM   14  C   UNK N   1      35.428  13.489  17.479  0.00  0.00     0.051 A 
HETATM   15  F   UNK N   1      34.616  13.182  19.679  0.00  0.00    -0.205 F 
BRANCH  12  16
HETATM   16  C   UNK N   1      35.050  10.285  19.523  0.00  0.00    -0.023 A 
HETATM   17  C   UNK N   1      35.818  10.297  20.701  0.00  0.00     0.012 A 
HETATM   18  C   UNK N   1      35.553   9.398  21.735  0.00  0.00     0.001 A 
HETATM   19  C   UNK N   1      34.514   8.474  21.607  0.00  0.00     0.000 A 
HETATM   20  C   UNK N   1      33.740   8.452  20.444  0.00  0.00     0.001 A 
HETATM   21  C   UNK N   1      34.007   9.351  19.409  0.00  0.00     0.012 A 
ENDBRANCH  12  16
ENDBRANCH   7   9
ENDBRANCH   1   7
BRANCH   3  22
HETATM   22  N   UNK N   1      35.125  14.545  10.357  0.00  0.00    -0.169 N 
HETATM   23  C   UNK N   1      33.887  14.997   9.801  0.00  0.00     0.676 C 
HETATM   24  N   UNK N   1      32.832  15.061  10.533  0.00  0.00    -0.234 N 
HETATM   25  N   UNK N   1      33.813  15.376   8.430  0.00  0.00    -0.214 N 
HETATM   26  H   UNK N   1      32.000  15.450  10.179  0.00  0.00     0.174 HD
ATOM     27  HN  UNK N   1      32.857  14.706  11.490  1.00  0.00     0.174 HD
HETATM   28  C   UNK N   1      32.531  15.829   7.894  0.00  0.00     0.167 C 
HETATM   29  C   UNK N   1      35.021  15.343   7.614  0.00  0.00     0.167 C 
HETATM   30  C   UNK N   1      32.589  16.106   6.395  0.00  0.00     0.188 C 
HETATM   31  O   UNK N   1      33.801  16.728   6.084  0.00  0.00    -0.388 OA
HETATM   32  C   UNK N   1      34.744  15.697   6.152  0.00  0.00     0.188 C 
HETATM   33  H   UNK N   1      35.935  14.598   9.798  0.00  0.00     0.186 HD
ENDBRANCH   3  22
TORSDOF 4
ENDMDL
MODEL 5
REMARK VINA RESULT:      -8.3      3.236     10.725
REMARK  4 active torsions:
REMARK  status: ('A' for Active; 'I' for Inactive)
REMARK    1  A    between atoms: C_2  and  C_3 
REMARK    2  A    between atoms: C_2  and  C_16 
REMARK    3  A    between atoms: C_6  and  C_10 
REMARK    4  A    between atoms: C_18  and  N_22 
REMARK       I    between atoms: N_22  and  C_23 
REMARK       I    between atoms: C_23  and  N_26 
ROOT
HETATM    1  C   UNK N   1      34.439  16.518   8.219  0.00  0.00     0.045 A 
HETATM    2  C   UNK N   1      34.856  15.508   9.054  0.00  0.00     0.086 A 
HETATM    3  C   UNK N   1      35.150  16.163  10.228  0.00  0.00     0.186 A 
HETATM    4  O   UNK N   1      34.915  17.445  10.082  0.00  0.00    -0.219 OA
HETATM    5  N   UNK N   1      34.486  17.695   8.879  0.00  0.00    -0.263 N 
ATOM      6  HN  UNK N   1      34.234  18.609   8.503  1.00  0.00     0.194 HD
ENDROOT
BRANCH   1   7
HETATM    7  C   UNK N   1      34.006  16.319   6.793  0.00  0.00     0.066 C 
HETATM    8  C   UNK N   1      35.000  15.679   5.831  0.00  0.00     0.021 C 
BRANCH   7   9
HETATM    9  C   UNK N   1      32.659  16.747   6.275  0.00  0.00    -0.046 A 
HETATM   10  C   UNK N   1      32.499  17.154   4.949  0.00  0.00     0.009 A 
HETATM   11  C   UNK N   1      31.250  17.553   4.480  0.00  0.00     0.016 A 
HETATM   12  C   UNK N   1      30.128  17.554   5.325  0.00  0.00     0.013 A 
HETATM   13  C   UNK N   1      30.291  17.137   6.667  0.00  0.00     0.128 A 
HETATM   14  C   UNK N   1      31.549  16.741   7.127  0.00  0.00     0.051 A 
HETATM   15  F   UNK N   1      29.250  17.110   7.536  0.00  0.00    -0.205 F 
BRANCH  12  16
HETATM   16  C   UNK N   1      28.817  17.998   4.775  0.00  0.00    -0.023 A 
HETATM   17  C   UNK N   1      28.429  19.345   4.892  0.00  0.00     0.012 A 
HETATM   18  C   UNK N   1      27.201  19.781   4.391  0.00  0.00     0.001 A 
HETATM   19  C   UNK N   1      26.343  18.875   3.766  0.00  0.00     0.000 A 
HETATM   20  C   UNK N   1      26.714  17.535   3.640  0.00  0.00     0.001 A 
HETATM   21  C   UNK N   1      27.943  17.099   4.143  0.00  0.00     0.012 A 
ENDBRANCH  12  16
ENDBRANCH   7   9
ENDBRANCH   1   7
BRANCH   3  22
HETATM   22  N   UNK N   1      35.620  15.567  11.429  0.00  0.00    -0.169 N 
HETATM   23  C   UNK N   1      35.104  14.341  11.956  0.00  0.00     0.676 C 
HETATM   24  N   UNK N   1      34.253  13.652  11.281  0.00  0.00    -0.234 N 
HETATM   25  N   UNK N   1      35.526  13.876  13.234  0.00  0.00    -0.214 N 
HETATM   26  H   UNK N   1      33.959  12.768  11.600  0.00  0.00     0.174 HD
ATOM     27  HN  UNK N   1      33.880  14.024  10.407  1.00  0.00     0.174 HD
HETATM   28  C   UNK N   1      34.974  12.622  13.743  0.00  0.00     0.167 C 
HETATM   29  C   UNK N   1      36.522  14.638  13.978  0.00  0.00     0.167 C 
HETATM   30  C   UNK N   1      35.447  12.307  15.159  0.00  0.00     0.188 C 
HETATM   31  O   UNK N   1      36.797  12.647  15.285  0.00  0.00    -0.388 OA
HETATM   32  C   UNK N   1      36.794  14.044  15.361  0.00  0.00     0.188 C 
HETATM   33  H   UNK N   1      36.339  16.021  11.926  0.00  0.00     0.186 HD
ENDBRANCH   3  22
TORSDOF 4
ENDMDL
MODEL 6
REMARK VINA RESULT:      -8.3      2.896      5.170
REMARK  4 active torsions:
REMARK  status: ('A' for Active; 'I' for Inactive)
REMARK    1  A    between atoms: C_2  and  C_3 
REMARK    2  A    between atoms: C_2  and  C_16 
REMARK    3  A    between atoms: C_6  and  C_10 
REMARK    4  A    between atoms: C_18  and  N_22 
REMARK       I    between atoms: N_22  and  C_23 
REMARK       I    between atoms: C_23  and  N_26 
ROOT
HETATM    1  C   UNK N   1      36.497  12.941  13.869  0.00  0.00     0.045 A 
HETATM    2  C   UNK N   1      35.630  12.820  12.809  0.00  0.00     0.086 A 
HETATM    3  C   UNK N   1      35.439  14.122  12.402  0.00  0.00     0.186 A 
HETATM    4  O   UNK N   1      36.144  14.924  13.164  0.00  0.00    -0.219 OA
HETATM    5  N   UNK N   1      36.793  14.243  14.063  0.00  0.00    -0.263 N 
ATOM      6  HN  UNK N   1      37.411  14.623  14.780  1.00  0.00     0.194 HD
ENDROOT
BRANCH   1   7
HETATM    7  C   UNK N   1      37.016  11.785  14.679  0.00  0.00     0.066 C 
HETATM    8  C   UNK N   1      38.307  11.118  14.220  0.00  0.00     0.021 C 
BRANCH   7   9
HETATM    9  C   UNK N   1      36.307  11.248  15.893  0.00  0.00    -0.046 A 
HETATM   10  C   UNK N   1      35.768  12.114  16.848  0.00  0.00     0.009 A 
HETATM   11  C   UNK N   1      35.120  11.608  17.971  0.00  0.00     0.016 A 
HETATM   12  C   UNK N   1      34.990  10.223  18.169  0.00  0.00     0.013 A 
HETATM   13  C   UNK N   1      35.532   9.348  17.198  0.00  0.00     0.128 A 
HETATM   14  C   UNK N   1      36.184   9.866  16.076  0.00  0.00     0.051 A 
HETATM   15  F   UNK N   1      35.440   8.001  17.325  0.00  0.00    -0.205 F 
BRANCH  12  16
HETATM   16  C   UNK N   1      34.294   9.736  19.392  0.00  0.00    -0.023 A 
HETATM   17  C   UNK N   1      34.699  10.196  20.658  0.00  0.00     0.012 A 
HETATM   18  C   UNK N   1      34.065   9.745  21.817  0.00  0.00     0.001 A 
HETATM   19  C   UNK N   1      33.018   8.828  21.728  0.00  0.00     0.000 A 
HETATM   20  C   UNK N   1      32.603   8.363  20.478  0.00  0.00     0.001 A 
HETATM   21  C   UNK N   1      33.238   8.813  19.317  0.00  0.00     0.012 A 
ENDBRANCH  12  16
ENDBRANCH   7   9
ENDBRANCH   1   7
BRANCH   3  22
HETATM   22  N   UNK N   1      34.625  14.554  11.321  0.00  0.00    -0.169 N 
HETATM   23  C   UNK N   1      34.880  15.743  10.567  0.00  0.00     0.676 C 
HETATM   24  N   UNK N   1      35.954  16.421  10.768  0.00  0.00    -0.234 N 
HETATM   25  N   UNK N   1      33.944  16.187   9.589  0.00  0.00    -0.214 N 
HETATM   26  H   UNK N   1      36.175  17.190  10.195  0.00  0.00     0.174 HD
ATOM     27  HN  UNK N   1      36.583  16.159  11.528  1.00  0.00     0.174 HD
HETATM   28  C   UNK N   1      34.235  17.408   8.841  0.00  0.00     0.167 C 
HETATM   29  C   UNK N   1      32.748  15.393   9.334  0.00  0.00     0.167 C 
HETATM   30  C   UNK N   1      33.098  17.804   7.904  0.00  0.00     0.188 C 
HETATM   31  O   UNK N   1      32.567  16.658   7.306  0.00  0.00    -0.388 OA
HETATM   32  C   UNK N   1      31.815  16.057   8.320  0.00  0.00     0.188 C 
HETATM   33  H   UNK N   1      33.842  14.007  11.078  0.00  0.00     0.186 HD
ENDBRANCH   3  22
TORSDOF 4
ENDMDL
MODEL 7
REMARK VINA RESULT:      -8.2      2.170      2.614
REMARK  4 active torsions:
REMARK  status: ('A' for Active; 'I' for Inactive)
REMARK    1  A    between atoms: C_2  and  C_3 
REMARK    2  A    between atoms: C_2  and  C_16 
REMARK    3  A    between atoms: C_6  and  C_10 
REMARK    4  A    between atoms: C_18  and  N_22 
REMARK       I    between atoms: N_22  and  C_23 
REMARK       I    between atoms: C_23  and  N_26 
ROOT
HETATM    1  C   UNK N   1      34.602  14.002  10.440  0.00  0.00     0.045 A 
HETATM    2  C   UNK N   1      34.359  13.835   9.097  0.00  0.00     0.086 A 
HETATM    3  C   UNK N   1      33.309  14.692   8.854  0.00  0.00     0.186 A 
HETATM    4  O   UNK N   1      32.980  15.305   9.965  0.00  0.00    -0.219 OA
HETATM    5  N   UNK N   1      33.741  14.909  10.944  0.00  0.00    -0.263 N 
ATOM      6  HN  UNK N   1      33.694  15.226  11.913  1.00  0.00     0.194 HD
ENDROOT
BRANCH   1   7
HETATM    7  C   UNK N   1      35.667  13.269  11.208  0.00  0.00     0.066 C 
HETATM    8  C   UNK N   1      36.831  12.676  10.423  0.00  0.00     0.021 C 
BRANCH   7   9
HETATM    9  C   UNK N   1      35.618  13.075  12.700  0.00  0.00    -0.046 A 
HETATM   10  C   UNK N   1      34.720  12.173  13.275  0.00  0.00     0.009 A 
HETATM   11  C   UNK N   1      34.677  12.004  14.656  0.00  0.00     0.016 A 
HETATM   12  C   UNK N   1      35.532  12.732  15.500  0.00  0.00     0.013 A 
HETATM   13  C   UNK N   1      36.445  13.642  14.916  0.00  0.00     0.128 A 
HETATM   14  C   UNK N   1      36.477  13.805  13.529  0.00  0.00     0.051 A 
HETATM   15  F   UNK N   1      37.301  14.374  15.671  0.00  0.00    -0.205 F 
BRANCH  12  16
HETATM   16  C   UNK N   1      35.439  12.519  16.971  0.00  0.00    -0.023 A 
HETATM   17  C   UNK N   1      35.154  13.604  17.819  0.00  0.00     0.012 A 
HETATM   18  C   UNK N   1      35.071  13.428  19.201  0.00  0.00     0.001 A 
HETATM   19  C   UNK N   1      35.272  12.163  19.756  0.00  0.00     0.000 A 
HETATM   20  C   UNK N   1      35.554  11.075  18.927  0.00  0.00     0.001 A 
HETATM   21  C   UNK N   1      35.638  11.252  17.544  0.00  0.00     0.012 A 
ENDBRANCH  12  16
ENDBRANCH   7   9
ENDBRANCH   1   7
BRANCH   3  22
HETATM   22  N   UNK N   1      32.673  14.908   7.601  0.00  0.00    -0.169 N 
HETATM   23  C   UNK N   1      33.199  15.769   6.587  0.00  0.00     0.676 C 
HETATM   24  N   UNK N   1      34.361  16.303   6.728  0.00  0.00    -0.234 N 
HETATM   25  N   UNK N   1      32.439  16.046   5.415  0.00  0.00    -0.214 N 
HETATM   26  H   UNK N   1      34.763  16.827   5.998  0.00  0.00     0.174 HD
ATOM     27  HN  UNK N   1      34.871  16.181   7.604  1.00  0.00     0.174 HD
HETATM   28  C   UNK N   1      33.006  16.933   4.402  0.00  0.00     0.167 C 
HETATM   29  C   UNK N   1      31.141  15.406   5.240  0.00  0.00     0.167 C 
HETATM   30  C   UNK N   1      32.037  17.208   3.257  0.00  0.00     0.188 C 
HETATM   31  O   UNK N   1      31.352  16.032   2.936  0.00  0.00    -0.388 OA
HETATM   32  C   UNK N   1      30.426  15.879   3.973  0.00  0.00     0.188 C 
HETATM   33  H   UNK N   1      31.824  14.441   7.421  0.00  0.00     0.186 HD
ENDBRANCH   3  22
TORSDOF 4
ENDMDL
MODEL 8
REMARK VINA RESULT:      -8.0      2.435      3.953
REMARK  4 active torsions:
REMARK  status: ('A' for Active; 'I' for Inactive)
REMARK    1  A    between atoms: C_2  and  C_3 
REMARK    2  A    between atoms: C_2  and  C_16 
REMARK    3  A    between atoms: C_6  and  C_10 
REMARK    4  A    between atoms: C_18  and  N_22 
REMARK       I    between atoms: N_22  and  C_23 
REMARK       I    between atoms: C_23  and  N_26 
ROOT
HETATM    1  C   UNK N   1      32.232  17.251   8.424  0.00  0.00     0.045 A 
HETATM    2  C   UNK N   1      31.725  17.280   7.146  0.00  0.00     0.086 A 
HETATM    3  C   UNK N   1      30.363  17.230   7.341  0.00  0.00     0.186 A 
HETATM    4  O   UNK N   1      30.108  17.182   8.627  0.00  0.00    -0.219 OA
HETATM    5  N   UNK N   1      31.216  17.191   9.310  0.00  0.00    -0.263 N 
ATOM      6  HN  UNK N   1      31.300  17.157  10.326  1.00  0.00     0.194 HD
ENDROOT
BRANCH   1   7
HETATM    7  C   UNK N   1      33.698  17.276   8.759  0.00  0.00     0.066 C 
HETATM    8  C   UNK N   1      34.569  18.315   8.061  0.00  0.00     0.021 C 
BRANCH   7   9
HETATM    9  C   UNK N   1      34.338  16.313   9.722  0.00  0.00    -0.046 A 
HETATM   10  C   UNK N   1      35.264  16.757  10.668  0.00  0.00     0.009 A 
HETATM   11  C   UNK N   1      35.856  15.857  11.551  0.00  0.00     0.016 A 
HETATM   12  C   UNK N   1      35.535  14.490  11.512  0.00  0.00     0.013 A 
HETATM   13  C   UNK N   1      34.593  14.043  10.556  0.00  0.00     0.128 A 
HETATM   14  C   UNK N   1      34.008  14.954   9.673  0.00  0.00     0.051 A 
HETATM   15  F   UNK N   1      34.235  12.738  10.466  0.00  0.00    -0.205 F 
BRANCH  12  16
HETATM   16  C   UNK N   1      36.203  13.570  12.475  0.00  0.00    -0.023 A 
HETATM   17  C   UNK N   1      36.998  12.514  11.995  0.00  0.00     0.012 A 
HETATM   18  C   UNK N   1      37.626  11.635  12.880  0.00  0.00     0.001 A 
HETATM   19  C   UNK N   1      37.467  11.800  14.257  0.00  0.00     0.000 A 
HETATM   20  C   UNK N   1      36.682  12.845  14.748  0.00  0.00     0.001 A 
HETATM   21  C   UNK N   1      36.054  13.724  13.862  0.00  0.00     0.012 A 
ENDBRANCH  12  16
ENDBRANCH   7   9
ENDBRANCH   1   7
BRANCH   3  22
HETATM   22  N   UNK N   1      29.367  17.243   6.327  0.00  0.00    -0.169 N 
HETATM   23  C   UNK N   1      28.281  18.173   6.300  0.00  0.00     0.676 C 
HETATM   24  N   UNK N   1      28.230  19.136   7.151  0.00  0.00    -0.234 N 
HETATM   25  N   UNK N   1      27.245  18.038   5.332  0.00  0.00    -0.214 N 
HETATM   26  H   UNK N   1      27.531  19.827   7.084  0.00  0.00     0.174 HD
ATOM     27  HN  UNK N   1      28.919  19.185   7.902  1.00  0.00     0.174 HD
HETATM   28  C   UNK N   1      26.149  19.004   5.336  0.00  0.00     0.167 C 
HETATM   29  C   UNK N   1      27.329  16.971   4.342  0.00  0.00     0.167 C 
HETATM   30  C   UNK N   1      25.073  18.671   4.306  0.00  0.00     0.188 C 
HETATM   31  O   UNK N   1      25.678  18.218   3.131  0.00  0.00    -0.388 OA
HETATM   32  C   UNK N   1      26.096  16.919   3.438  0.00  0.00     0.188 C 
HETATM   33  H   UNK N   1      29.428  16.576   5.605  0.00  0.00     0.186 HD
ENDBRANCH   3  22
TORSDOF 4
ENDMDL
MODEL 9
REMARK VINA RESULT:      -7.9      3.550     10.507
REMARK  4 active torsions:
REMARK  status: ('A' for Active; 'I' for Inactive)
REMARK    1  A    between atoms: C_2  and  C_3 
REMARK    2  A    between atoms: C_2  and  C_16 
REMARK    3  A    between atoms: C_6  and  C_10 
REMARK    4  A    between atoms: C_18  and  N_22 
REMARK       I    between atoms: N_22  and  C_23 
REMARK       I    between atoms: C_23  and  N_26 
ROOT
HETATM    1  C   UNK N   1      34.375  15.990   9.098  0.00  0.00     0.045 A 
HETATM    2  C   UNK N   1      33.924  15.551  10.321  0.00  0.00     0.086 A 
HETATM    3  C   UNK N   1      34.694  14.435  10.564  0.00  0.00     0.186 A 
HETATM    4  O   UNK N   1      35.523  14.252   9.565  0.00  0.00    -0.219 OA
HETATM    5  N   UNK N   1      35.355  15.173   8.660  0.00  0.00    -0.263 N 
ATOM      6  HN  UNK N   1      35.869  15.260   7.783  1.00  0.00     0.194 HD
ENDROOT
BRANCH   1   7
HETATM    7  C   UNK N   1      33.839  17.195   8.376  0.00  0.00     0.066 C 
HETATM    8  C   UNK N   1      34.722  18.435   8.307  0.00  0.00     0.021 C 
BRANCH   7   9
HETATM    9  C   UNK N   1      32.470  17.237   7.750  0.00  0.00    -0.046 A 
HETATM   10  C   UNK N   1      32.273  16.815   6.434  0.00  0.00     0.009 A 
HETATM   11  C   UNK N   1      31.005  16.862   5.861  0.00  0.00     0.016 A 
HETATM   12  C   UNK N   1      29.900  17.330   6.590  0.00  0.00     0.013 A 
HETATM   13  C   UNK N   1      30.100  17.752   7.926  0.00  0.00     0.128 A 
HETATM   14  C   UNK N   1      31.378  17.703   8.490  0.00  0.00     0.051 A 
HETATM   15  F   UNK N   1      29.077  18.212   8.688  0.00  0.00    -0.205 F 
BRANCH  12  16
HETATM   16  C   UNK N   1      28.567  17.367   5.927  0.00  0.00    -0.023 A 
HETATM   17  C   UNK N   1      28.313  18.315   4.919  0.00  0.00     0.012 A 
HETATM   18  C   UNK N   1      27.068  18.372   4.291  0.00  0.00     0.001 A 
HETATM   19  C   UNK N   1      26.058  17.482   4.661  0.00  0.00     0.000 A 
HETATM   20  C   UNK N   1      26.296  16.534   5.659  0.00  0.00     0.001 A 
HETATM   21  C   UNK N   1      27.542  16.477   6.288  0.00  0.00     0.012 A 
ENDBRANCH  12  16
ENDBRANCH   7   9
ENDBRANCH   1   7
BRANCH   3  22
HETATM   22  N   UNK N   1      34.630  13.605  11.715  0.00  0.00    -0.169 N 
HETATM   23  C   UNK N   1      35.721  13.431  12.624  0.00  0.00     0.676 C 
HETATM   24  N   UNK N   1      36.791  14.133  12.495  0.00  0.00    -0.234 N 
HETATM   25  N   UNK N   1      35.631  12.476  13.677  0.00  0.00    -0.214 N 
HETATM   26  H   UNK N   1      37.509  14.078  13.166  0.00  0.00     0.174 HD
ATOM     27  HN  UNK N   1      36.896  14.752  11.691  1.00  0.00     0.174 HD
HETATM   28  C   UNK N   1      36.766  12.322  14.585  0.00  0.00     0.167 C 
HETATM   29  C   UNK N   1      34.401  11.713  13.846  0.00  0.00     0.167 C 
HETATM   30  C   UNK N   1      36.558  11.199  15.596  0.00  0.00     0.188 C 
HETATM   31  O   UNK N   1      35.232  11.210  16.037  0.00  0.00    -0.388 OA
HETATM   32  C   UNK N   1      34.509  10.677  14.966  0.00  0.00     0.188 C 
HETATM   33  H   UNK N   1      33.790  13.122  11.897  0.00  0.00     0.186 HD
ENDBRANCH   3  22
TORSDOF 4
ENDMDL
