MODEL 1
REMARK VINA RESULT:      -5.8      0.000      0.000
REMARK  7 active torsions:
REMARK  status: ('A' for Active; 'I' for Inactive)
REMARK    1  A    between atoms: C_3  and  C_1 
REMARK    2  A    between atoms: O_14  and  C_1 
REMARK    3  A    between atoms: C_7  and  C_4 
REMARK    4  A    between atoms: C_5  and  O_15 
REMARK    5  A    between atoms: C_6  and  O_16 
REMARK       I    between atoms: N_10  and  C_7 
REMARK    6  A    between atoms: O_18  and  C_8 
REMARK    7  A    between atoms: C_9  and  N_13 
ROOT
HETATM    1  C   UNK N   1      33.305  14.749   9.444  0.00  0.00     0.188 A 
HETATM    2  C   UNK N   1      33.525  16.492   8.200  0.00  0.00     0.153 A 
HETATM    3  C   UNK N   1      34.363  16.613   9.284  0.00  0.00     0.178 A 
HETATM    4  N   UNK N   1      32.854  15.326   8.304  0.00  0.00    -0.344 N 
ATOM      5  HN  UNK N   1      32.156  14.957   7.659  1.00  0.00     0.167 HD
HETATM    6  N   UNK N   1      34.225  15.524  10.060  0.00  0.00    -0.292 N 
ENDROOT
BRANCH   6   7
HETATM    7  C   UNK N   1      34.948  15.170  11.288  0.00  0.00     0.262 C 
HETATM    8  C   UNK N   1      36.348  14.677  11.014  0.00  0.00     0.198 C 
HETATM    9  C   UNK N   1      36.620  14.065  12.337  0.00  0.00     0.182 C 
HETATM   10  C   UNK N   1      35.308  13.345  12.556  0.00  0.00     0.179 C 
HETATM   11  O   UNK N   1      34.285  14.168  12.032  0.00  0.00    -0.353 OA
BRANCH   8  12
HETATM   12  O   UNK N   1      37.217  15.742  10.776  0.00  0.00    -0.388 OA
HETATM   13  H   UNK N   1      37.911  16.036  11.386  0.00  0.00     0.210 HD
ENDBRANCH   8  12
BRANCH   9  14
HETATM   14  O   UNK N   1      37.698  13.180  12.281  0.00  0.00    -0.390 OA
HETATM   15  H   UNK N   1      38.382  12.844  12.879  0.00  0.00     0.210 HD
ENDBRANCH   9  14
BRANCH  10  16
HETATM   16  C   UNK N   1      35.068  13.087  14.035  0.00  0.00     0.198 C 
BRANCH  16  17
HETATM   17  O   UNK N   1      36.222  13.359  14.773  0.00  0.00    -0.398 OA
HETATM   18  H   UNK N   1      36.269  13.641  15.699  0.00  0.00     0.209 HD
ENDBRANCH  16  17
ENDBRANCH  10  16
ENDBRANCH   6   7
BRANCH   3  19
HETATM   19  O   UNK N   1      35.210  17.631   9.523  0.00  0.00    -0.344 OA
HETATM   20  H   UNK N   1      35.438  18.225   8.835  0.00  0.00     0.219 HD
ENDBRANCH   3  19
BRANCH   2  21
HETATM   21  C   UNK N   1      33.377  17.428   7.072  0.00  0.00     0.270 C 
HETATM   22  N   UNK N   1      32.237  17.443   6.353  0.00  0.00    -0.365 N 
HETATM   23  H   UNK N   1      31.449  16.943   6.667  0.00  0.00     0.159 HD
HETATM   24  H   UNK N   1      32.193  17.953   5.512  0.00  0.00     0.159 HD
HETATM   25  O   UNK N   1      34.290  18.181   6.769  0.00  0.00    -0.266 OA
ENDBRANCH   2  21
TORSDOF 7
ENDMDL
MODEL 2
REMARK VINA RESULT:      -5.7      2.353      6.255
REMARK  7 active torsions:
REMARK  status: ('A' for Active; 'I' for Inactive)
REMARK    1  A    between atoms: C_3  and  C_1 
REMARK    2  A    between atoms: O_14  and  C_1 
REMARK    3  A    between atoms: C_7  and  C_4 
REMARK    4  A    between atoms: C_5  and  O_15 
REMARK    5  A    between atoms: C_6  and  O_16 
REMARK       I    between atoms: N_10  and  C_7 
REMARK    6  A    between atoms: O_18  and  C_8 
REMARK    7  A    between atoms: C_9  and  N_13 
ROOT
HETATM    1  C   UNK N   1      37.075  14.678  10.201  0.00  0.00     0.188 A 
HETATM    2  C   UNK N   1      36.980  13.363  11.902  0.00  0.00     0.153 A 
HETATM    3  C   UNK N   1      35.853  14.152  11.889  0.00  0.00     0.178 A 
HETATM    4  N   UNK N   1      37.751  13.699  10.847  0.00  0.00    -0.344 N 
ATOM      5  HN  UNK N   1      38.653  13.298  10.592  1.00  0.00     0.167 HD
HETATM    6  N   UNK N   1      35.914  14.973  10.826  0.00  0.00    -0.292 N 
ENDROOT
BRANCH   6   7
HETATM    7  C   UNK N   1      34.922  15.950  10.359  0.00  0.00     0.262 C 
HETATM    8  C   UNK N   1      33.684  15.295   9.795  0.00  0.00     0.198 C 
HETATM    9  C   UNK N   1      33.121  16.473   9.093  0.00  0.00     0.182 C 
HETATM   10  C   UNK N   1      34.379  17.006   8.446  0.00  0.00     0.179 C 
HETATM   11  O   UNK N   1      35.440  16.805   9.359  0.00  0.00    -0.353 OA
BRANCH   8  12
HETATM   12  O   UNK N   1      32.831  14.874  10.816  0.00  0.00    -0.388 OA
HETATM   13  H   UNK N   1      31.912  15.167  10.924  0.00  0.00     0.210 HD
ENDBRANCH   8  12
BRANCH   9  14
HETATM   14  O   UNK N   1      32.166  16.099   8.147  0.00  0.00    -0.390 OA
HETATM   15  H   UNK N   1      31.290  16.395   7.855  0.00  0.00     0.210 HD
ENDBRANCH   9  14
BRANCH  10  16
HETATM   16  C   UNK N   1      34.241  18.485   8.120  0.00  0.00     0.198 C 
BRANCH  16  17
HETATM   17  O   UNK N   1      35.360  19.191   8.567  0.00  0.00    -0.398 OA
HETATM   18  H   UNK N   1      35.961  18.936   9.283  0.00  0.00     0.209 HD
ENDBRANCH  16  17
ENDBRANCH  10  16
ENDBRANCH   6   7
BRANCH   3  19
HETATM   19  O   UNK N   1      34.836  14.099  12.768  0.00  0.00    -0.344 OA
HETATM   20  H   UNK N   1      33.959  13.971  12.465  0.00  0.00     0.219 HD
ENDBRANCH   3  19
BRANCH   2  21
HETATM   21  C   UNK N   1      37.314  12.294  12.860  0.00  0.00     0.270 C 
HETATM   22  N   UNK N   1      37.357  12.561  14.180  0.00  0.00    -0.365 N 
HETATM   23  H   UNK N   1      37.020  13.421  14.521  0.00  0.00     0.159 HD
HETATM   24  H   UNK N   1      37.727  11.895  14.804  0.00  0.00     0.159 HD
HETATM   25  O   UNK N   1      37.574  11.169  12.464  0.00  0.00    -0.266 OA
ENDBRANCH   2  21
TORSDOF 7
ENDMDL
MODEL 3
REMARK VINA RESULT:      -5.7     15.554     17.518
REMARK  7 active torsions:
REMARK  status: ('A' for Active; 'I' for Inactive)
REMARK    1  A    between atoms: C_3  and  C_1 
REMARK    2  A    between atoms: O_14  and  C_1 
REMARK    3  A    between atoms: C_7  and  C_4 
REMARK    4  A    between atoms: C_5  and  O_15 
REMARK    5  A    between atoms: C_6  and  O_16 
REMARK       I    between atoms: N_10  and  C_7 
REMARK    6  A    between atoms: O_18  and  C_8 
REMARK    7  A    between atoms: C_9  and  N_13 
ROOT
HETATM    1  C   UNK N   1      29.368  25.133  -4.670  0.00  0.00     0.188 A 
HETATM    2  C   UNK N   1      27.491  25.867  -3.915  0.00  0.00     0.153 A 
HETATM    3  C   UNK N   1      27.685  24.589  -3.447  0.00  0.00     0.178 A 
HETATM    4  N   UNK N   1      28.542  26.207  -4.689  0.00  0.00    -0.344 N 
ATOM      5  HN  UNK N   1      28.685  27.087  -5.184  1.00  0.00     0.167 HD
HETATM    6  N   UNK N   1      28.858  24.131  -3.920  0.00  0.00    -0.292 N 
ENDROOT
BRANCH   6   7
HETATM    7  C   UNK N   1      29.523  22.850  -3.650  0.00  0.00     0.262 C 
HETATM    8  C   UNK N   1      30.629  22.974  -2.631  0.00  0.00     0.198 C 
HETATM    9  C   UNK N   1      31.303  21.679  -2.889  0.00  0.00     0.182 C 
HETATM   10  C   UNK N   1      31.300  21.691  -4.401  0.00  0.00     0.179 C 
HETATM   11  O   UNK N   1      30.083  22.279  -4.815  0.00  0.00    -0.353 OA
BRANCH   8  12
HETATM   12  O   UNK N   1      30.116  23.014  -1.334  0.00  0.00    -0.388 OA
HETATM   13  H   UNK N   1      30.589  22.713  -0.543  0.00  0.00     0.210 HD
ENDBRANCH   8  12
BRANCH   9  14
HETATM   14  O   UNK N   1      32.598  21.662  -2.370  0.00  0.00    -0.390 OA
HETATM   15  H   UNK N   1      33.491  21.903  -2.660  0.00  0.00     0.210 HD
ENDBRANCH   9  14
BRANCH  10  16
HETATM   16  C   UNK N   1      31.417  20.281  -4.958  0.00  0.00     0.198 C 
BRANCH  16  17
HETATM   17  O   UNK N   1      32.136  19.466  -4.080  0.00  0.00    -0.398 OA
HETATM   18  H   UNK N   1      31.802  18.698  -3.593  0.00  0.00     0.209 HD
ENDBRANCH  16  17
ENDBRANCH  10  16
ENDBRANCH   6   7
BRANCH   3  19
HETATM   19  O   UNK N   1      26.864  23.909  -2.626  0.00  0.00    -0.344 OA
HETATM   20  H   UNK N   1      27.182  23.582  -1.809  0.00  0.00     0.219 HD
ENDBRANCH   3  19
BRANCH   2  21
HETATM   21  C   UNK N   1      26.363  26.768  -3.617  0.00  0.00     0.270 C 
HETATM   22  N   UNK N   1      25.730  27.410  -4.620  0.00  0.00    -0.365 N 
HETATM   23  H   UNK N   1      25.914  27.166  -5.556  0.00  0.00     0.159 HD
HETATM   24  H   UNK N   1      25.083  28.123  -4.416  0.00  0.00     0.159 HD
HETATM   25  O   UNK N   1      26.008  26.955  -2.464  0.00  0.00    -0.266 OA
ENDBRANCH   2  21
TORSDOF 7
ENDMDL
MODEL 4
REMARK VINA RESULT:      -5.6      2.159      6.176
REMARK  7 active torsions:
REMARK  status: ('A' for Active; 'I' for Inactive)
REMARK    1  A    between atoms: C_3  and  C_1 
REMARK    2  A    between atoms: O_14  and  C_1 
REMARK    3  A    between atoms: C_7  and  C_4 
REMARK    4  A    between atoms: C_5  and  O_15 
REMARK    5  A    between atoms: C_6  and  O_16 
REMARK       I    between atoms: N_10  and  C_7 
REMARK    6  A    between atoms: O_18  and  C_8 
REMARK    7  A    between atoms: C_9  and  N_13 
ROOT
HETATM    1  C   UNK N   1      36.730  14.969  10.180  0.00  0.00     0.188 A 
HETATM    2  C   UNK N   1      35.888  14.241  12.022  0.00  0.00     0.153 A 
HETATM    3  C   UNK N   1      34.874  14.744  11.241  0.00  0.00     0.178 A 
HETATM    4  N   UNK N   1      37.054  14.389  11.361  0.00  0.00    -0.344 N 
ATOM      5  HN  UNK N   1      37.984  14.121  11.683  1.00  0.00     0.167 HD
HETATM    6  N   UNK N   1      35.401  15.198  10.090  0.00  0.00    -0.292 N 
ENDROOT
BRANCH   6   7
HETATM    7  C   UNK N   1      34.715  15.766   8.923  0.00  0.00     0.262 C 
HETATM    8  C   UNK N   1      34.169  17.148   9.186  0.00  0.00     0.198 C 
HETATM    9  C   UNK N   1      33.252  17.240   8.025  0.00  0.00     0.182 C 
HETATM   10  C   UNK N   1      32.626  15.865   8.089  0.00  0.00     0.179 C 
HETATM   11  O   UNK N   1      33.636  14.961   8.490  0.00  0.00    -0.353 OA
BRANCH   8  12
HETATM   12  O   UNK N   1      35.176  18.110   9.097  0.00  0.00    -0.388 OA
HETATM   13  H   UNK N   1      35.025  19.068   9.079  0.00  0.00     0.210 HD
ENDBRANCH   8  12
BRANCH   9  14
HETATM   14  O   UNK N   1      32.307  18.252   8.196  0.00  0.00    -0.390 OA
HETATM   15  H   UNK N   1      31.537  18.427   8.757  0.00  0.00     0.210 HD
ENDBRANCH   9  14
BRANCH  10  16
HETATM   16  C   UNK N   1      32.064  15.457   6.736  0.00  0.00     0.198 C 
BRANCH  16  17
HETATM   17  O   UNK N   1      32.099  16.535   5.848  0.00  0.00    -0.398 OA
HETATM   18  H   UNK N   1      32.022  17.475   6.069  0.00  0.00     0.209 HD
ENDBRANCH  16  17
ENDBRANCH  10  16
ENDBRANCH   6   7
BRANCH   3  19
HETATM   19  O   UNK N   1      33.564  14.755  11.549  0.00  0.00    -0.344 OA
HETATM   20  H   UNK N   1      33.202  14.080  12.088  0.00  0.00     0.219 HD
ENDBRANCH   3  19
BRANCH   2  21
HETATM   21  C   UNK N   1      35.767  13.603  13.345  0.00  0.00     0.270 C 
HETATM   22  N   UNK N   1      36.842  13.523  14.155  0.00  0.00    -0.365 N 
HETATM   23  H   UNK N   1      37.664  14.018  13.935  0.00  0.00     0.159 HD
HETATM   24  H   UNK N   1      36.806  12.967  14.967  0.00  0.00     0.159 HD
HETATM   25  O   UNK N   1      34.703  13.128  13.708  0.00  0.00    -0.266 OA
ENDBRANCH   2  21
TORSDOF 7
ENDMDL
MODEL 5
REMARK VINA RESULT:      -5.5      3.363      4.863
REMARK  7 active torsions:
REMARK  status: ('A' for Active; 'I' for Inactive)
REMARK    1  A    between atoms: C_3  and  C_1 
REMARK    2  A    between atoms: O_14  and  C_1 
REMARK    3  A    between atoms: C_7  and  C_4 
REMARK    4  A    between atoms: C_5  and  O_15 
REMARK    5  A    between atoms: C_6  and  O_16 
REMARK       I    between atoms: N_10  and  C_7 
REMARK    6  A    between atoms: O_18  and  C_8 
REMARK    7  A    between atoms: C_9  and  N_13 
ROOT
HETATM    1  C   UNK N   1      30.903  16.802   6.324  0.00  0.00     0.188 A 
HETATM    2  C   UNK N   1      29.473  17.848   7.546  0.00  0.00     0.153 A 
HETATM    3  C   UNK N   1      30.470  17.356   8.355  0.00  0.00     0.178 A 
HETATM    4  N   UNK N   1      29.740  17.495   6.272  0.00  0.00    -0.344 N 
ATOM      5  HN  UNK N   1      29.182  17.705   5.444  1.00  0.00     0.167 HD
HETATM    6  N   UNK N   1      31.363  16.703   7.591  0.00  0.00    -0.292 N 
ENDROOT
BRANCH   6   7
HETATM    7  C   UNK N   1      32.622  16.062   7.989  0.00  0.00     0.262 C 
HETATM    8  C   UNK N   1      32.416  14.673   8.544  0.00  0.00     0.198 C 
HETATM    9  C   UNK N   1      33.744  14.500   9.180  0.00  0.00     0.182 C 
HETATM   10  C   UNK N   1      33.888  15.853   9.839  0.00  0.00     0.179 C 
HETATM   11  O   UNK N   1      33.320  16.809   8.965  0.00  0.00    -0.353 OA
BRANCH   8  12
HETATM   12  O   UNK N   1      32.234  13.745   7.519  0.00  0.00    -0.388 OA
HETATM   13  H   UNK N   1      32.236  13.959   6.573  0.00  0.00     0.210 HD
ENDBRANCH   8  12
BRANCH   9  14
HETATM   14  O   UNK N   1      33.735  13.463  10.114  0.00  0.00    -0.390 OA
HETATM   15  H   UNK N   1      33.992  12.529  10.152  0.00  0.00     0.210 HD
ENDBRANCH   9  14
BRANCH  10  16
HETATM   16  C   UNK N   1      35.350  16.182  10.098  0.00  0.00     0.198 C 
BRANCH  16  17
HETATM   17  O   UNK N   1      35.539  17.564  10.145  0.00  0.00    -0.398 OA
HETATM   18  H   UNK N   1      36.220  18.075   9.681  0.00  0.00     0.209 HD
ENDBRANCH  16  17
ENDBRANCH  10  16
ENDBRANCH   6   7
BRANCH   3  19
HETATM   19  O   UNK N   1      30.567  17.521   9.687  0.00  0.00    -0.344 OA
HETATM   20  H   UNK N   1      31.336  17.239  10.141  0.00  0.00     0.219 HD
ENDBRANCH   3  19
BRANCH   2  21
HETATM   21  C   UNK N   1      28.313  18.663   7.949  0.00  0.00     0.270 C 
HETATM   22  N   UNK N   1      27.691  18.419   9.119  0.00  0.00    -0.365 N 
HETATM   23  H   UNK N   1      28.096  17.805   9.774  0.00  0.00     0.159 HD
HETATM   24  H   UNK N   1      26.831  18.853   9.319  0.00  0.00     0.159 HD
HETATM   25  O   UNK N   1      27.896  19.548   7.218  0.00  0.00    -0.266 OA
ENDBRANCH   2  21
TORSDOF 7
ENDMDL
MODEL 6
REMARK VINA RESULT:      -5.5      3.996      7.202
REMARK  7 active torsions:
REMARK  status: ('A' for Active; 'I' for Inactive)
REMARK    1  A    between atoms: C_3  and  C_1 
REMARK    2  A    between atoms: O_14  and  C_1 
REMARK    3  A    between atoms: C_7  and  C_4 
REMARK    4  A    between atoms: C_5  and  O_15 
REMARK    5  A    between atoms: C_6  and  O_16 
REMARK       I    between atoms: N_10  and  C_7 
REMARK    6  A    between atoms: O_18  and  C_8 
REMARK    7  A    between atoms: C_9  and  N_13 
ROOT
HETATM    1  C   UNK N   1      31.766  15.685   9.289  0.00  0.00     0.188 A 
HETATM    2  C   UNK N   1      33.827  16.281   9.455  0.00  0.00     0.153 A 
HETATM    3  C   UNK N   1      33.108  17.321   8.916  0.00  0.00     0.178 A 
HETATM    4  N   UNK N   1      32.988  15.250   9.682  0.00  0.00    -0.344 N 
ATOM      5  HN  UNK N   1      33.224  14.336  10.069  1.00  0.00     0.167 HD
HETATM    6  N   UNK N   1      31.821  16.948   8.813  0.00  0.00    -0.292 N 
ENDROOT
BRANCH   6   7
HETATM    7  C   UNK N   1      30.667  17.733   8.354  0.00  0.00     0.262 C 
HETATM    8  C   UNK N   1      29.617  17.900   9.425  0.00  0.00     0.198 C 
HETATM    9  C   UNK N   1      28.501  18.349   8.560  0.00  0.00     0.182 C 
HETATM   10  C   UNK N   1      28.651  17.365   7.422  0.00  0.00     0.179 C 
HETATM   11  O   UNK N   1      30.036  17.153   7.230  0.00  0.00    -0.353 OA
BRANCH   8  12
HETATM   12  O   UNK N   1      29.977  18.902  10.327  0.00  0.00    -0.388 OA
HETATM   13  H   UNK N   1      30.601  19.620  10.136  0.00  0.00     0.210 HD
ENDBRANCH   8  12
BRANCH   9  14
HETATM   14  O   UNK N   1      27.269  18.220   9.203  0.00  0.00    -0.390 OA
HETATM   15  H   UNK N   1      26.636  17.514   9.405  0.00  0.00     0.210 HD
ENDBRANCH   9  14
BRANCH  10  16
HETATM   16  C   UNK N   1      28.021  17.903   6.147  0.00  0.00     0.198 C 
BRANCH  16  17
HETATM   17  O   UNK N   1      26.839  18.588   6.437  0.00  0.00    -0.398 OA
HETATM   18  H   UNK N   1      26.649  19.522   6.261  0.00  0.00     0.209 HD
ENDBRANCH  16  17
ENDBRANCH  10  16
ENDBRANCH   6   7
BRANCH   3  19
HETATM   19  O   UNK N   1      33.592  18.530   8.575  0.00  0.00    -0.344 OA
HETATM   20  H   UNK N   1      33.782  18.724   7.678  0.00  0.00     0.219 HD
ENDBRANCH   3  19
BRANCH   2  21
HETATM   21  C   UNK N   1      35.264  16.260   9.784  0.00  0.00     0.270 C 
HETATM   22  N   UNK N   1      35.994  15.152   9.546  0.00  0.00    -0.365 N 
HETATM   23  H   UNK N   1      35.613  14.414   9.017  0.00  0.00     0.159 HD
HETATM   24  H   UNK N   1      36.909  15.081   9.903  0.00  0.00     0.159 HD
HETATM   25  O   UNK N   1      35.796  17.235  10.291  0.00  0.00    -0.266 OA
ENDBRANCH   2  21
TORSDOF 7
ENDMDL
MODEL 7
REMARK VINA RESULT:      -5.2      3.225      6.704
REMARK  7 active torsions:
REMARK  status: ('A' for Active; 'I' for Inactive)
REMARK    1  A    between atoms: C_3  and  C_1 
REMARK    2  A    between atoms: O_14  and  C_1 
REMARK    3  A    between atoms: C_7  and  C_4 
REMARK    4  A    between atoms: C_5  and  O_15 
REMARK    5  A    between atoms: C_6  and  O_16 
REMARK       I    between atoms: N_10  and  C_7 
REMARK    6  A    between atoms: O_18  and  C_8 
REMARK    7  A    between atoms: C_9  and  N_13 
ROOT
HETATM    1  C   UNK N   1      34.426  11.732  13.668  0.00  0.00     0.188 A 
HETATM    2  C   UNK N   1      35.088  12.422  15.597  0.00  0.00     0.153 A 
HETATM    3  C   UNK N   1      35.562  13.281  14.633  0.00  0.00     0.178 A 
HETATM    4  N   UNK N   1      34.383  11.444  14.992  0.00  0.00    -0.344 N 
ATOM      5  HN  UNK N   1      33.915  10.655  15.438  1.00  0.00     0.167 HD
HETATM    6  N   UNK N   1      35.147  12.849  13.429  0.00  0.00    -0.292 N 
ENDROOT
BRANCH   6   7
HETATM    7  C   UNK N   1      35.347  13.464  12.111  0.00  0.00     0.262 C 
HETATM    8  C   UNK N   1      36.799  13.494  11.699  0.00  0.00     0.198 C 
HETATM    9  C   UNK N   1      36.687  14.477  10.596  0.00  0.00     0.182 C 
HETATM   10  C   UNK N   1      35.792  15.500  11.258  0.00  0.00     0.179 C 
HETATM   11  O   UNK N   1      34.866  14.792  12.058  0.00  0.00    -0.353 OA
BRANCH   8  12
HETATM   12  O   UNK N   1      37.209  12.252  11.214  0.00  0.00    -0.388 OA
HETATM   13  H   UNK N   1      37.273  11.444  11.747  0.00  0.00     0.210 HD
ENDBRANCH   8  12
BRANCH   9  14
HETATM   14  O   UNK N   1      37.931  15.013  10.258  0.00  0.00    -0.390 OA
HETATM   15  H   UNK N   1      38.292  15.870   9.984  0.00  0.00     0.210 HD
ENDBRANCH   9  14
BRANCH  10  16
HETATM   16  C   UNK N   1      35.059  16.337  10.222  0.00  0.00     0.198 C 
BRANCH  16  17
HETATM   17  O   UNK N   1      35.542  17.647  10.221  0.00  0.00    -0.398 OA
HETATM   18  H   UNK N   1      36.456  17.930  10.064  0.00  0.00     0.209 HD
ENDBRANCH  16  17
ENDBRANCH  10  16
ENDBRANCH   6   7
BRANCH   3  19
HETATM   19  O   UNK N   1      36.290  14.392  14.847  0.00  0.00    -0.344 OA
HETATM   20  H   UNK N   1      36.590  14.599  15.710  0.00  0.00     0.219 HD
ENDBRANCH   3  19
BRANCH   2  21
HETATM   21  C   UNK N   1      35.262  12.529  17.056  0.00  0.00     0.270 C 
HETATM   22  N   UNK N   1      35.334  11.414  17.810  0.00  0.00    -0.365 N 
HETATM   23  H   UNK N   1      35.423  10.533  17.381  0.00  0.00     0.159 HD
HETATM   24  H   UNK N   1      35.295  11.480  18.792  0.00  0.00     0.159 HD
HETATM   25  O   UNK N   1      35.322  13.624  17.593  0.00  0.00    -0.266 OA
ENDBRANCH   2  21
TORSDOF 7
ENDMDL
MODEL 8
REMARK VINA RESULT:      -5.1      3.375      5.141
REMARK  7 active torsions:
REMARK  status: ('A' for Active; 'I' for Inactive)
REMARK    1  A    between atoms: C_3  and  C_1 
REMARK    2  A    between atoms: O_14  and  C_1 
REMARK    3  A    between atoms: C_7  and  C_4 
REMARK    4  A    between atoms: C_5  and  O_15 
REMARK    5  A    between atoms: C_6  and  O_16 
REMARK       I    between atoms: N_10  and  C_7 
REMARK    6  A    between atoms: O_18  and  C_8 
REMARK    7  A    between atoms: C_9  and  N_13 
ROOT
HETATM    1  C   UNK N   1      30.858  16.903   6.266  0.00  0.00     0.188 A 
HETATM    2  C   UNK N   1      29.443  17.984   7.476  0.00  0.00     0.153 A 
HETATM    3  C   UNK N   1      30.544  17.686   8.243  0.00  0.00     0.178 A 
HETATM    4  N   UNK N   1      29.635  17.486   6.237  0.00  0.00    -0.344 N 
ATOM      5  HN  UNK N   1      28.994  17.538   5.445  1.00  0.00     0.167 HD
HETATM    6  N   UNK N   1      31.427  17.011   7.487  0.00  0.00    -0.292 N 
ENDROOT
BRANCH   6   7
HETATM    7  C   UNK N   1      32.769  16.533   7.842  0.00  0.00     0.262 C 
HETATM    8  C   UNK N   1      33.752  16.662   6.704  0.00  0.00     0.198 C 
HETATM    9  C   UNK N   1      34.812  15.773   7.235  0.00  0.00     0.182 C 
HETATM   10  C   UNK N   1      33.957  14.624   7.722  0.00  0.00     0.179 C 
HETATM   11  O   UNK N   1      32.767  15.179   8.247  0.00  0.00    -0.353 OA
BRANCH   8  12
HETATM   12  O   UNK N   1      34.217  17.973   6.590  0.00  0.00    -0.388 OA
HETATM   13  H   UNK N   1      35.126  18.217   6.357  0.00  0.00     0.210 HD
ENDBRANCH   8  12
BRANCH   9  14
HETATM   14  O   UNK N   1      35.699  15.376   6.233  0.00  0.00    -0.390 OA
HETATM   15  H   UNK N   1      36.234  15.794   5.542  0.00  0.00     0.210 HD
ENDBRANCH   9  14
BRANCH  10  16
HETATM   16  C   UNK N   1      34.680  13.822   8.792  0.00  0.00     0.198 C 
BRANCH  16  17
HETATM   17  O   UNK N   1      33.802  13.478   9.822  0.00  0.00    -0.398 OA
HETATM   18  H   UNK N   1      33.950  13.583  10.774  0.00  0.00     0.209 HD
ENDBRANCH  16  17
ENDBRANCH  10  16
ENDBRANCH   6   7
BRANCH   3  19
HETATM   19  O   UNK N   1      30.735  18.035   9.529  0.00  0.00    -0.344 OA
HETATM   20  H   UNK N   1      31.562  17.880   9.940  0.00  0.00     0.219 HD
ENDBRANCH   3  19
BRANCH   2  21
HETATM   21  C   UNK N   1      28.249  18.748   7.879  0.00  0.00     0.270 C 
HETATM   22  N   UNK N   1      27.658  18.498   9.065  0.00  0.00    -0.365 N 
HETATM   23  H   UNK N   1      28.102  17.920   9.726  0.00  0.00     0.159 HD
HETATM   24  H   UNK N   1      26.780  18.894   9.269  0.00  0.00     0.159 HD
HETATM   25  O   UNK N   1      27.778  19.596   7.138  0.00  0.00    -0.266 OA
ENDBRANCH   2  21
TORSDOF 7
ENDMDL
MODEL 9
REMARK VINA RESULT:      -5.1      1.612      1.754
REMARK  7 active torsions:
REMARK  status: ('A' for Active; 'I' for Inactive)
REMARK    1  A    between atoms: C_3  and  C_1 
REMARK    2  A    between atoms: O_14  and  C_1 
REMARK    3  A    between atoms: C_7  and  C_4 
REMARK    4  A    between atoms: C_5  and  O_15 
REMARK    5  A    between atoms: C_6  and  O_16 
REMARK       I    between atoms: N_10  and  C_7 
REMARK    6  A    between atoms: O_18  and  C_8 
REMARK    7  A    between atoms: C_9  and  N_13 
ROOT
HETATM    1  C   UNK N   1      34.933  13.617   9.559  0.00  0.00     0.188 A 
HETATM    2  C   UNK N   1      34.748  15.507   8.546  0.00  0.00     0.153 A 
HETATM    3  C   UNK N   1      34.689  15.725   9.902  0.00  0.00     0.178 A 
HETATM    4  N   UNK N   1      34.892  14.184   8.329  0.00  0.00    -0.344 N 
ATOM      5  HN  UNK N   1      34.957  13.710   7.428  1.00  0.00     0.167 HD
HETATM    6  N   UNK N   1      34.806  14.544  10.534  0.00  0.00    -0.292 N 
ENDROOT
BRANCH   6   7
HETATM    7  C   UNK N   1      34.860  14.271  11.976  0.00  0.00     0.262 C 
HETATM    8  C   UNK N   1      36.249  14.435  12.545  0.00  0.00     0.198 C 
HETATM    9  C   UNK N   1      36.035  13.734  13.833  0.00  0.00     0.182 C 
HETATM   10  C   UNK N   1      35.268  12.527  13.340  0.00  0.00     0.179 C 
HETATM   11  O   UNK N   1      34.425  12.964  12.292  0.00  0.00    -0.353 OA
BRANCH   8  12
HETATM   12  O   UNK N   1      36.548  15.781  12.758  0.00  0.00    -0.388 OA
HETATM   13  H   UNK N   1      35.975  16.521  12.506  0.00  0.00     0.210 HD
ENDBRANCH   8  12
BRANCH   9  14
HETATM   14  O   UNK N   1      37.245  13.376  14.430  0.00  0.00    -0.390 OA
HETATM   15  H   UNK N   1      38.182  13.606  14.345  0.00  0.00     0.210 HD
ENDBRANCH   9  14
BRANCH  10  16
HETATM   16  C   UNK N   1      34.441  11.912  14.458  0.00  0.00     0.198 C 
BRANCH  16  17
HETATM   17  O   UNK N   1      34.221  12.844  15.473  0.00  0.00    -0.398 OA
HETATM   18  H   UNK N   1      33.389  13.008  15.943  0.00  0.00     0.209 HD
ENDBRANCH  16  17
ENDBRANCH  10  16
ENDBRANCH   6   7
BRANCH   3  19
HETATM   19  O   UNK N   1      34.571  16.919  10.511  0.00  0.00    -0.344 OA
HETATM   20  H   UNK N   1      34.908  17.691  10.102  0.00  0.00     0.219 HD
ENDBRANCH   3  19
BRANCH   2  21
HETATM   21  C   UNK N   1      34.704  16.517   7.473  0.00  0.00     0.270 C 
HETATM   22  N   UNK N   1      34.285  17.770   7.743  0.00  0.00    -0.365 N 
HETATM   23  H   UNK N   1      34.154  18.056   8.676  0.00  0.00     0.159 HD
HETATM   24  H   UNK N   1      34.109  18.399   7.007  0.00  0.00     0.159 HD
HETATM   25  O   UNK N   1      35.026  16.222   6.333  0.00  0.00    -0.266 OA
ENDBRANCH   2  21
TORSDOF 7
ENDMDL
