REMARK  5 active torsions:
REMARK  status: ('A' for Active; 'I' for Inactive)
REMARK    1  A    between atoms: C_9  and  C_12 
REMARK       I    between atoms: C_16  and  N_21 
REMARK    2  A    between atoms: N_21  and  C_22 
REMARK    3  A    between atoms: C_22  and  C_23 
REMARK    4  A    between atoms: C_23  and  C_24 
REMARK    5  A    between atoms: C_24  and  C_25 
ROOT
HETATM    1  C   UNK N   1      -0.031   1.876   0.228  0.00  0.00     0.047 A 
HETATM    2  C   UNK N   1      -0.684   0.686  -0.067  0.00  0.00     0.123 A 
HETATM    3  N   UNK N   1      -2.023   0.665  -0.219  0.00  0.00    -0.201 N 
ATOM      4  HN  UNK N   1      -2.484  -0.214  -0.456  1.00  0.00     0.183 HD
HETATM    5  C   UNK N   1      -2.769   1.784  -0.062  0.00  0.00     0.678 A 
HETATM    6  N   UNK N   1      -2.168   2.957   0.274  0.00  0.00    -0.195 N 
ATOM      7  HN  UNK N   1      -2.738   3.789   0.424  1.00  0.00     0.184 HD
HETATM    8  C   UNK N   1      -0.815   3.036   0.413  0.00  0.00     0.038 A 
HETATM    9  C   UNK N   1      -0.207   4.360   0.727  0.00  0.00     0.070 C 
HETATM   10  N   UNK N   1      -4.165   1.749  -0.301  0.00  0.00    -0.226 N 
HETATM   11  H   UNK N   1      -4.733   2.414   0.151  0.00  0.00     0.177 HD
ENDROOT
BRANCH   1  12
HETATM   12  C   UNK N   1       1.442   1.844   0.245  0.00  0.00     0.120 A 
HETATM   13  N   UNK N   1       2.240   2.943   0.264  0.00  0.00    -0.340 N 
HETATM   14  C   UNK N   1       3.474   2.442   0.110  0.00  0.00     0.061 A 
HETATM   15  H   UNK N   1       1.975   3.886   0.366  0.00  0.00     0.167 HD
HETATM   16  C   UNK N   1       3.413   1.087   0.011  0.00  0.00     0.066 A 
HETATM   17  C   UNK N   1       4.676   3.135   0.013  0.00  0.00     0.038 A 
HETATM   18  C   UNK N   1       4.548   0.305  -0.176  0.00  0.00    -0.032 A 
HETATM   19  N   UNK N   1       2.140   0.689   0.092  0.00  0.00    -0.339 N 
HETATM   20  C   UNK N   1       5.784   0.966  -0.280  0.00  0.00     0.015 A 
HETATM   21  C   UNK N   1       4.463  -1.178  -0.284  0.00  0.00     0.050 C 
HETATM   22  C   UNK N   1       5.848   2.378  -0.190  0.00  0.00    -0.059 A 
HETATM   23  C   UNK N   1       7.156   3.067  -0.327  0.00  0.00     0.048 C 
ATOM     24  HN  UNK N   1       1.776  -0.263   0.050  1.00  0.00     0.167 HD
ENDBRANCH   1  12
BRANCH  10  25
HETATM   25  C   UNK N   1      -4.801   0.781  -1.179  0.00  0.00     0.138 C 
BRANCH  25  26
HETATM   26  C   UNK N   1      -4.263  -0.654  -1.060  0.00  0.00     0.020 C 
BRANCH  26  27
HETATM   27  C   UNK N   1      -4.393  -1.288   0.335  0.00  0.00     0.006 C 
BRANCH  27  28
HETATM   28  C   UNK N   1      -5.835  -1.374   0.825  0.00  0.00    -0.011 C 
HETATM   29  C   UNK N   1      -6.698  -2.000  -0.288  0.00  0.00     0.034 C 
HETATM   30  C   UNK N   1      -8.159  -1.595  -0.185  0.00  0.00     0.272 C 
HETATM   31  N   UNK N   1      -8.236  -0.144  -0.114  0.00  0.00     0.084 N 
HETATM   32  C   UNK N   1      -7.771   0.231   1.213  0.00  0.00     0.272 C 
HETATM   33  C   UNK N   1      -9.630   0.237  -0.223  0.00  0.00     0.309 C 
HETATM   34  C   UNK N   1      -6.267   0.030   1.277  0.00  0.00     0.034 C 
ENDBRANCH  27  28
ENDBRANCH  26  27
ENDBRANCH  25  26
ENDBRANCH  10  25
TORSDOF 5
