MODEL 1
REMARK VINA RESULT:     -20.3      0.000      0.000
REMARK  5 active torsions:
REMARK  status: ('A' for Active; 'I' for Inactive)
REMARK    1  A    between atoms: C_5  and  N_22 
REMARK    2  A    between atoms: C_35  and  C_39 
REMARK    3  A    between atoms: C_38  and  C_43 
REMARK    4  A    between atoms: C_45  and  C_50 
REMARK    5  A    between atoms: C_55  and  O_60 
ROOT
HETATM    1  C   UNK N   1      35.312   8.543  11.307  0.00  0.00     0.009 A 
HETATM    2  C   UNK N   1      35.312   8.875  12.096  0.00  0.00    -0.020 A 
HETATM    3  C   UNK N   1      35.312   8.091  12.438  0.00  0.00     0.009 A 
HETATM    4  C   UNK N   1      35.312   9.712  12.395  0.00  0.00     0.038 A 
HETATM    5  C   UNK N   1      35.312  10.355  13.034  0.00  0.00     0.177 A 
HETATM    6  C   UNK N   1      35.312  11.103  12.683  0.00  0.00     0.241 A 
HETATM    7  O   UNK N   1      35.312  10.961  11.843  0.00  0.00    -0.271 OA
HETATM    8  N   UNK N   1      35.312  11.922  12.645  0.00  0.00    -0.346 N 
HETATM    9  C   UNK N   1      35.312  12.650  13.033  0.00  0.00     0.185 A 
HETATM   10  C   UNK N   1      35.313  12.959  13.809  0.00  0.00     0.241 A 
HETATM   11  O   UNK N   1      35.313  13.811  13.648  0.00  0.00    -0.271 OA
HETATM   12  N   UNK N   1      35.312  12.738  14.624  0.00  0.00    -0.346 N 
HETATM   13  C   UNK N   1      35.312  12.109  15.205  0.00  0.00     0.185 A 
HETATM   14  C   UNK N   1      35.312  11.593  15.946  0.00  0.00     0.137 A 
HETATM   15  C   UNK N   1      35.312  10.897  16.492  0.00  0.00     0.220 A 
HETATM   16  O   UNK N   1      35.312  10.279  17.374  0.00  0.00    -0.274 OA
HETATM   17  N   UNK N   1      35.312   9.951  16.492  0.00  0.00    -0.359 N 
HETATM   18  C   UNK N   1      35.312   9.524  15.752  0.00  0.00     0.157 A 
HETATM   19  C   UNK N   1      35.312  10.241  15.278  0.00  0.00     0.194 A 
HETATM   20  C   UNK N   1      35.312   9.789  14.531  0.00  0.00     0.242 A 
HETATM   21  O   UNK N   1      35.312   8.930  14.606  0.00  0.00    -0.271 OA
HETATM   22  N   UNK N   1      35.312   9.839  13.689  0.00  0.00    -0.346 N 
HETATM   23  N   UNK N   1      35.312  11.173  15.617  0.00  0.00    -0.344 N 
HETATM   24  C   UNK N   1      35.312  12.041  16.186  0.00  0.00     0.241 A 
HETATM   25  O   UNK N   1      35.312  12.927  15.611  0.00  0.00    -0.271 OA
HETATM   26  C   UNK N   1      35.312  12.037  17.037  0.00  0.00     0.180 A 
HETATM   27  N   UNK N   1      35.312  11.350  17.345  0.00  0.00    -0.346 N 
HETATM   28  C   UNK N   1      35.312  10.539  16.993  0.00  0.00     0.241 A 
HETATM   29  O   UNK N   1      35.312   9.610  17.235  0.00  0.00    -0.271 OA
HETATM   30  C   UNK N   1      35.312  10.521  16.011  0.00  0.00     0.181 A 
HETATM   31  N   UNK N   1      35.312  10.845  15.102  0.00  0.00    -0.346 N 
HETATM   32  C   UNK N   1      35.312  11.531  14.588  0.00  0.00     0.241 A 
HETATM   33  O   UNK N   1      35.312  11.276  13.792  0.00  0.00    -0.271 OA
HETATM   34  C   UNK N   1      35.312  11.294  16.272  0.00  0.00     0.075 A 
HETATM   35  C   UNK N   1      35.312  11.627  16.916  0.00  0.00    -0.028 A 
HETATM   36  C   UNK N   1      35.312  11.288  17.669  0.00  0.00     0.096 A 
HETATM   37  N   UNK N   1      35.312  11.898  18.223  0.00  0.00    -0.365 N 
HETATM   38  C   UNK N   1      35.312  12.614  17.814  0.00  0.00     0.042 A 
HETATM   39  C   UNK N   1      35.312  12.446  17.006  0.00  0.00    -0.002 A 
HETATM   40  C   UNK N   1      35.313  13.062  16.457  0.00  0.00     0.014 A 
HETATM   41  C   UNK N   1      35.313  13.845  16.716  0.00  0.00     0.001 A 
HETATM   42  C   UNK N   1      35.313  14.013  17.523  0.00  0.00     0.002 A 
HETATM   43  C   UNK N   1      35.313  13.398  18.073  0.00  0.00     0.030 A 
HETATM   44  C   UNK N   1      35.312  12.850  17.400  0.00  0.00     0.073 A 
HETATM   45  C   UNK N   1      35.312  12.731  18.286  0.00  0.00    -0.056 A 
HETATM   46  C   UNK N   1      35.313  13.379  18.797  0.00  0.00     0.007 A 
HETATM   47  C   UNK N   1      35.313  13.261  19.613  0.00  0.00     0.001 A 
HETATM   48  C   UNK N   1      35.312  12.495  19.919  0.00  0.00     0.000 A 
HETATM   49  C   UNK N   1      35.312  11.847  19.409  0.00  0.00     0.001 A 
HETATM   50  C   UNK N   1      35.312  11.965  18.592  0.00  0.00     0.007 A 
HETATM   51  C   UNK N   1      35.313  13.232  12.355  0.00  0.00     0.137 A 
HETATM   52  C   UNK N   1      35.313  13.456  11.507  0.00  0.00     0.222 A 
HETATM   53  O   UNK N   1      35.313  12.983  10.790  0.00  0.00    -0.273 OA
HETATM   54  N   UNK N   1      35.313  14.278  11.249  0.00  0.00    -0.333 N 
HETATM   55  C   UNK N   1      35.313  14.289  10.423  0.00  0.00     0.249 A 
HETATM   56  C   UNK N   1      35.313  15.008  10.019  0.00  0.00     0.164 A 
HETATM   57  C   UNK N   1      35.313  15.018   9.195  0.00  0.00     0.176 A 
HETATM   58  C   UNK N   1      35.313  14.310   8.773  0.00  0.00     0.180 A 
HETATM   59  C   UNK N   1      35.313  13.590   9.176  0.00  0.00     0.179 A 
HETATM   60  O   UNK N   1      35.313  13.579  10.001  0.00  0.00    -0.354 OA
HETATM   61  C   UNK N   1      35.313  12.881   8.754  0.00  0.00     0.198 A 
HETATM   62  O   UNK N   1      35.313  12.891   7.930  0.00  0.00    -0.398 OA
HETATM   63  O   UNK N   1      35.313  14.320   7.948  0.00  0.00    -0.390 OA
HETATM   64  O   UNK N   1      35.313  15.738   8.791  0.00  0.00    -0.391 OA
HETATM   65  N   UNK N   1      35.313  15.717  10.441  0.00  0.00    -0.350 N 
HETATM   66  C   UNK N   1      35.313  15.707  11.266  0.00  0.00     0.214 A 
HETATM   67  O   UNK N   1      35.313  14.987  11.669  0.00  0.00    -0.274 OA
HETATM   68  C   UNK N   1      35.313  16.416  11.688  0.00  0.00     0.117 A 
HETATM   69  H   UNK N   1      35.312  12.137  11.685  0.00  0.00     0.163 HD
HETATM   70  H   UNK N   1      35.313  13.579  15.135  0.00  0.00     0.163 HD
HETATM   71  H   UNK N   1      35.312   9.458  17.345  0.00  0.00     0.162 HD
HETATM   72  H   UNK N   1      35.312   8.918  13.340  0.00  0.00     0.163 HD
HETATM   73  H   UNK N   1      35.312  11.615  14.737  0.00  0.00     0.163 HD
HETATM   74  H   UNK N   1      35.312  11.356  18.330  0.00  0.00     0.163 HD
HETATM   75  H   UNK N   1      35.312  10.053  14.517  0.00  0.00     0.163 HD
HETATM   76  H   UNK N   1      35.312  11.790  19.202  0.00  0.00     0.165 HD
HETATM   77  H   UNK N   1      35.313  15.068  11.837  0.00  0.00     0.165 HD
HETATM   78  H   UNK N   1      35.313  13.737   7.455  0.00  0.00     0.209 HD
HETATM   79  H   UNK N   1      35.313  15.166   7.474  0.00  0.00     0.210 HD
HETATM   80  H   UNK N   1      35.313  16.572   9.287  0.00  0.00     0.210 HD
HETATM   81  H   UNK N   1      35.313  16.576   9.959  0.00  0.00     0.163 HD
ENDROOT
TORSDOF 5
ENDMDL
MODEL 2
REMARK VINA RESULT:     -20.0      5.601      9.938
REMARK  5 active torsions:
REMARK  status: ('A' for Active; 'I' for Inactive)
REMARK    1  A    between atoms: C_5  and  N_22 
REMARK    2  A    between atoms: C_35  and  C_39 
REMARK    3  A    between atoms: C_38  and  C_43 
REMARK    4  A    between atoms: C_45  and  C_50 
REMARK    5  A    between atoms: C_55  and  O_60 
ROOT
HETATM    1  C   UNK N   1      34.952  14.046   3.895  0.00  0.00     0.009 A 
HETATM    2  C   UNK N   1      34.296  14.481   4.233  0.00  0.00    -0.020 A 
HETATM    3  C   UNK N   1      33.903  14.501   3.474  0.00  0.00     0.009 A 
HETATM    4  C   UNK N   1      34.132  14.775   5.056  0.00  0.00     0.038 A 
HETATM    5  C   UNK N   1      33.646  15.195   5.694  0.00  0.00     0.177 A 
HETATM    6  C   UNK N   1      34.044  15.165   6.418  0.00  0.00     0.241 A 
HETATM    7  O   UNK N   1      34.766  14.740   6.265  0.00  0.00    -0.271 OA
HETATM    8  N   UNK N   1      34.174  15.295   7.218  0.00  0.00    -0.346 N 
HETATM    9  C   UNK N   1      33.919  15.612   7.935  0.00  0.00     0.185 A 
HETATM   10  C   UNK N   1      33.272  16.036   8.251  0.00  0.00     0.241 A 
HETATM   11  O   UNK N   1      33.515  16.115   9.080  0.00  0.00    -0.271 OA
HETATM   12  N   UNK N   1      32.529  16.383   8.050  0.00  0.00    -0.346 N 
HETATM   13  C   UNK N   1      31.943  16.544   7.447  0.00  0.00     0.185 A 
HETATM   14  C   UNK N   1      31.230  16.802   6.957  0.00  0.00     0.137 A 
HETATM   15  C   UNK N   1      30.667  16.935   6.288  0.00  0.00     0.220 A 
HETATM   16  O   UNK N   1      29.818  17.241   5.700  0.00  0.00    -0.274 OA
HETATM   17  N   UNK N   1      30.555  16.763   5.364  0.00  0.00    -0.359 N 
HETATM   18  C   UNK N   1      31.156  16.334   4.934  0.00  0.00     0.157 A 
HETATM   19  C   UNK N   1      31.658  16.239   5.624  0.00  0.00     0.194 A 
HETATM   20  C   UNK N   1      32.262  15.803   5.170  0.00  0.00     0.242 A 
HETATM   21  O   UNK N   1      32.094  15.682   4.332  0.00  0.00    -0.271 OA
HETATM   22  N   UNK N   1      33.009  15.412   5.203  0.00  0.00    -0.346 N 
HETATM   23  N   UNK N   1      31.470  16.570   6.541  0.00  0.00    -0.344 N 
HETATM   24  C   UNK N   1      31.072  16.998   7.399  0.00  0.00     0.241 A 
HETATM   25  O   UNK N   1      31.683  16.886   8.253  0.00  0.00    -0.271 OA
HETATM   26  C   UNK N   1      30.323  17.401   7.410  0.00  0.00     0.180 A 
HETATM   27  N   UNK N   1      29.970  17.422   6.746  0.00  0.00    -0.346 N 
HETATM   28  C   UNK N   1      30.184  17.107   5.947  0.00  0.00     0.241 A 
HETATM   29  O   UNK N   1      29.861  17.053   5.045  0.00  0.00    -0.271 OA
HETATM   30  C   UNK N   1      31.046  16.638   5.911  0.00  0.00     0.181 A 
HETATM   31  N   UNK N   1      31.884  16.266   6.212  0.00  0.00    -0.346 N 
HETATM   32  C   UNK N   1      32.418  16.146   6.872  0.00  0.00     0.241 A 
HETATM   33  O   UNK N   1      33.088  15.722   6.608  0.00  0.00    -0.271 OA
HETATM   34  C   UNK N   1      30.908  16.903   6.671  0.00  0.00     0.075 A 
HETATM   35  C   UNK N   1      30.381  17.269   7.008  0.00  0.00    -0.028 A 
HETATM   36  C   UNK N   1      29.678  17.564   6.691  0.00  0.00     0.096 A 
HETATM   37  N   UNK N   1      29.262  17.938   7.297  0.00  0.00    -0.365 N 
HETATM   38  C   UNK N   1      29.707  17.874   7.988  0.00  0.00     0.042 A 
HETATM   39  C   UNK N   1      30.398  17.460   7.809  0.00  0.00    -0.002 A 
HETATM   40  C   UNK N   1      30.954  17.312   8.401  0.00  0.00     0.014 A 
HETATM   41  C   UNK N   1      30.820  17.577   9.170  0.00  0.00     0.001 A 
HETATM   42  C   UNK N   1      30.129  17.991   9.349  0.00  0.00     0.002 A 
HETATM   43  C   UNK N   1      29.572  18.140   8.758  0.00  0.00     0.030 A 
HETATM   44  C   UNK N   1      30.099  17.721   8.211  0.00  0.00     0.073 A 
HETATM   45  C   UNK N   1      29.305  18.119   8.111  0.00  0.00    -0.056 A 
HETATM   46  C   UNK N   1      28.933  18.480   8.753  0.00  0.00     0.007 A 
HETATM   47  C   UNK N   1      28.201  18.845   8.653  0.00  0.00     0.001 A 
HETATM   48  C   UNK N   1      27.840  18.851   7.910  0.00  0.00     0.000 A 
HETATM   49  C   UNK N   1      28.212  18.492   7.268  0.00  0.00     0.001 A 
HETATM   50  C   UNK N   1      28.945  18.125   7.369  0.00  0.00     0.007 A 
HETATM   51  C   UNK N   1      34.584  15.396   8.490  0.00  0.00     0.137 A 
HETATM   52  C   UNK N   1      35.357  15.034   8.694  0.00  0.00     0.222 A 
HETATM   53  O   UNK N   1      35.932  14.608   8.219  0.00  0.00    -0.273 OA
HETATM   54  N   UNK N   1      35.681  15.061   9.491  0.00  0.00    -0.333 N 
HETATM   55  C   UNK N   1      36.410  14.671   9.487  0.00  0.00     0.249 A 
HETATM   56  C   UNK N   1      36.850  14.610  10.181  0.00  0.00     0.164 A 
HETATM   57  C   UNK N   1      37.577  14.221  10.176  0.00  0.00     0.176 A 
HETATM   58  C   UNK N   1      37.864  13.892   9.477  0.00  0.00     0.180 A 
HETATM   59  C   UNK N   1      37.425  13.952   8.781  0.00  0.00     0.179 A 
HETATM   60  O   UNK N   1      36.697  14.342   8.786  0.00  0.00    -0.354 OA
HETATM   61  C   UNK N   1      37.712  13.624   8.082  0.00  0.00     0.198 A 
HETATM   62  O   UNK N   1      38.438  13.234   8.077  0.00  0.00    -0.398 OA
HETATM   63  O   UNK N   1      38.592  13.502   9.472  0.00  0.00    -0.390 OA
HETATM   64  O   UNK N   1      38.018  14.160  10.872  0.00  0.00    -0.391 OA
HETATM   65  N   UNK N   1      36.564  14.939  10.882  0.00  0.00    -0.350 N 
HETATM   66  C   UNK N   1      35.836  15.329  10.887  0.00  0.00     0.214 A 
HETATM   67  O   UNK N   1      35.396  15.389  10.191  0.00  0.00    -0.274 OA
HETATM   68  C   UNK N   1      35.549  15.658  11.587  0.00  0.00     0.117 A 
HETATM   69  H   UNK N   1      35.045  14.879   7.410  0.00  0.00     0.163 HD
HETATM   70  H   UNK N   1      32.179  16.778   8.881  0.00  0.00     0.163 HD
HETATM   71  H   UNK N   1      29.746  17.078   4.898  0.00  0.00     0.162 HD
HETATM   72  H   UNK N   1      33.206  15.079   4.298  0.00  0.00     0.163 HD
HETATM   73  H   UNK N   1      32.297  16.232   6.956  0.00  0.00     0.163 HD
HETATM   74  H   UNK N   1      29.104  17.890   6.769  0.00  0.00     0.163 HD
HETATM   75  H   UNK N   1      32.305  15.844   5.427  0.00  0.00     0.163 HD
HETATM   76  H   UNK N   1      28.388  18.383   7.209  0.00  0.00     0.165 HD
HETATM   77  H   UNK N   1      35.258  15.484  10.273  0.00  0.00     0.165 HD
HETATM   78  H   UNK N   1      38.956  13.163   8.893  0.00  0.00     0.209 HD
HETATM   79  H   UNK N   1      39.109  13.431  10.289  0.00  0.00     0.210 HD
HETATM   80  H   UNK N   1      37.681  14.547  11.695  0.00  0.00     0.210 HD
HETATM   81  H   UNK N   1      37.089  14.867  11.711  0.00  0.00     0.163 HD
ENDROOT
TORSDOF 5
ENDMDL
MODEL 3
REMARK VINA RESULT:     -19.9      6.155      9.283
REMARK  5 active torsions:
REMARK  status: ('A' for Active; 'I' for Inactive)
REMARK    1  A    between atoms: C_5  and  N_22 
REMARK    2  A    between atoms: C_35  and  C_39 
REMARK    3  A    between atoms: C_38  and  C_43 
REMARK    4  A    between atoms: C_45  and  C_50 
REMARK    5  A    between atoms: C_55  and  O_60 
ROOT
HETATM    1  C   UNK N   1      32.013  16.874   2.971  0.00  0.00     0.009 A 
HETATM    2  C   UNK N   1      32.520  16.582   3.595  0.00  0.00    -0.020 A 
HETATM    3  C   UNK N   1      33.087  16.302   3.019  0.00  0.00     0.009 A 
HETATM    4  C   UNK N   1      32.446  16.590   4.481  0.00  0.00     0.038 A 
HETATM    5  C   UNK N   1      32.717  16.416   5.328  0.00  0.00     0.177 A 
HETATM    6  C   UNK N   1      32.157  16.695   5.868  0.00  0.00     0.241 A 
HETATM    7  O   UNK N   1      31.538  17.040   5.396  0.00  0.00    -0.271 OA
HETATM    8  N   UNK N   1      31.820  16.848   6.600  0.00  0.00    -0.346 N 
HETATM    9  C   UNK N   1      31.858  16.798   7.422  0.00  0.00     0.185 A 
HETATM   10  C   UNK N   1      32.364  16.508   8.020  0.00  0.00     0.241 A 
HETATM   11  O   UNK N   1      31.917  16.721   8.732  0.00  0.00    -0.271 OA
HETATM   12  N   UNK N   1      33.098  16.113   8.152  0.00  0.00    -0.346 N 
HETATM   13  C   UNK N   1      33.798  15.753   7.815  0.00  0.00     0.185 A 
HETATM   14  C   UNK N   1      34.584  15.342   7.646  0.00  0.00     0.137 A 
HETATM   15  C   UNK N   1      35.281  14.985   7.235  0.00  0.00     0.220 A 
HETATM   16  O   UNK N   1      36.218  14.495   7.030  0.00  0.00    -0.274 OA
HETATM   17  N   UNK N   1      35.635  14.828   6.371  0.00  0.00    -0.359 N 
HETATM   18  C   UNK N   1      35.203  15.082   5.680  0.00  0.00     0.157 A 
HETATM   19  C   UNK N   1      34.555  15.410   6.140  0.00  0.00     0.194 A 
HETATM   20  C   UNK N   1      34.126  15.664   5.423  0.00  0.00     0.242 A 
HETATM   21  O   UNK N   1      34.508  15.488   4.670  0.00  0.00    -0.271 OA
HETATM   22  N   UNK N   1      33.434  16.042   5.125  0.00  0.00    -0.346 N 
HETATM   23  N   UNK N   1      34.478  15.416   7.129  0.00  0.00    -0.344 N 
HETATM   24  C   UNK N   1      34.609  15.310   8.153  0.00  0.00     0.241 A 
HETATM   25  O   UNK N   1      33.818  15.710   8.727  0.00  0.00    -0.271 OA
HETATM   26  C   UNK N   1      35.291  14.935   8.497  0.00  0.00     0.180 A 
HETATM   27  N   UNK N   1      35.794  14.686   7.996  0.00  0.00    -0.346 N 
HETATM   28  C   UNK N   1      35.816  14.706   7.112  0.00  0.00     0.241 A 
HETATM   29  O   UNK N   1      36.357  14.445   6.363  0.00  0.00    -0.271 OA
HETATM   30  C   UNK N   1      35.037  15.134   6.694  0.00  0.00     0.181 A 
HETATM   31  N   UNK N   1      34.188  15.588   6.620  0.00  0.00    -0.346 N 
HETATM   32  C   UNK N   1      33.520  15.928   7.036  0.00  0.00     0.241 A 
HETATM   33  O   UNK N   1      32.979  16.236   6.478  0.00  0.00    -0.271 OA
HETATM   34  C   UNK N   1      34.957  15.148   7.507  0.00  0.00     0.075 A 
HETATM   35  C   UNK N   1      35.348  14.921   8.073  0.00  0.00    -0.028 A 
HETATM   36  C   UNK N   1      36.076  14.533   8.071  0.00  0.00     0.096 A 
HETATM   37  N   UNK N   1      36.292  14.391   8.854  0.00  0.00    -0.365 N 
HETATM   38  C   UNK N   1      35.697  14.690   9.340  0.00  0.00     0.042 A 
HETATM   39  C   UNK N   1      35.113  15.017   8.858  0.00  0.00    -0.002 A 
HETATM   40  C   UNK N   1      34.444  15.361   9.196  0.00  0.00     0.014 A 
HETATM   41  C   UNK N   1      34.357  15.378  10.016  0.00  0.00     0.001 A 
HETATM   42  C   UNK N   1      34.941  15.050  10.498  0.00  0.00     0.002 A 
HETATM   43  C   UNK N   1      35.611  14.706  10.161  0.00  0.00     0.030 A 
HETATM   44  C   UNK N   1      35.278  14.911   9.387  0.00  0.00     0.073 A 
HETATM   45  C   UNK N   1      36.031  14.502   9.639  0.00  0.00    -0.056 A 
HETATM   46  C   UNK N   1      36.197  14.385  10.439  0.00  0.00     0.007 A 
HETATM   47  C   UNK N   1      36.894  14.006  10.665  0.00  0.00     0.001 A 
HETATM   48  C   UNK N   1      37.426  13.744  10.091  0.00  0.00     0.000 A 
HETATM   49  C   UNK N   1      37.260  13.861   9.291  0.00  0.00     0.001 A 
HETATM   50  C   UNK N   1      36.562  14.240   9.066  0.00  0.00     0.007 A 
HETATM   51  C   UNK N   1      31.098  17.193   7.676  0.00  0.00     0.137 A 
HETATM   52  C   UNK N   1      30.336  17.603   7.535  0.00  0.00     0.222 A 
HETATM   53  O   UNK N   1      29.939  17.840   6.811  0.00  0.00    -0.273 OA
HETATM   54  N   UNK N   1      29.823  17.853   8.179  0.00  0.00    -0.333 N 
HETATM   55  C   UNK N   1      29.157  18.219   7.852  0.00  0.00     0.249 A 
HETATM   56  C   UNK N   1      28.565  18.516   8.343  0.00  0.00     0.164 A 
HETATM   57  C   UNK N   1      27.902  18.880   8.017  0.00  0.00     0.176 A 
HETATM   58  C   UNK N   1      27.829  18.947   7.198  0.00  0.00     0.180 A 
HETATM   59  C   UNK N   1      28.421  18.651   6.705  0.00  0.00     0.179 A 
HETATM   60  O   UNK N   1      29.085  18.286   7.033  0.00  0.00    -0.354 OA
HETATM   61  C   UNK N   1      28.349  18.718   5.887  0.00  0.00     0.198 A 
HETATM   62  O   UNK N   1      27.685  19.082   5.560  0.00  0.00    -0.398 OA
HETATM   63  O   UNK N   1      27.165  19.312   6.871  0.00  0.00    -0.390 OA
HETATM   64  O   UNK N   1      27.309  19.177   8.509  0.00  0.00    -0.391 OA
HETATM   65  N   UNK N   1      28.637  18.448   9.163  0.00  0.00    -0.350 N 
HETATM   66  C   UNK N   1      29.301  18.084   9.490  0.00  0.00     0.214 A 
HETATM   67  O   UNK N   1      29.893  17.787   8.998  0.00  0.00    -0.274 OA
HETATM   68  C   UNK N   1      29.373  18.016  10.310  0.00  0.00     0.117 A 
HETATM   69  H   UNK N   1      30.971  17.306   6.404  0.00  0.00     0.163 HD
HETATM   70  H   UNK N   1      33.192  16.029   9.128  0.00  0.00     0.163 HD
HETATM   71  H   UNK N   1      36.502  14.371   6.269  0.00  0.00     0.162 HD
HETATM   72  H   UNK N   1      33.500  16.042   4.142  0.00  0.00     0.163 HD
HETATM   73  H   UNK N   1      33.608  15.877   7.173  0.00  0.00     0.163 HD
HETATM   74  H   UNK N   1      36.580  14.254   8.403  0.00  0.00     0.163 HD
HETATM   75  H   UNK N   1      34.017  15.714   5.658  0.00  0.00     0.163 HD
HETATM   76  H   UNK N   1      37.115  13.943   9.155  0.00  0.00     0.165 HD
HETATM   77  H   UNK N   1      29.997  17.726   9.140  0.00  0.00     0.165 HD
HETATM   78  H   UNK N   1      26.989  19.432   6.137  0.00  0.00     0.209 HD
HETATM   79  H   UNK N   1      26.469  19.661   7.449  0.00  0.00     0.210 HD
HETATM   80  H   UNK N   1      27.394  19.098   9.472  0.00  0.00     0.210 HD
HETATM   81  H   UNK N   1      27.930  18.803   9.750  0.00  0.00     0.163 HD
ENDROOT
TORSDOF 5
ENDMDL
MODEL 4
REMARK VINA RESULT:     -19.1      1.181      6.613
REMARK  5 active torsions:
REMARK  status: ('A' for Active; 'I' for Inactive)
REMARK    1  A    between atoms: C_5  and  N_22 
REMARK    2  A    between atoms: C_35  and  C_39 
REMARK    3  A    between atoms: C_38  and  C_43 
REMARK    4  A    between atoms: C_45  and  C_50 
REMARK    5  A    between atoms: C_55  and  O_60 
ROOT
HETATM    1  C   UNK N   1      35.331   8.055  14.483  0.00  0.00     0.009 A 
HETATM    2  C   UNK N   1      35.312   8.732  13.959  0.00  0.00    -0.020 A 
HETATM    3  C   UNK N   1      35.309   8.218  13.276  0.00  0.00     0.009 A 
HETATM    4  C   UNK N   1      35.301   9.608  14.112  0.00  0.00     0.038 A 
HETATM    5  C   UNK N   1      35.283  10.481  13.872  0.00  0.00     0.177 A 
HETATM    6  C   UNK N   1      35.286  10.960  14.546  0.00  0.00     0.241 A 
HETATM    7  O   UNK N   1      35.306  10.423  15.207  0.00  0.00    -0.271 OA
HETATM    8  N   UNK N   1      35.283  11.654  14.983  0.00  0.00    -0.346 N 
HETATM    9  C   UNK N   1      35.270  12.479  15.003  0.00  0.00     0.185 A 
HETATM   10  C   UNK N   1      35.251  13.129  14.480  0.00  0.00     0.241 A 
HETATM   11  O   UNK N   1      35.250  13.792  15.039  0.00  0.00    -0.271 OA
HETATM   12  N   UNK N   1      35.235  13.338  13.662  0.00  0.00    -0.346 N 
HETATM   13  C   UNK N   1      35.226  13.077  12.846  0.00  0.00     0.185 A 
HETATM   14  C   UNK N   1      35.213  12.992  11.948  0.00  0.00     0.137 A 
HETATM   15  C   UNK N   1      35.205  12.656  11.129  0.00  0.00     0.220 A 
HETATM   16  O   UNK N   1      35.189  12.551  10.058  0.00  0.00    -0.274 OA
HETATM   17  N   UNK N   1      35.210  11.832  10.664  0.00  0.00    -0.359 N 
HETATM   18  C   UNK N   1      35.229  11.097  11.097  0.00  0.00     0.157 A 
HETATM   19  C   UNK N   1      35.235  11.486  11.863  0.00  0.00     0.194 A 
HETATM   20  C   UNK N   1      35.254  10.726  12.291  0.00  0.00     0.242 A 
HETATM   21  O   UNK N   1      35.257  10.015  11.802  0.00  0.00    -0.271 OA
HETATM   22  N   UNK N   1      35.272  10.355  13.048  0.00  0.00    -0.346 N 
HETATM   23  N   UNK N   1      35.222  12.465  12.027  0.00  0.00    -0.344 N 
HETATM   24  C   UNK N   1      35.205  13.501  11.959  0.00  0.00     0.241 A 
HETATM   25  O   UNK N   1      35.212  13.988  12.895  0.00  0.00    -0.271 OA
HETATM   26  C   UNK N   1      35.186  13.916  11.217  0.00  0.00     0.180 A 
HETATM   27  N   UNK N   1      35.184  13.470  10.610  0.00  0.00    -0.346 N 
HETATM   28  C   UNK N   1      35.196  12.590  10.517  0.00  0.00     0.241 A 
HETATM   29  O   UNK N   1      35.196  11.901   9.850  0.00  0.00    -0.271 OA
HETATM   30  C   UNK N   1      35.217  12.091  11.363  0.00  0.00     0.181 A 
HETATM   31  N   UNK N   1      35.235  11.926  12.314  0.00  0.00    -0.346 N 
HETATM   32  C   UNK N   1      35.243  12.270  13.099  0.00  0.00     0.241 A 
HETATM   33  O   UNK N   1      35.261  11.656  13.666  0.00  0.00    -0.271 OA
HETATM   34  C   UNK N   1      35.207  12.893  11.516  0.00  0.00     0.075 A 
HETATM   35  C   UNK N   1      35.191  13.499  11.120  0.00  0.00    -0.028 A 
HETATM   36  C   UNK N   1      35.177  13.575  10.298  0.00  0.00     0.096 A 
HETATM   37  N   UNK N   1      35.161  14.379  10.116  0.00  0.00    -0.365 N 
HETATM   38  C   UNK N   1      35.166  14.801  10.825  0.00  0.00     0.042 A 
HETATM   39  C   UNK N   1      35.185  14.257  11.445  0.00  0.00    -0.002 A 
HETATM   40  C   UNK N   1      35.193  14.523  12.226  0.00  0.00     0.014 A 
HETATM   41  C   UNK N   1      35.183  15.332  12.387  0.00  0.00     0.001 A 
HETATM   42  C   UNK N   1      35.165  15.875  11.767  0.00  0.00     0.002 A 
HETATM   43  C   UNK N   1      35.156  15.610  10.986  0.00  0.00     0.030 A 
HETATM   44  C   UNK N   1      35.174  14.802  11.301  0.00  0.00     0.073 A 
HETATM   45  C   UNK N   1      35.155  15.134  10.471  0.00  0.00    -0.056 A 
HETATM   46  C   UNK N   1      35.141  15.950  10.346  0.00  0.00     0.007 A 
HETATM   47  C   UNK N   1      35.124  16.249   9.578  0.00  0.00     0.001 A 
HETATM   48  C   UNK N   1      35.121  15.733   8.934  0.00  0.00     0.000 A 
HETATM   49  C   UNK N   1      35.136  14.918   9.059  0.00  0.00     0.001 A 
HETATM   50  C   UNK N   1      35.153  14.619   9.828  0.00  0.00     0.007 A 
HETATM   51  C   UNK N   1      35.281  12.651  15.879  0.00  0.00     0.137 A 
HETATM   52  C   UNK N   1      35.299  12.429  16.728  0.00  0.00     0.222 A 
HETATM   53  O   UNK N   1      35.317  11.665  17.119  0.00  0.00    -0.273 OA
HETATM   54  N   UNK N   1      35.300  13.017  17.357  0.00  0.00    -0.333 N 
HETATM   55  C   UNK N   1      35.317  12.620  18.081  0.00  0.00     0.249 A 
HETATM   56  C   UNK N   1      35.322  13.047  18.787  0.00  0.00     0.164 A 
HETATM   57  C   UNK N   1      35.340  12.651  19.509  0.00  0.00     0.176 A 
HETATM   58  C   UNK N   1      35.353  11.826  19.527  0.00  0.00     0.180 A 
HETATM   59  C   UNK N   1      35.349  11.398  18.822  0.00  0.00     0.179 A 
HETATM   60  O   UNK N   1      35.331  11.795  18.099  0.00  0.00    -0.354 OA
HETATM   61  C   UNK N   1      35.362  10.574  18.840  0.00  0.00     0.198 A 
HETATM   62  O   UNK N   1      35.380  10.177  19.563  0.00  0.00    -0.398 OA
HETATM   63  O   UNK N   1      35.371  11.429  20.251  0.00  0.00    -0.390 OA
HETATM   64  O   UNK N   1      35.345  13.078  20.215  0.00  0.00    -0.391 OA
HETATM   65  N   UNK N   1      35.309  13.872  18.769  0.00  0.00    -0.350 N 
HETATM   66  C   UNK N   1      35.291  14.269  18.046  0.00  0.00     0.214 A 
HETATM   67  O   UNK N   1      35.286  13.841  17.341  0.00  0.00    -0.274 OA
HETATM   68  C   UNK N   1      35.278  15.094  18.029  0.00  0.00     0.117 A 
HETATM   69  H   UNK N   1      35.302  11.369  15.924  0.00  0.00     0.163 HD
HETATM   70  H   UNK N   1      35.219  14.322  13.632  0.00  0.00     0.163 HD
HETATM   71  H   UNK N   1      35.194  11.823   9.679  0.00  0.00     0.162 HD
HETATM   72  H   UNK N   1      35.285   9.382  12.898  0.00  0.00     0.163 HD
HETATM   73  H   UNK N   1      35.239  12.417  13.011  0.00  0.00     0.163 HD
HETATM   74  H   UNK N   1      35.162  13.959   9.756  0.00  0.00     0.163 HD
HETATM   75  H   UNK N   1      35.253  10.949  12.433  0.00  0.00     0.163 HD
HETATM   76  H   UNK N   1      35.141  14.766   9.212  0.00  0.00     0.165 HD
HETATM   77  H   UNK N   1      35.282  13.994  17.234  0.00  0.00     0.165 HD
HETATM   78  H   UNK N   1      35.385  10.679  20.392  0.00  0.00     0.209 HD
HETATM   79  H   UNK N   1      35.377  11.932  21.080  0.00  0.00     0.210 HD
HETATM   80  H   UNK N   1      35.329  14.048  20.195  0.00  0.00     0.210 HD
HETATM   81  H   UNK N   1      35.315  14.383  19.611  0.00  0.00     0.163 HD
ENDROOT
TORSDOF 5
ENDMDL
MODEL 5
REMARK VINA RESULT:     -19.1      2.439      4.471
REMARK  5 active torsions:
REMARK  status: ('A' for Active; 'I' for Inactive)
REMARK    1  A    between atoms: C_5  and  N_22 
REMARK    2  A    between atoms: C_35  and  C_39 
REMARK    3  A    between atoms: C_38  and  C_43 
REMARK    4  A    between atoms: C_45  and  C_50 
REMARK    5  A    between atoms: C_55  and  O_60 
ROOT
HETATM    1  C   UNK N   1      33.083  10.626   7.210  0.00  0.00     0.009 A 
HETATM    2  C   UNK N   1      33.412  10.834   7.972  0.00  0.00    -0.020 A 
HETATM    3  C   UNK N   1      33.378  10.017   8.223  0.00  0.00     0.009 A 
HETATM    4  C   UNK N   1      33.672  11.609   8.322  0.00  0.00     0.038 A 
HETATM    5  C   UNK N   1      34.009  12.144   8.971  0.00  0.00     0.177 A 
HETATM    6  C   UNK N   1      34.034  12.927   8.708  0.00  0.00     0.241 A 
HETATM    7  O   UNK N   1      33.724  12.911   7.915  0.00  0.00    -0.271 OA
HETATM    8  N   UNK N   1      34.177  13.734   8.742  0.00  0.00    -0.346 N 
HETATM    9  C   UNK N   1      34.446  14.389   9.165  0.00  0.00     0.185 A 
HETATM   10  C   UNK N   1      34.766  14.577   9.914  0.00  0.00     0.241 A 
HETATM   11  O   UNK N   1      34.874  15.434   9.837  0.00  0.00    -0.271 OA
HETATM   12  N   UNK N   1      34.999  14.241  10.653  0.00  0.00    -0.346 N 
HETATM   13  C   UNK N   1      35.075  13.541  11.140  0.00  0.00     0.185 A 
HETATM   14  C   UNK N   1      35.226  12.927  11.785  0.00  0.00     0.137 A 
HETATM   15  C   UNK N   1      35.278  12.167  12.234  0.00  0.00     0.220 A 
HETATM   16  O   UNK N   1      35.457  11.433  13.001  0.00  0.00    -0.274 OA
HETATM   17  N   UNK N   1      35.097  11.241  12.153  0.00  0.00    -0.359 N 
HETATM   18  C   UNK N   1      34.767  10.933  11.428  0.00  0.00     0.157 A 
HETATM   19  C   UNK N   1      34.744  11.703  11.048  0.00  0.00     0.194 A 
HETATM   20  C   UNK N   1      34.406  11.371  10.315  0.00  0.00     0.242 A 
HETATM   21  O   UNK N   1      34.268  10.519  10.312  0.00  0.00    -0.271 OA
HETATM   22  N   UNK N   1      34.132  11.543   9.536  0.00  0.00    -0.346 N 
HETATM   23  N   UNK N   1      35.035  12.565  11.443  0.00  0.00    -0.344 N 
HETATM   24  C   UNK N   1      35.392  13.331  12.047  0.00  0.00     0.241 A 
HETATM   25  O   UNK N   1      35.367  14.281  11.587  0.00  0.00    -0.271 OA
HETATM   26  C   UNK N   1      35.678  13.202  12.838  0.00  0.00     0.180 A 
HETATM   27  N   UNK N   1      35.651  12.485  13.066  0.00  0.00    -0.346 N 
HETATM   28  C   UNK N   1      35.378  11.743  12.669  0.00  0.00     0.241 A 
HETATM   29  O   UNK N   1      35.283  10.800  12.814  0.00  0.00    -0.271 OA
HETATM   30  C   UNK N   1      35.044  11.869  11.754  0.00  0.00     0.181 A 
HETATM   31  N   UNK N   1      34.800  12.320  10.936  0.00  0.00    -0.346 N 
HETATM   32  C   UNK N   1      34.757  13.066  10.516  0.00  0.00     0.241 A 
HETATM   33  O   UNK N   1      34.440  12.934   9.755  0.00  0.00    -0.271 OA
HETATM   34  C   UNK N   1      35.279  12.587  12.063  0.00  0.00     0.075 A 
HETATM   35  C   UNK N   1      35.559  12.818  12.690  0.00  0.00    -0.028 A 
HETATM   36  C   UNK N   1      35.748  12.376  13.361  0.00  0.00     0.096 A 
HETATM   37  N   UNK N   1      36.051  12.892  13.929  0.00  0.00    -0.365 N 
HETATM   38  C   UNK N   1      36.050  13.652  13.609  0.00  0.00     0.042 A 
HETATM   39  C   UNK N   1      35.746  13.607  12.844  0.00  0.00    -0.002 A 
HETATM   40  C   UNK N   1      35.678  14.290  12.386  0.00  0.00     0.014 A 
HETATM   41  C   UNK N   1      35.914  15.018  12.693  0.00  0.00     0.001 A 
HETATM   42  C   UNK N   1      36.218  15.063  13.458  0.00  0.00     0.002 A 
HETATM   43  C   UNK N   1      36.286  14.381  13.917  0.00  0.00     0.030 A 
HETATM   44  C   UNK N   1      35.955  13.944  13.245  0.00  0.00     0.073 A 
HETATM   45  C   UNK N   1      36.231  13.697  14.058  0.00  0.00    -0.056 A 
HETATM   46  C   UNK N   1      36.526  14.256  14.589  0.00  0.00     0.007 A 
HETATM   47  C   UNK N   1      36.779  14.022  15.338  0.00  0.00     0.001 A 
HETATM   48  C   UNK N   1      36.736  13.227  15.557  0.00  0.00     0.000 A 
HETATM   49  C   UNK N   1      36.441  12.668  15.028  0.00  0.00     0.001 A 
HETATM   50  C   UNK N   1      36.188  12.903  14.278  0.00  0.00     0.007 A 
HETATM   51  C   UNK N   1      34.328  15.057   8.585  0.00  0.00     0.137 A 
HETATM   52  C   UNK N   1      34.085  15.401   7.815  0.00  0.00     0.222 A 
HETATM   53  O   UNK N   1      33.754  15.043   7.108  0.00  0.00    -0.273 OA
HETATM   54  N   UNK N   1      34.155  16.242   7.646  0.00  0.00    -0.333 N 
HETATM   55  C   UNK N   1      33.879  16.374   6.878  0.00  0.00     0.249 A 
HETATM   56  C   UNK N   1      33.880  17.136   6.564  0.00  0.00     0.164 A 
HETATM   57  C   UNK N   1      33.604  17.268   5.798  0.00  0.00     0.176 A 
HETATM   58  C   UNK N   1      33.327  16.637   5.345  0.00  0.00     0.180 A 
HETATM   59  C   UNK N   1      33.326  15.873   5.659  0.00  0.00     0.179 A 
HETATM   60  O   UNK N   1      33.602  15.742   6.425  0.00  0.00    -0.354 OA
HETATM   61  C   UNK N   1      33.049  15.242   5.206  0.00  0.00     0.198 A 
HETATM   62  O   UNK N   1      32.773  15.373   4.440  0.00  0.00    -0.398 OA
HETATM   63  O   UNK N   1      33.051  16.768   4.579  0.00  0.00    -0.390 OA
HETATM   64  O   UNK N   1      33.605  18.031   5.484  0.00  0.00    -0.391 OA
HETATM   65  N   UNK N   1      34.157  17.769   7.016  0.00  0.00    -0.350 N 
HETATM   66  C   UNK N   1      34.433  17.637   7.783  0.00  0.00     0.214 A 
HETATM   67  O   UNK N   1      34.431  16.874   8.096  0.00  0.00    -0.274 OA
HETATM   68  C   UNK N   1      34.710  18.270   8.236  0.00  0.00     0.117 A 
HETATM   69  H   UNK N   1      33.894  14.085   7.868  0.00  0.00     0.163 HD
HETATM   70  H   UNK N   1      35.331  14.989  11.200  0.00  0.00     0.163 HD
HETATM   71  H   UNK N   1      35.291  10.634  12.904  0.00  0.00     0.162 HD
HETATM   72  H   UNK N   1      33.839  10.693   9.133  0.00  0.00     0.163 HD
HETATM   73  H   UNK N   1      34.823  13.127  10.662  0.00  0.00     0.163 HD
HETATM   74  H   UNK N   1      35.984  12.346  13.982  0.00  0.00     0.163 HD
HETATM   75  H   UNK N   1      34.452  11.631  10.324  0.00  0.00     0.163 HD
HETATM   76  H   UNK N   1      36.360  12.643  14.830  0.00  0.00     0.165 HD
HETATM   77  H   UNK N   1      34.503  16.929   8.260  0.00  0.00     0.165 HD
HETATM   78  H   UNK N   1      32.774  16.269   4.071  0.00  0.00     0.209 HD
HETATM   79  H   UNK N   1      33.052  17.665   4.210  0.00  0.00     0.210 HD
HETATM   80  H   UNK N   1      33.931  18.774   6.016  0.00  0.00     0.210 HD
HETATM   81  H   UNK N   1      34.158  18.679   6.642  0.00  0.00     0.163 HD
ENDROOT
TORSDOF 5
ENDMDL
MODEL 6
REMARK VINA RESULT:     -18.9      2.876      7.738
REMARK  5 active torsions:
REMARK  status: ('A' for Active; 'I' for Inactive)
REMARK    1  A    between atoms: C_5  and  N_22 
REMARK    2  A    between atoms: C_35  and  C_39 
REMARK    3  A    between atoms: C_38  and  C_43 
REMARK    4  A    between atoms: C_45  and  C_50 
REMARK    5  A    between atoms: C_55  and  O_60 
ROOT
HETATM    1  C   UNK N   1      36.618  13.077  14.694  0.00  0.00     0.009 A 
HETATM    2  C   UNK N   1      36.391  13.566  14.030  0.00  0.00    -0.020 A 
HETATM    3  C   UNK N   1      36.659  14.267  14.440  0.00  0.00     0.009 A 
HETATM    4  C   UNK N   1      36.023  13.377  13.243  0.00  0.00     0.038 A 
HETATM    5  C   UNK N   1      35.692  13.576  12.424  0.00  0.00     0.177 A 
HETATM    6  C   UNK N   1      35.439  12.887  12.045  0.00  0.00     0.241 A 
HETATM    7  O   UNK N   1      35.597  12.254  12.593  0.00  0.00    -0.271 OA
HETATM    8  N   UNK N   1      35.119  12.422  11.449  0.00  0.00    -0.346 N 
HETATM    9  C   UNK N   1      34.784  12.365  10.697  0.00  0.00     0.185 A 
HETATM   10  C   UNK N   1      34.568  12.857  10.057  0.00  0.00     0.241 A 
HETATM   11  O   UNK N   1      34.250  12.272   9.501  0.00  0.00    -0.271 OA
HETATM   12  N   UNK N   1      34.555  13.659   9.795  0.00  0.00    -0.346 N 
HETATM   13  C   UNK N   1      34.733  14.480   9.963  0.00  0.00     0.185 A 
HETATM   14  C   UNK N   1      34.846  15.375   9.962  0.00  0.00     0.137 A 
HETATM   15  C   UNK N   1      35.054  16.202  10.198  0.00  0.00     0.220 A 
HETATM   16  O   UNK N   1      35.191  17.270  10.200  0.00  0.00    -0.274 OA
HETATM   17  N   UNK N   1      35.429  16.701  10.910  0.00  0.00    -0.359 N 
HETATM   18  C   UNK N   1      35.687  16.303  11.620  0.00  0.00     0.157 A 
HETATM   19  C   UNK N   1      35.462  15.525  11.330  0.00  0.00     0.194 A 
HETATM   20  C   UNK N   1      35.732  15.135  12.062  0.00  0.00     0.242 A 
HETATM   21  O   UNK N   1      36.063  15.651  12.670  0.00  0.00    -0.271 OA
HETATM   22  N   UNK N   1      35.815  14.400  12.467  0.00  0.00    -0.346 N 
HETATM   23  N   UNK N   1      35.052  15.320  10.450  0.00  0.00    -0.344 N 
HETATM   24  C   UNK N   1      34.640  15.342   9.498  0.00  0.00     0.241 A 
HETATM   25  O   UNK N   1      34.360  14.391   9.134  0.00  0.00    -0.271 OA
HETATM   26  C   UNK N   1      34.537  16.060   9.054  0.00  0.00     0.180 A 
HETATM   27  N   UNK N   1      34.771  16.681   9.409  0.00  0.00    -0.346 N 
HETATM   28  C   UNK N   1      35.135  16.813  10.205  0.00  0.00     0.241 A 
HETATM   29  O   UNK N   1      35.472  17.505  10.776  0.00  0.00    -0.271 OA
HETATM   30  C   UNK N   1      35.262  15.995  10.734  0.00  0.00     0.181 A 
HETATM   31  N   UNK N   1      35.245  15.059  10.968  0.00  0.00    -0.346 N 
HETATM   32  C   UNK N   1      35.037  14.264  10.722  0.00  0.00     0.241 A 
HETATM   33  O   UNK N   1      35.235  13.729  11.332  0.00  0.00    -0.271 OA
HETATM   34  C   UNK N   1      34.925  15.808  10.015  0.00  0.00     0.075 A 
HETATM   35  C   UNK N   1      34.714  16.174   9.426  0.00  0.00    -0.028 A 
HETATM   36  C   UNK N   1      34.756  16.987   9.286  0.00  0.00     0.096 A 
HETATM   37  N   UNK N   1      34.447  17.132   8.535  0.00  0.00    -0.365 N 
HETATM   38  C   UNK N   1      34.214  16.410   8.212  0.00  0.00     0.042 A 
HETATM   39  C   UNK N   1      34.379  15.818   8.763  0.00  0.00    -0.002 A 
HETATM   40  C   UNK N   1      34.203  15.032   8.587  0.00  0.00     0.014 A 
HETATM   41  C   UNK N   1      33.862  14.836   7.863  0.00  0.00     0.001 A 
HETATM   42  C   UNK N   1      33.697  15.428   7.312  0.00  0.00     0.002 A 
HETATM   43  C   UNK N   1      33.873  16.215   7.486  0.00  0.00     0.030 A 
HETATM   44  C   UNK N   1      34.172  15.938   8.252  0.00  0.00     0.073 A 
HETATM   45  C   UNK N   1      34.111  16.746   7.876  0.00  0.00    -0.056 A 
HETATM   46  C   UNK N   1      33.792  16.835   7.120  0.00  0.00     0.007 A 
HETATM   47  C   UNK N   1      33.739  17.583   6.779  0.00  0.00     0.001 A 
HETATM   48  C   UNK N   1      34.004  18.245   7.195  0.00  0.00     0.000 A 
HETATM   49  C   UNK N   1      34.323  18.158   7.951  0.00  0.00     0.001 A 
HETATM   50  C   UNK N   1      34.376  17.407   8.291  0.00  0.00     0.007 A 
HETATM   51  C   UNK N   1      34.637  11.489  10.616  0.00  0.00     0.137 A 
HETATM   52  C   UNK N   1      34.652  10.656  10.893  0.00  0.00     0.222 A 
HETATM   53  O   UNK N   1      34.927  10.302  11.625  0.00  0.00    -0.273 OA
HETATM   54  N   UNK N   1      34.359  10.006  10.410  0.00  0.00    -0.333 N 
HETATM   55  C   UNK N   1      34.456   9.305  10.836  0.00  0.00     0.249 A 
HETATM   56  C   UNK N   1      34.221   8.586  10.507  0.00  0.00     0.164 A 
HETATM   57  C   UNK N   1      34.317   7.886  10.933  0.00  0.00     0.176 A 
HETATM   58  C   UNK N   1      34.649   7.905  11.687  0.00  0.00     0.180 A 
HETATM   59  C   UNK N   1      34.884   8.623  12.018  0.00  0.00     0.179 A 
HETATM   60  O   UNK N   1      34.788   9.324  11.592  0.00  0.00    -0.354 OA
HETATM   61  C   UNK N   1      35.216   8.642  12.772  0.00  0.00     0.198 A 
HETATM   62  O   UNK N   1      35.312   7.942  13.198  0.00  0.00    -0.398 OA
HETATM   63  O   UNK N   1      34.746   7.204  12.113  0.00  0.00    -0.390 OA
HETATM   64  O   UNK N   1      34.082   7.167  10.603  0.00  0.00    -0.391 OA
HETATM   65  N   UNK N   1      33.889   8.567   9.752  0.00  0.00    -0.350 N 
HETATM   66  C   UNK N   1      33.792   9.267   9.326  0.00  0.00     0.214 A 
HETATM   67  O   UNK N   1      34.028   9.986   9.656  0.00  0.00    -0.274 OA
HETATM   68  C   UNK N   1      33.460   9.248   8.571  0.00  0.00     0.117 A 
HETATM   69  H   UNK N   1      35.152  11.501  11.792  0.00  0.00     0.163 HD
HETATM   70  H   UNK N   1      34.160  13.646   8.894  0.00  0.00     0.163 HD
HETATM   71  H   UNK N   1      35.519  17.679  10.833  0.00  0.00     0.162 HD
HETATM   72  H   UNK N   1      36.222  14.591  13.344  0.00  0.00     0.163 HD
HETATM   73  H   UNK N   1      34.985  14.346  10.580  0.00  0.00     0.163 HD
HETATM   74  H   UNK N   1      34.649  17.507   8.887  0.00  0.00     0.163 HD
HETATM   75  H   UNK N   1      35.629  14.984  11.871  0.00  0.00     0.163 HD
HETATM   76  H   UNK N   1      34.371  18.013   8.102  0.00  0.00     0.165 HD
HETATM   77  H   UNK N   1      33.975  10.085   9.507  0.00  0.00     0.165 HD
HETATM   78  H   UNK N   1      35.037   7.097  12.811  0.00  0.00     0.209 HD
HETATM   79  H   UNK N   1      34.469   6.359  11.726  0.00  0.00     0.210 HD
HETATM   80  H   UNK N   1      33.692   7.144   9.715  0.00  0.00     0.210 HD
HETATM   81  H   UNK N   1      33.608   7.708   9.359  0.00  0.00     0.163 HD
ENDROOT
TORSDOF 5
ENDMDL
MODEL 7
REMARK VINA RESULT:     -18.3      8.799     10.614
REMARK  5 active torsions:
REMARK  status: ('A' for Active; 'I' for Inactive)
REMARK    1  A    between atoms: C_5  and  N_22 
REMARK    2  A    between atoms: C_35  and  C_39 
REMARK    3  A    between atoms: C_38  and  C_43 
REMARK    4  A    between atoms: C_45  and  C_50 
REMARK    5  A    between atoms: C_55  and  O_60 
ROOT
HETATM    1  C   UNK N   1      36.087  14.118   5.082  0.00  0.00     0.009 A 
HETATM    2  C   UNK N   1      35.491  14.562   5.507  0.00  0.00    -0.020 A 
HETATM    3  C   UNK N   1      36.079  14.841   6.062  0.00  0.00     0.009 A 
HETATM    4  C   UNK N   1      34.617  14.665   5.383  0.00  0.00     0.038 A 
HETATM    5  C   UNK N   1      33.794  14.989   5.577  0.00  0.00     0.177 A 
HETATM    6  C   UNK N   1      33.242  14.709   5.029  0.00  0.00     0.241 A 
HETATM    7  O   UNK N   1      33.684  14.217   4.492  0.00  0.00    -0.271 OA
HETATM    8  N   UNK N   1      32.510  14.610   4.674  0.00  0.00    -0.346 N 
HETATM    9  C   UNK N   1      31.702  14.776   4.656  0.00  0.00     0.185 A 
HETATM   10  C   UNK N   1      31.132  15.215   5.082  0.00  0.00     0.241 A 
HETATM   11  O   UNK N   1      30.415  15.039   4.627  0.00  0.00    -0.271 OA
HETATM   12  N   UNK N   1      31.030  15.725   5.746  0.00  0.00    -0.346 N 
HETATM   13  C   UNK N   1      31.387  16.133   6.409  0.00  0.00     0.185 A 
HETATM   14  C   UNK N   1      31.582  16.627   7.139  0.00  0.00     0.137 A 
HETATM   15  C   UNK N   1      32.013  17.020   7.804  0.00  0.00     0.220 A 
HETATM   16  O   UNK N   1      32.249  17.608   8.675  0.00  0.00    -0.274 OA
HETATM   17  N   UNK N   1      32.876  17.108   8.183  0.00  0.00    -0.359 N 
HETATM   18  C   UNK N   1      33.540  16.702   7.831  0.00  0.00     0.157 A 
HETATM   19  C   UNK N   1      33.063  16.350   7.209  0.00  0.00     0.194 A 
HETATM   20  C   UNK N   1      33.752  15.943   6.862  0.00  0.00     0.242 A 
HETATM   21  O   UNK N   1      34.508  16.068   7.259  0.00  0.00    -0.271 OA
HETATM   22  N   UNK N   1      34.020  15.432   6.247  0.00  0.00    -0.346 N 
HETATM   23  N   UNK N   1      32.087  16.468   7.075  0.00  0.00    -0.344 N 
HETATM   24  C   UNK N   1      31.084  16.730   7.130  0.00  0.00     0.241 A 
HETATM   25  O   UNK N   1      30.491  16.302   6.368  0.00  0.00    -0.271 OA
HETATM   26  C   UNK N   1      30.771  17.242   7.732  0.00  0.00     0.180 A 
HETATM   27  N   UNK N   1      31.283  17.491   8.225  0.00  0.00    -0.346 N 
HETATM   28  C   UNK N   1      32.153  17.355   8.302  0.00  0.00     0.241 A 
HETATM   29  O   UNK N   1      32.910  17.586   8.844  0.00  0.00    -0.271 OA
HETATM   30  C   UNK N   1      32.535  16.766   7.615  0.00  0.00     0.181 A 
HETATM   31  N   UNK N   1      32.577  16.189   6.842  0.00  0.00    -0.346 N 
HETATM   32  C   UNK N   1      32.143  15.816   6.204  0.00  0.00     0.241 A 
HETATM   33  O   UNK N   1      32.672  15.360   5.744  0.00  0.00    -0.271 OA
HETATM   34  C   UNK N   1      31.733  16.851   7.490  0.00  0.00     0.075 A 
HETATM   35  C   UNK N   1      31.190  17.208   7.811  0.00  0.00    -0.028 A 
HETATM   36  C   UNK N   1      31.219  17.692   8.479  0.00  0.00     0.096 A 
HETATM   37  N   UNK N   1      30.457  17.969   8.626  0.00  0.00    -0.365 N 
HETATM   38  C   UNK N   1      29.956  17.656   8.050  0.00  0.00     0.042 A 
HETATM   39  C   UNK N   1      30.410  17.186   7.547  0.00  0.00    -0.002 A 
HETATM   40  C   UNK N   1      30.052  16.798   6.912  0.00  0.00     0.014 A 
HETATM   41  C   UNK N   1      29.242  16.881   6.781  0.00  0.00     0.001 A 
HETATM   42  C   UNK N   1      28.789  17.352   7.284  0.00  0.00     0.002 A 
HETATM   43  C   UNK N   1      29.145  17.739   7.919  0.00  0.00     0.030 A 
HETATM   44  C   UNK N   1      29.895  17.386   7.664  0.00  0.00     0.073 A 
HETATM   45  C   UNK N   1      29.675  17.930   8.337  0.00  0.00    -0.056 A 
HETATM   46  C   UNK N   1      28.893  18.177   8.439  0.00  0.00     0.007 A 
HETATM   47  C   UNK N   1      28.697  18.679   9.063  0.00  0.00     0.001 A 
HETATM   48  C   UNK N   1      29.282  18.934   9.586  0.00  0.00     0.000 A 
HETATM   49  C   UNK N   1      30.063  18.688   9.486  0.00  0.00     0.001 A 
HETATM   50  C   UNK N   1      30.259  18.185   8.861  0.00  0.00     0.007 A 
HETATM   51  C   UNK N   1      31.424  14.315   3.944  0.00  0.00     0.137 A 
HETATM   52  C   UNK N   1      31.535  13.783   3.255  0.00  0.00     0.222 A 
HETATM   53  O   UNK N   1      32.232  13.396   2.938  0.00  0.00    -0.273 OA
HETATM   54  N   UNK N   1      30.881  13.552   2.744  0.00  0.00    -0.333 N 
HETATM   55  C   UNK N   1      31.179  13.054   2.155  0.00  0.00     0.249 A 
HETATM   56  C   UNK N   1      30.674  12.744   1.582  0.00  0.00     0.164 A 
HETATM   57  C   UNK N   1      30.971  12.247   0.995  0.00  0.00     0.176 A 
HETATM   58  C   UNK N   1      31.773  12.059   0.981  0.00  0.00     0.180 A 
HETATM   59  C   UNK N   1      32.280  12.368   1.554  0.00  0.00     0.179 A 
HETATM   60  O   UNK N   1      31.982  12.866   2.141  0.00  0.00    -0.354 OA
HETATM   61  C   UNK N   1      33.083  12.180   1.540  0.00  0.00     0.198 A 
HETATM   62  O   UNK N   1      33.380  11.683   0.953  0.00  0.00    -0.398 OA
HETATM   63  O   UNK N   1      32.071  11.562   0.393  0.00  0.00    -0.390 OA
HETATM   64  O   UNK N   1      30.465  11.937   0.421  0.00  0.00    -0.391 OA
HETATM   65  N   UNK N   1      29.870  12.932   1.595  0.00  0.00    -0.350 N 
HETATM   66  C   UNK N   1      29.573  13.430   2.183  0.00  0.00     0.214 A 
HETATM   67  O   UNK N   1      30.079  13.739   2.756  0.00  0.00    -0.274 OA
HETATM   68  C   UNK N   1      28.769  13.617   2.196  0.00  0.00     0.117 A 
HETATM   69  H   UNK N   1      32.670  14.013   3.909  0.00  0.00     0.163 HD
HETATM   70  H   UNK N   1      30.073  15.955   5.770  0.00  0.00     0.163 HD
HETATM   71  H   UNK N   1      33.008  17.667   8.984  0.00  0.00     0.162 HD
HETATM   72  H   UNK N   1      34.989  15.307   6.369  0.00  0.00     0.163 HD
HETATM   73  H   UNK N   1      32.011  15.897   6.276  0.00  0.00     0.163 HD
HETATM   74  H   UNK N   1      30.912  18.083   8.919  0.00  0.00     0.163 HD
HETATM   75  H   UNK N   1      33.517  15.910   6.746  0.00  0.00     0.163 HD
HETATM   76  H   UNK N   1      30.191  18.568   9.361  0.00  0.00     0.165 HD
HETATM   77  H   UNK N   1      29.943  13.832   2.842  0.00  0.00     0.165 HD
HETATM   78  H   UNK N   1      32.786  11.319   0.279  0.00  0.00     0.209 HD
HETATM   79  H   UNK N   1      31.476  11.198  -0.281  0.00  0.00     0.210 HD
HETATM   80  H   UNK N   1      29.520  12.158   0.437  0.00  0.00     0.210 HD
HETATM   81  H   UNK N   1      29.266  12.562   0.911  0.00  0.00     0.163 HD
ENDROOT
TORSDOF 5
ENDMDL
MODEL 8
REMARK VINA RESULT:     -18.0      1.967      4.483
REMARK  5 active torsions:
REMARK  status: ('A' for Active; 'I' for Inactive)
REMARK    1  A    between atoms: C_5  and  N_22 
REMARK    2  A    between atoms: C_35  and  C_39 
REMARK    3  A    between atoms: C_38  and  C_43 
REMARK    4  A    between atoms: C_45  and  C_50 
REMARK    5  A    between atoms: C_55  and  O_60 
ROOT
HETATM    1  C   UNK N   1      36.105  16.124  17.610  0.00  0.00     0.009 A 
HETATM    2  C   UNK N   1      35.942  15.338  17.906  0.00  0.00    -0.020 A 
HETATM    3  C   UNK N   1      35.949  15.627  18.711  0.00  0.00     0.009 A 
HETATM    4  C   UNK N   1      35.820  14.557  17.499  0.00  0.00     0.038 A 
HETATM    5  C   UNK N   1      35.657  13.667  17.466  0.00  0.00     0.177 A 
HETATM    6  C   UNK N   1      35.654  13.408  16.681  0.00  0.00     0.241 A 
HETATM    7  O   UNK N   1      35.810  14.102  16.212  0.00  0.00    -0.271 OA
HETATM    8  N   UNK N   1      35.591  12.879  16.057  0.00  0.00    -0.346 N 
HETATM    9  C   UNK N   1      35.464  12.109  15.790  0.00  0.00     0.185 A 
HETATM   10  C   UNK N   1      35.305  11.347  16.095  0.00  0.00     0.241 A 
HETATM   11  O   UNK N   1      35.261  10.883  15.364  0.00  0.00    -0.271 OA
HETATM   12  N   UNK N   1      35.184  10.917  16.811  0.00  0.00    -0.346 N 
HETATM   13  C   UNK N   1      35.137  10.931  17.666  0.00  0.00     0.185 A 
HETATM   14  C   UNK N   1      35.054  10.755  18.548  0.00  0.00     0.137 A 
HETATM   15  C   UNK N   1      35.019  10.838  19.428  0.00  0.00     0.220 A 
HETATM   16  O   UNK N   1      34.920  10.631  20.480  0.00  0.00    -0.274 OA
HETATM   17  N   UNK N   1      35.099  11.481  20.118  0.00  0.00    -0.359 N 
HETATM   18  C   UNK N   1      35.261  12.296  19.925  0.00  0.00     0.157 A 
HETATM   19  C   UNK N   1      35.282  12.148  19.079  0.00  0.00     0.194 A 
HETATM   20  C   UNK N   1      35.448  12.985  18.899  0.00  0.00     0.242 A 
HETATM   21  O   UNK N   1      35.508  13.515  19.577  0.00  0.00    -0.271 OA
HETATM   22  N   UNK N   1      35.588  13.550  18.289  0.00  0.00    -0.346 N 
HETATM   23  N   UNK N   1      35.146  11.273  18.630  0.00  0.00    -0.344 N 
HETATM   24  C   UNK N   1      34.975  10.279  18.385  0.00  0.00     0.241 A 
HETATM   25  O   UNK N   1      34.999  10.087  17.347  0.00  0.00    -0.271 OA
HETATM   26  C   UNK N   1      34.830   9.677  18.968  0.00  0.00     0.180 A 
HETATM   27  N   UNK N   1      34.835   9.924  19.679  0.00  0.00    -0.346 N 
HETATM   28  C   UNK N   1      34.964  10.725  20.030  0.00  0.00     0.241 A 
HETATM   29  O   UNK N   1      35.000  11.183  20.872  0.00  0.00    -0.271 OA
HETATM   30  C   UNK N   1      35.133  11.436  19.374  0.00  0.00     0.181 A 
HETATM   31  N   UNK N   1      35.261  11.862  18.518  0.00  0.00    -0.346 N 
HETATM   32  C   UNK N   1      35.292  11.762  17.667  0.00  0.00     0.241 A 
HETATM   33  O   UNK N   1      35.449  12.502  17.311  0.00  0.00    -0.271 OA
HETATM   34  C   UNK N   1      35.023  10.725  18.988  0.00  0.00     0.075 A 
HETATM   35  C   UNK N   1      34.885  10.041  19.184  0.00  0.00    -0.028 A 
HETATM   36  C   UNK N   1      34.785   9.736  19.945  0.00  0.00     0.096 A 
HETATM   37  N   UNK N   1      34.639   8.927  19.877  0.00  0.00    -0.365 N 
HETATM   38  C   UNK N   1      34.648   8.732  19.076  0.00  0.00     0.042 A 
HETATM   39  C   UNK N   1      34.801   9.421  18.648  0.00  0.00    -0.002 A 
HETATM   40  C   UNK N   1      34.843   9.393  17.824  0.00  0.00     0.014 A 
HETATM   41  C   UNK N   1      34.733   8.678  17.429  0.00  0.00     0.001 A 
HETATM   42  C   UNK N   1      34.580   7.989  17.857  0.00  0.00     0.002 A 
HETATM   43  C   UNK N   1      34.538   8.016  18.681  0.00  0.00     0.030 A 
HETATM   44  C   UNK N   1      34.699   8.866  18.622  0.00  0.00     0.073 A 
HETATM   45  C   UNK N   1      34.558   8.317  19.313  0.00  0.00    -0.056 A 
HETATM   46  C   UNK N   1      34.416   7.514  19.188  0.00  0.00     0.007 A 
HETATM   47  C   UNK N   1      34.286   7.013  19.830  0.00  0.00     0.001 A 
HETATM   48  C   UNK N   1      34.298   7.316  20.598  0.00  0.00     0.000 A 
HETATM   49  C   UNK N   1      34.440   8.118  20.724  0.00  0.00     0.001 A 
HETATM   50  C   UNK N   1      34.570   8.619  20.080  0.00  0.00     0.007 A 
HETATM   51  C   UNK N   1      35.531  12.196  14.905  0.00  0.00     0.137 A 
HETATM   52  C   UNK N   1      35.657  12.648  14.163  0.00  0.00     0.222 A 
HETATM   53  O   UNK N   1      35.820  13.478  14.019  0.00  0.00    -0.273 OA
HETATM   54  N   UNK N   1      35.632  12.273  13.388  0.00  0.00    -0.333 N 
HETATM   55  C   UNK N   1      35.773  12.853  12.816  0.00  0.00     0.249 A 
HETATM   56  C   UNK N   1      35.781  12.653  12.017  0.00  0.00     0.164 A 
HETATM   57  C   UNK N   1      35.921  13.232  11.447  0.00  0.00     0.176 A 
HETATM   58  C   UNK N   1      36.053  14.013  11.676  0.00  0.00     0.180 A 
HETATM   59  C   UNK N   1      36.045  14.215  12.476  0.00  0.00     0.179 A 
HETATM   60  O   UNK N   1      35.904  13.635  13.047  0.00  0.00    -0.354 OA
HETATM   61  C   UNK N   1      36.177  14.996  12.706  0.00  0.00     0.198 A 
HETATM   62  O   UNK N   1      36.317  15.575  12.136  0.00  0.00    -0.398 OA
HETATM   63  O   UNK N   1      36.194  14.593  11.106  0.00  0.00    -0.390 OA
HETATM   64  O   UNK N   1      35.930  13.030  10.647  0.00  0.00    -0.391 OA
HETATM   65  N   UNK N   1      35.649  11.871  11.786  0.00  0.00    -0.350 N 
HETATM   66  C   UNK N   1      35.509  11.291  12.356  0.00  0.00     0.214 A 
HETATM   67  O   UNK N   1      35.501  11.493  13.156  0.00  0.00    -0.274 OA
HETATM   68  C   UNK N   1      35.377  10.509  12.126  0.00  0.00     0.117 A 
HETATM   69  H   UNK N   1      35.738  13.416  15.246  0.00  0.00     0.163 HD
HETATM   70  H   UNK N   1      35.026   9.983  16.546  0.00  0.00     0.163 HD
HETATM   71  H   UNK N   1      34.994  11.208  21.059  0.00  0.00     0.162 HD
HETATM   72  H   UNK N   1      35.725  14.424  18.723  0.00  0.00     0.163 HD
HETATM   73  H   UNK N   1      35.259  11.599  17.707  0.00  0.00     0.163 HD
HETATM   74  H   UNK N   1      34.666   9.220  20.346  0.00  0.00     0.163 HD
HETATM   75  H   UNK N   1      35.428  12.816  18.697  0.00  0.00     0.163 HD
HETATM   76  H   UNK N   1      34.480   8.305  20.623  0.00  0.00     0.165 HD
HETATM   77  H   UNK N   1      35.465  11.319  13.212  0.00  0.00     0.165 HD
HETATM   78  H   UNK N   1      36.327  15.339  11.196  0.00  0.00     0.209 HD
HETATM   79  H   UNK N   1      36.204  14.356  10.166  0.00  0.00     0.210 HD
HETATM   80  H   UNK N   1      35.775  12.112  10.376  0.00  0.00     0.210 HD
HETATM   81  H   UNK N   1      35.660  11.631  10.831  0.00  0.00     0.163 HD
ENDROOT
TORSDOF 5
ENDMDL
MODEL 9
REMARK VINA RESULT:     -18.0      3.037      6.292
REMARK  5 active torsions:
REMARK  status: ('A' for Active; 'I' for Inactive)
REMARK    1  A    between atoms: C_5  and  N_22 
REMARK    2  A    between atoms: C_35  and  C_39 
REMARK    3  A    between atoms: C_38  and  C_43 
REMARK    4  A    between atoms: C_45  and  C_50 
REMARK    5  A    between atoms: C_55  and  O_60 
ROOT
HETATM    1  C   UNK N   1      34.108  17.969   7.167  0.00  0.00     0.009 A 
HETATM    2  C   UNK N   1      34.337  17.543   7.873  0.00  0.00    -0.020 A 
HETATM    3  C   UNK N   1      34.600  18.270   8.240  0.00  0.00     0.009 A 
HETATM    4  C   UNK N   1      34.299  16.683   8.094  0.00  0.00     0.038 A 
HETATM    5  C   UNK N   1      34.420  15.971   8.640  0.00  0.00     0.177 A 
HETATM    6  C   UNK N   1      34.160  15.280   8.268  0.00  0.00     0.241 A 
HETATM    7  O   UNK N   1      33.879  15.526   7.502  0.00  0.00    -0.271 OA
HETATM    8  N   UNK N   1      34.003  14.480   8.178  0.00  0.00    -0.346 N 
HETATM    9  C   UNK N   1      34.016  13.716   8.488  0.00  0.00     0.185 A 
HETATM   10  C   UNK N   1      34.245  13.314   9.184  0.00  0.00     0.241 A 
HETATM   11  O   UNK N   1      34.037  12.497   8.980  0.00  0.00    -0.271 OA
HETATM   12  N   UNK N   1      34.581  13.427   9.950  0.00  0.00    -0.346 N 
HETATM   13  C   UNK N   1      34.904  13.971  10.528  0.00  0.00     0.185 A 
HETATM   14  C   UNK N   1      35.264  14.384  11.245  0.00  0.00     0.137 A 
HETATM   15  C   UNK N   1      35.586  14.998  11.795  0.00  0.00     0.220 A 
HETATM   16  O   UNK N   1      36.016  15.493  12.649  0.00  0.00    -0.274 OA
HETATM   17  N   UNK N   1      35.752  15.928  11.857  0.00  0.00    -0.359 N 
HETATM   18  C   UNK N   1      35.557  16.441  11.203  0.00  0.00     0.157 A 
HETATM   19  C   UNK N   1      35.258  15.797  10.718  0.00  0.00     0.194 A 
HETATM   20  C   UNK N   1      35.065  16.336  10.059  0.00  0.00     0.242 A 
HETATM   21  O   UNK N   1      35.243  17.170  10.185  0.00  0.00    -0.271 OA
HETATM   22  N   UNK N   1      34.749  16.394   9.279  0.00  0.00    -0.346 N 
HETATM   23  N   UNK N   1      35.218  14.838  10.969  0.00  0.00    -0.344 N 
HETATM   24  C   UNK N   1      35.274  13.913  11.437  0.00  0.00     0.241 A 
HETATM   25  O   UNK N   1      34.908  13.117  10.848  0.00  0.00    -0.271 OA
HETATM   26  C   UNK N   1      35.585  13.809  12.222  0.00  0.00     0.180 A 
HETATM   27  N   UNK N   1      35.818  14.444  12.552  0.00  0.00    -0.346 N 
HETATM   28  C   UNK N   1      35.832  15.286  12.280  0.00  0.00     0.241 A 
HETATM   29  O   UNK N   1      36.083  16.167  12.564  0.00  0.00    -0.271 OA
HETATM   30  C   UNK N   1      35.477  15.429  11.376  0.00  0.00     0.181 A 
HETATM   31  N   UNK N   1      35.088  15.225  10.516  0.00  0.00    -0.346 N 
HETATM   32  C   UNK N   1      34.780  14.617   9.996  0.00  0.00     0.241 A 
HETATM   33  O   UNK N   1      34.535  14.969   9.279  0.00  0.00    -0.271 OA
HETATM   34  C   UNK N   1      35.436  14.636  11.566  0.00  0.00     0.075 A 
HETATM   35  C   UNK N   1      35.612  14.227  12.137  0.00  0.00    -0.028 A 
HETATM   36  C   UNK N   1      35.946  14.465  12.854  0.00  0.00     0.096 A 
HETATM   37  N   UNK N   1      36.042  13.795  13.325  0.00  0.00    -0.365 N 
HETATM   38  C   UNK N   1      35.767  13.144  12.901  0.00  0.00     0.042 A 
HETATM   39  C   UNK N   1      35.501  13.411  12.167  0.00  0.00    -0.002 A 
HETATM   40  C   UNK N   1      35.193  12.875  11.620  0.00  0.00     0.014 A 
HETATM   41  C   UNK N   1      35.150  12.074  11.806  0.00  0.00     0.001 A 
HETATM   42  C   UNK N   1      35.415  11.806  12.540  0.00  0.00     0.002 A 
HETATM   43  C   UNK N   1      35.723  12.340  13.088  0.00  0.00     0.030 A 
HETATM   44  C   UNK N   1      35.574  12.964  12.504  0.00  0.00     0.073 A 
HETATM   45  C   UNK N   1      35.918  12.969  13.329  0.00  0.00    -0.056 A 
HETATM   46  C   UNK N   1      35.991  12.267  13.757  0.00  0.00     0.007 A 
HETATM   47  C   UNK N   1      36.309  12.279  14.517  0.00  0.00     0.001 A 
HETATM   48  C   UNK N   1      36.555  12.993  14.850  0.00  0.00     0.000 A 
HETATM   49  C   UNK N   1      36.483  13.695  14.423  0.00  0.00     0.001 A 
HETATM   50  C   UNK N   1      36.165  13.682  13.661  0.00  0.00     0.007 A 
HETATM   51  C   UNK N   1      33.667  13.231   7.825  0.00  0.00     0.137 A 
HETATM   52  C   UNK N   1      33.318  13.118   7.028  0.00  0.00     0.222 A 
HETATM   53  O   UNK N   1      33.140  13.674   6.398  0.00  0.00    -0.273 OA
HETATM   54  N   UNK N   1      33.080  12.344   6.736  0.00  0.00    -0.333 N 
HETATM   55  C   UNK N   1      32.777  12.438   5.973  0.00  0.00     0.249 A 
HETATM   56  C   UNK N   1      32.503  11.783   5.553  0.00  0.00     0.164 A 
HETATM   57  C   UNK N   1      32.201  11.878   4.792  0.00  0.00     0.176 A 
HETATM   58  C   UNK N   1      32.171  12.627   4.450  0.00  0.00     0.180 A 
HETATM   59  C   UNK N   1      32.445  13.283   4.869  0.00  0.00     0.179 A 
HETATM   60  O   UNK N   1      32.747  13.189   5.631  0.00  0.00    -0.354 OA
HETATM   61  C   UNK N   1      32.415  14.033   4.527  0.00  0.00     0.198 A 
HETATM   62  O   UNK N   1      32.113  14.127   3.765  0.00  0.00    -0.398 OA
HETATM   63  O   UNK N   1      31.868  12.722   3.688  0.00  0.00    -0.390 OA
HETATM   64  O   UNK N   1      31.927  11.222   4.372  0.00  0.00    -0.391 OA
HETATM   65  N   UNK N   1      32.532  11.033   5.895  0.00  0.00    -0.350 N 
HETATM   66  C   UNK N   1      32.835  10.938   6.657  0.00  0.00     0.214 A 
HETATM   67  O   UNK N   1      33.109  11.594   7.076  0.00  0.00    -0.274 OA
HETATM   68  C   UNK N   1      32.864  10.187   6.999  0.00  0.00     0.117 A 
HETATM   69  H   UNK N   1      33.615  14.391   7.279  0.00  0.00     0.163 HD
HETATM   70  H   UNK N   1      34.620  12.536  10.366  0.00  0.00     0.163 HD
HETATM   71  H   UNK N   1      36.150  16.303  12.676  0.00  0.00     0.162 HD
HETATM   72  H   UNK N   1      34.784  17.343   9.018  0.00  0.00     0.163 HD
HETATM   73  H   UNK N   1      34.820  14.516  10.128  0.00  0.00     0.163 HD
HETATM   74  H   UNK N   1      36.176  14.314  13.459  0.00  0.00     0.163 HD
HETATM   75  H   UNK N   1      35.014  16.078  10.028  0.00  0.00     0.163 HD
HETATM   76  H   UNK N   1      36.417  13.777  14.235  0.00  0.00     0.165 HD
HETATM   77  H   UNK N   1      33.156  11.493   7.226  0.00  0.00     0.165 HD
HETATM   78  H   UNK N   1      31.791  13.358   3.272  0.00  0.00     0.209 HD
HETATM   79  H   UNK N   1      31.547  11.951   3.195  0.00  0.00     0.210 HD
HETATM   80  H   UNK N   1      31.961  10.339   4.774  0.00  0.00     0.210 HD
HETATM   81  H   UNK N   1      32.206  10.250   5.394  0.00  0.00     0.163 HD
ENDROOT
TORSDOF 5
ENDMDL
