MODEL 1
REMARK VINA RESULT:      -8.5      0.000      0.000
REMARK  5 active torsions:
REMARK  status: ('A' for Active; 'I' for Inactive)
REMARK    1  A    between atoms: C_6  and  N_7 
REMARK    2  A    between atoms: N_7  and  C_8 
REMARK    3  A    between atoms: C_9  and  C_8 
REMARK    4  A    between atoms: N_11  and  C_15 
REMARK    5  A    between atoms: C_18  and  N_23 
ROOT
HETATM    1  C   UNK N   1      32.852  17.015   7.516  0.00  0.00     0.084 A 
HETATM    2  C   UNK N   1      31.559  16.892   8.033  0.00  0.00     0.077 A 
HETATM    3  C   UNK N   1      30.428  16.985   7.237  0.00  0.00     0.148 A 
HETATM    4  C   UNK N   1      30.545  17.243   5.851  0.00  0.00     0.115 A 
HETATM    5  C   UNK N   1      31.855  17.341   5.305  0.00  0.00     0.187 A 
HETATM    6  C   UNK N   1      32.993  17.226   6.122  0.00  0.00     0.184 A 
HETATM    7  F   UNK N   1      34.200  17.398   5.537  0.00  0.00    -0.200 F 
HETATM    8  F   UNK N   1      32.049  17.587   3.984  0.00  0.00    -0.200 F 
HETATM    9  F   UNK N   1      29.227  16.858   7.851  0.00  0.00    -0.203 F 
ENDROOT
BRANCH   1  10
HETATM   10  N   UNK N   1      33.937  17.044   8.464  0.00  0.00    -0.288 N 
HETATM   11  C   UNK N   1      34.210  15.902   9.301  0.00  0.00     0.169 C 
HETATM   12  C   UNK N   1      35.065  16.545  10.394  0.00  0.00     0.169 C 
HETATM   13  O   UNK N   1      35.525  17.740   9.879  0.00  0.00    -0.295 OA
HETATM   14  C   UNK N   1      34.765  18.048   8.820  0.00  0.00     0.368 C 
HETATM   15  O   UNK N   1      34.824  19.132   8.267  0.00  0.00    -0.238 OA
BRANCH  12  16
HETATM   16  C   UNK N   1      35.975  15.688  11.251  0.00  0.00     0.155 C 
BRANCH  16  17
HETATM   17  N   UNK N   1      35.302  14.643  11.973  0.00  0.00    -0.372 N 
HETATM   18  H   UNK N   1      34.512  14.197  11.591  0.00  0.00     0.161 HD
BRANCH  17  19
HETATM   19  C   UNK N   1      35.795  14.268  13.245  0.00  0.00     0.123 A 
HETATM   20  N   UNK N   1      36.739  14.944  13.917  0.00  0.00    -0.246 N 
HETATM   21  O   UNK N   1      36.980  14.274  15.003  0.00  0.00    -0.248 OA
ATOM     22  HN  UNK N   1      37.182  15.816  13.629  1.00  0.00     0.196 HD
HETATM   23  C   UNK N   1      36.246  13.182  15.068  0.00  0.00     0.171 A 
HETATM   24  C   UNK N   1      35.448  13.132  13.935  0.00  0.00     0.076 A 
ENDBRANCH  17  19
ENDBRANCH  16  17
ENDBRANCH  12  16
ENDBRANCH   1  10
BRANCH   4  25
HETATM   25  N   UNK N   1      29.367  17.425   5.032  0.00  0.00    -0.351 N 
HETATM   26  C   UNK N   1      28.600  18.663   5.092  0.00  0.00     0.136 C 
HETATM   27  C   UNK N   1      27.106  18.374   5.055  0.00  0.00     0.103 C 
HETATM   28  C   UNK N   1      26.822  17.535   3.847  0.00  0.00     0.152 C 
HETATM   29  O   UNK N   1      25.771  17.666   3.241  0.00  0.00    -0.293 OA
HETATM   30  C   UNK N   1      27.811  16.527   3.418  0.00  0.00     0.067 C 
HETATM   31  C   UNK N   1      29.000  16.463   4.035  0.00  0.00     0.095 C 
ENDBRANCH   4  25
TORSDOF 5
ENDMDL
MODEL 2
REMARK VINA RESULT:      -8.4      5.302     12.304
REMARK  5 active torsions:
REMARK  status: ('A' for Active; 'I' for Inactive)
REMARK    1  A    between atoms: C_6  and  N_7 
REMARK    2  A    between atoms: N_7  and  C_8 
REMARK    3  A    between atoms: C_9  and  C_8 
REMARK    4  A    between atoms: N_11  and  C_15 
REMARK    5  A    between atoms: C_18  and  N_23 
ROOT
HETATM    1  C   UNK N   1      25.511  19.116   4.347  0.00  0.00     0.084 A 
HETATM    2  C   UNK N   1      26.017  17.941   3.782  0.00  0.00     0.077 A 
HETATM    3  C   UNK N   1      27.224  17.385   4.177  0.00  0.00     0.148 A 
HETATM    4  C   UNK N   1      28.015  18.017   5.165  0.00  0.00     0.115 A 
HETATM    5  C   UNK N   1      27.500  19.196   5.771  0.00  0.00     0.187 A 
HETATM    6  C   UNK N   1      26.266  19.738   5.372  0.00  0.00     0.184 A 
HETATM    7  F   UNK N   1      25.879  20.898   5.950  0.00  0.00    -0.200 F 
HETATM    8  F   UNK N   1      28.201  19.860   6.726  0.00  0.00    -0.200 F 
HETATM    9  F   UNK N   1      27.616  16.249   3.552  0.00  0.00    -0.203 F 
ENDROOT
BRANCH   1  10
HETATM   10  N   UNK N   1      24.321  19.671   3.753  0.00  0.00    -0.288 N 
HETATM   11  C   UNK N   1      23.017  19.202   4.150  0.00  0.00     0.169 C 
HETATM   12  C   UNK N   1      22.166  19.695   2.978  0.00  0.00     0.169 C 
HETATM   13  O   UNK N   1      22.901  20.678   2.347  0.00  0.00    -0.295 OA
HETATM   14  C   UNK N   1      24.174  20.555   2.744  0.00  0.00     0.368 C 
HETATM   15  O   UNK N   1      25.084  21.175   2.222  0.00  0.00    -0.238 OA
BRANCH  12  16
HETATM   16  C   UNK N   1      20.667  19.855   3.140  0.00  0.00     0.155 C 
BRANCH  16  17
HETATM   17  N   UNK N   1      19.929  18.622   3.093  0.00  0.00    -0.372 N 
HETATM   18  H   UNK N   1      19.305  18.382   3.815  0.00  0.00     0.161 HD
BRANCH  17  19
HETATM   19  C   UNK N   1      20.116  17.760   1.988  0.00  0.00     0.123 A 
HETATM   20  N   UNK N   1      20.045  18.150   0.706  0.00  0.00    -0.246 N 
HETATM   21  O   UNK N   1      20.204  17.085  -0.021  0.00  0.00    -0.248 OA
ATOM     22  HN  UNK N   1      19.894  19.100   0.368  1.00  0.00     0.196 HD
HETATM   23  C   UNK N   1      20.364  16.012   0.727  0.00  0.00     0.171 A 
HETATM   24  C   UNK N   1      20.315  16.402   2.056  0.00  0.00     0.076 A 
ENDBRANCH  17  19
ENDBRANCH  16  17
ENDBRANCH  12  16
ENDBRANCH   1  10
BRANCH   4  25
HETATM   25  N   UNK N   1      29.313  17.487   5.521  0.00  0.00    -0.351 N 
HETATM   26  C   UNK N   1      29.493  16.711   6.741  0.00  0.00     0.136 C 
HETATM   27  C   UNK N   1      30.796  17.087   7.432  0.00  0.00     0.103 C 
HETATM   28  C   UNK N   1      31.911  16.939   6.441  0.00  0.00     0.152 C 
HETATM   29  O   UNK N   1      33.014  16.572   6.808  0.00  0.00    -0.293 OA
HETATM   30  C   UNK N   1      31.667  17.271   5.024  0.00  0.00     0.067 C 
HETATM   31  C   UNK N   1      30.425  17.579   4.621  0.00  0.00     0.095 C 
ENDBRANCH   4  25
TORSDOF 5
ENDMDL
MODEL 3
REMARK VINA RESULT:      -8.4      5.054     12.328
REMARK  5 active torsions:
REMARK  status: ('A' for Active; 'I' for Inactive)
REMARK    1  A    between atoms: C_6  and  N_7 
REMARK    2  A    between atoms: N_7  and  C_8 
REMARK    3  A    between atoms: C_9  and  C_8 
REMARK    4  A    between atoms: N_11  and  C_15 
REMARK    5  A    between atoms: C_18  and  N_23 
ROOT
HETATM    1  C   UNK N   1      25.609  19.091   4.230  0.00  0.00     0.084 A 
HETATM    2  C   UNK N   1      26.304  19.879   5.152  0.00  0.00     0.077 A 
HETATM    3  C   UNK N   1      27.450  19.437   5.793  0.00  0.00     0.148 A 
HETATM    4  C   UNK N   1      27.950  18.135   5.553  0.00  0.00     0.115 A 
HETATM    5  C   UNK N   1      27.272  17.333   4.595  0.00  0.00     0.187 A 
HETATM    6  C   UNK N   1      26.120  17.802   3.939  0.00  0.00     0.184 A 
HETATM    7  F   UNK N   1      25.495  16.952   3.093  0.00  0.00    -0.200 F 
HETATM    8  F   UNK N   1      27.690  16.073   4.310  0.00  0.00    -0.200 F 
HETATM    9  F   UNK N   1      28.034  20.286   6.674  0.00  0.00    -0.203 F 
ENDROOT
BRANCH   1  10
HETATM   10  N   UNK N   1      24.354  19.605   3.741  0.00  0.00    -0.288 N 
HETATM   11  C   UNK N   1      23.105  19.066   4.219  0.00  0.00     0.169 C 
HETATM   12  C   UNK N   1      22.148  19.549   3.128  0.00  0.00     0.169 C 
HETATM   13  O   UNK N   1      22.789  20.581   2.474  0.00  0.00    -0.295 OA
HETATM   14  C   UNK N   1      24.093  20.507   2.772  0.00  0.00     0.368 C 
HETATM   15  O   UNK N   1      24.932  21.182   2.204  0.00  0.00    -0.238 OA
BRANCH  12  16
HETATM   16  C   UNK N   1      20.660  19.635   3.405  0.00  0.00     0.155 C 
BRANCH  16  17
HETATM   17  N   UNK N   1      19.826  19.287   2.287  0.00  0.00    -0.372 N 
HETATM   18  H   UNK N   1      19.104  19.888   1.993  0.00  0.00     0.161 HD
BRANCH  17  19
HETATM   19  C   UNK N   1      20.061  18.063   1.618  0.00  0.00     0.123 A 
HETATM   20  N   UNK N   1      20.093  17.927   0.283  0.00  0.00    -0.246 N 
HETATM   21  O   UNK N   1      20.267  16.664   0.037  0.00  0.00    -0.248 OA
ATOM     22  HN  UNK N   1      19.998  18.674  -0.405  1.00  0.00     0.196 HD
HETATM   23  C   UNK N   1      20.337  15.963   1.151  0.00  0.00     0.171 A 
HETATM   24  C   UNK N   1      20.209  16.837   2.219  0.00  0.00     0.076 A 
ENDBRANCH  17  19
ENDBRANCH  16  17
ENDBRANCH  12  16
ENDBRANCH   1  10
BRANCH   4  25
HETATM   25  N   UNK N   1      29.097  17.639   6.282  0.00  0.00    -0.351 N 
HETATM   26  C   UNK N   1      28.987  17.279   7.690  0.00  0.00     0.136 C 
HETATM   27  C   UNK N   1      30.214  17.744   8.462  0.00  0.00     0.103 C 
HETATM   28  C   UNK N   1      31.431  17.196   7.782  0.00  0.00     0.152 C 
HETATM   29  O   UNK N   1      32.408  16.874   8.437  0.00  0.00    -0.293 OA
HETATM   30  C   UNK N   1      31.446  17.081   6.311  0.00  0.00     0.067 C 
HETATM   31  C   UNK N   1      30.331  17.348   5.615  0.00  0.00     0.095 C 
ENDBRANCH   4  25
TORSDOF 5
ENDMDL
MODEL 4
REMARK VINA RESULT:      -8.1      1.690      2.055
REMARK  5 active torsions:
REMARK  status: ('A' for Active; 'I' for Inactive)
REMARK    1  A    between atoms: C_6  and  N_7 
REMARK    2  A    between atoms: N_7  and  C_8 
REMARK    3  A    between atoms: C_9  and  C_8 
REMARK    4  A    between atoms: N_11  and  C_15 
REMARK    5  A    between atoms: C_18  and  N_23 
ROOT
HETATM    1  C   UNK N   1      32.685  17.040   7.863  0.00  0.00     0.084 A 
HETATM    2  C   UNK N   1      31.448  16.994   8.512  0.00  0.00     0.077 A 
HETATM    3  C   UNK N   1      30.246  17.109   7.831  0.00  0.00     0.148 A 
HETATM    4  C   UNK N   1      30.231  17.310   6.431  0.00  0.00     0.115 A 
HETATM    5  C   UNK N   1      31.480  17.329   5.752  0.00  0.00     0.187 A 
HETATM    6  C   UNK N   1      32.691  17.193   6.455  0.00  0.00     0.184 A 
HETATM    7  F   UNK N   1      33.837  17.290   5.744  0.00  0.00    -0.200 F 
HETATM    8  F   UNK N   1      31.549  17.518   4.409  0.00  0.00    -0.200 F 
HETATM    9  F   UNK N   1      29.110  17.058   8.568  0.00  0.00    -0.203 F 
ENDROOT
BRANCH   1  10
HETATM   10  N   UNK N   1      33.862  17.055   8.694  0.00  0.00    -0.288 N 
HETATM   11  C   UNK N   1      34.162  15.942   9.561  0.00  0.00     0.169 C 
HETATM   12  C   UNK N   1      35.156  16.591  10.526  0.00  0.00     0.169 C 
HETATM   13  O   UNK N   1      35.620  17.731   9.903  0.00  0.00    -0.295 OA
HETATM   14  C   UNK N   1      34.772  18.028   8.911  0.00  0.00     0.368 C 
HETATM   15  O   UNK N   1      34.829  19.078   8.296  0.00  0.00    -0.238 OA
BRANCH  12  16
HETATM   16  C   UNK N   1      36.105  15.727  11.334  0.00  0.00     0.155 C 
BRANCH  16  17
HETATM   17  N   UNK N   1      37.108  15.054  10.552  0.00  0.00    -0.372 N 
HETATM   18  H   UNK N   1      37.690  15.560   9.941  0.00  0.00     0.161 HD
BRANCH  17  19
HETATM   19  C   UNK N   1      37.241  13.652  10.678  0.00  0.00     0.123 A 
HETATM   20  N   UNK N   1      37.914  13.044  11.667  0.00  0.00    -0.246 N 
HETATM   21  O   UNK N   1      37.876  11.770  11.420  0.00  0.00    -0.248 OA
ATOM     22  HN  UNK N   1      38.369  13.497  12.459  1.00  0.00     0.196 HD
HETATM   23  C   UNK N   1      37.219  11.515  10.307  0.00  0.00     0.171 A 
HETATM   24  C   UNK N   1      36.779  12.720   9.780  0.00  0.00     0.076 A 
ENDBRANCH  17  19
ENDBRANCH  16  17
ENDBRANCH  12  16
ENDBRANCH   1  10
BRANCH   4  25
HETATM   25  N   UNK N   1      28.983  17.514   5.728  0.00  0.00    -0.351 N 
HETATM   26  C   UNK N   1      28.379  16.437   4.954  0.00  0.00     0.136 C 
HETATM   27  C   UNK N   1      27.809  16.967   3.646  0.00  0.00     0.103 C 
HETATM   28  C   UNK N   1      26.874  18.093   3.965  0.00  0.00     0.152 C 
HETATM   29  O   UNK N   1      25.878  18.276   3.285  0.00  0.00    -0.293 OA
HETATM   30  C   UNK N   1      27.186  18.996   5.089  0.00  0.00     0.067 C 
HETATM   31  C   UNK N   1      28.231  18.723   5.886  0.00  0.00     0.095 C 
ENDBRANCH   4  25
TORSDOF 5
ENDMDL
MODEL 5
REMARK VINA RESULT:      -8.1      0.842      1.973
REMARK  5 active torsions:
REMARK  status: ('A' for Active; 'I' for Inactive)
REMARK    1  A    between atoms: C_6  and  N_7 
REMARK    2  A    between atoms: N_7  and  C_8 
REMARK    3  A    between atoms: C_9  and  C_8 
REMARK    4  A    between atoms: N_11  and  C_15 
REMARK    5  A    between atoms: C_18  and  N_23 
ROOT
HETATM    1  C   UNK N   1      32.840  17.211   7.503  0.00  0.00     0.084 A 
HETATM    2  C   UNK N   1      33.121  17.292   6.137  0.00  0.00     0.077 A 
HETATM    3  C   UNK N   1      32.137  17.181   5.167  0.00  0.00     0.148 A 
HETATM    4  C   UNK N   1      30.791  16.946   5.534  0.00  0.00     0.115 A 
HETATM    5  C   UNK N   1      30.484  16.892   6.922  0.00  0.00     0.187 A 
HETATM    6  C   UNK N   1      31.491  17.025   7.894  0.00  0.00     0.184 A 
HETATM    7  F   UNK N   1      31.126  16.893   9.190  0.00  0.00    -0.200 F 
HETATM    8  F   UNK N   1      29.216  16.670   7.354  0.00  0.00    -0.200 F 
HETATM    9  F   UNK N   1      32.530  17.267   3.873  0.00  0.00    -0.203 F 
ENDROOT
BRANCH   1  10
HETATM   10  N   UNK N   1      33.964  17.197   8.405  0.00  0.00    -0.288 N 
HETATM   11  C   UNK N   1      34.298  16.002   9.141  0.00  0.00     0.169 C 
HETATM   12  C   UNK N   1      35.184  16.584  10.244  0.00  0.00     0.169 C 
HETATM   13  O   UNK N   1      35.594  17.825   9.802  0.00  0.00    -0.295 OA
HETATM   14  C   UNK N   1      34.783  18.192   8.803  0.00  0.00     0.368 C 
HETATM   15  O   UNK N   1      34.794  19.316   8.331  0.00  0.00    -0.238 OA
BRANCH  12  16
HETATM   16  C   UNK N   1      36.150  15.689  10.995  0.00  0.00     0.155 C 
BRANCH  16  17
HETATM   17  N   UNK N   1      35.551  14.509  11.559  0.00  0.00    -0.372 N 
HETATM   18  H   UNK N   1      34.981  13.925  11.011  0.00  0.00     0.161 HD
BRANCH  17  19
HETATM   19  C   UNK N   1      35.796  14.206  12.919  0.00  0.00     0.123 A 
HETATM   20  N   UNK N   1      36.680  14.858  13.690  0.00  0.00    -0.246 N 
HETATM   21  O   UNK N   1      36.679  14.266  14.846  0.00  0.00    -0.248 OA
ATOM     22  HN  UNK N   1      37.245  15.662  13.418  1.00  0.00     0.196 HD
HETATM   23  C   UNK N   1      35.843  13.248  14.865  0.00  0.00     0.171 A 
HETATM   24  C   UNK N   1      35.236  13.166  13.621  0.00  0.00     0.076 A 
ENDBRANCH  17  19
ENDBRANCH  16  17
ENDBRANCH  12  16
ENDBRANCH   1  10
BRANCH   4  25
HETATM   25  N   UNK N   1      29.774  16.746   4.524  0.00  0.00    -0.351 N 
HETATM   26  C   UNK N   1      28.743  17.750   4.294  0.00  0.00     0.136 C 
HETATM   27  C   UNK N   1      27.391  17.092   4.066  0.00  0.00     0.103 C 
HETATM   28  C   UNK N   1      27.536  16.096   2.955  0.00  0.00     0.152 C 
HETATM   29  O   UNK N   1      26.614  15.900   2.181  0.00  0.00    -0.293 OA
HETATM   30  C   UNK N   1      28.794  15.335   2.827  0.00  0.00     0.067 C 
HETATM   31  C   UNK N   1      29.831  15.633   3.625  0.00  0.00     0.095 C 
ENDBRANCH   4  25
TORSDOF 5
ENDMDL
MODEL 6
REMARK VINA RESULT:      -7.9      6.304     13.393
REMARK  5 active torsions:
REMARK  status: ('A' for Active; 'I' for Inactive)
REMARK    1  A    between atoms: C_6  and  N_7 
REMARK    2  A    between atoms: N_7  and  C_8 
REMARK    3  A    between atoms: C_9  and  C_8 
REMARK    4  A    between atoms: N_11  and  C_15 
REMARK    5  A    between atoms: C_18  and  N_23 
ROOT
HETATM    1  C   UNK N   1      35.611  12.544  16.486  0.00  0.00     0.084 A 
HETATM    2  C   UNK N   1      36.016  11.207  16.526  0.00  0.00     0.077 A 
HETATM    3  C   UNK N   1      36.038  10.470  17.699  0.00  0.00     0.148 A 
HETATM    4  C   UNK N   1      35.671  11.067  18.928  0.00  0.00     0.115 A 
HETATM    5  C   UNK N   1      35.227  12.419  18.900  0.00  0.00     0.187 A 
HETATM    6  C   UNK N   1      35.193  13.147  17.698  0.00  0.00     0.184 A 
HETATM    7  F   UNK N   1      34.823  14.446  17.768  0.00  0.00    -0.200 F 
HETATM    8  F   UNK N   1      34.858  13.061  20.037  0.00  0.00    -0.200 F 
HETATM    9  F   UNK N   1      36.458   9.185  17.616  0.00  0.00    -0.203 F 
ENDROOT
BRANCH   1  10
HETATM   10  N   UNK N   1      35.770  13.242  15.235  0.00  0.00    -0.288 N 
HETATM   11  C   UNK N   1      34.996  12.861  14.080  0.00  0.00     0.169 C 
HETATM   12  C   UNK N   1      35.813  13.510  12.961  0.00  0.00     0.169 C 
HETATM   13  O   UNK N   1      36.604  14.468  13.560  0.00  0.00    -0.295 OA
HETATM   14  C   UNK N   1      36.641  14.206  14.873  0.00  0.00     0.368 C 
HETATM   15  O   UNK N   1      37.400  14.781  15.632  0.00  0.00    -0.238 OA
BRANCH  12  16
HETATM   16  C   UNK N   1      35.173  13.787  11.615  0.00  0.00     0.155 C 
BRANCH  16  17
HETATM   17  N   UNK N   1      34.327  14.949  11.587  0.00  0.00    -0.372 N 
HETATM   18  H   UNK N   1      33.585  15.046  12.226  0.00  0.00     0.161 HD
BRANCH  17  19
HETATM   19  C   UNK N   1      34.581  15.952  10.622  0.00  0.00     0.123 A 
HETATM   20  N   UNK N   1      35.278  17.072  10.864  0.00  0.00    -0.246 N 
HETATM   21  O   UNK N   1      35.249  17.777   9.773  0.00  0.00    -0.248 OA
ATOM     22  HN  UNK N   1      35.742  17.322  11.737  1.00  0.00     0.196 HD
HETATM   23  C   UNK N   1      34.553  17.175   8.831  0.00  0.00     0.171 A 
HETATM   24  C   UNK N   1      34.092  15.970   9.338  0.00  0.00     0.076 A 
ENDBRANCH  17  19
ENDBRANCH  16  17
ENDBRANCH  12  16
ENDBRANCH   1  10
BRANCH   4  25
HETATM   25  N   UNK N   1      35.771  10.328  20.168  0.00  0.00    -0.351 N 
HETATM   26  C   UNK N   1      34.667   9.499  20.633  0.00  0.00     0.136 C 
HETATM   27  C   UNK N   1      34.481   9.643  22.136  0.00  0.00     0.103 C 
HETATM   28  C   UNK N   1      35.791   9.349  22.801  0.00  0.00     0.152 C 
HETATM   29  O   UNK N   1      35.818   8.801  23.890  0.00  0.00    -0.293 OA
HETATM   30  C   UNK N   1      37.045   9.757  22.138  0.00  0.00     0.067 C 
HETATM   31  C   UNK N   1      37.002  10.269  20.899  0.00  0.00     0.095 C 
ENDBRANCH   4  25
TORSDOF 5
ENDMDL
MODEL 7
REMARK VINA RESULT:      -7.8      2.656      9.462
REMARK  5 active torsions:
REMARK  status: ('A' for Active; 'I' for Inactive)
REMARK    1  A    between atoms: C_6  and  N_7 
REMARK    2  A    between atoms: N_7  and  C_8 
REMARK    3  A    between atoms: C_9  and  C_8 
REMARK    4  A    between atoms: N_11  and  C_15 
REMARK    5  A    between atoms: C_18  and  N_23 
ROOT
HETATM    1  C   UNK N   1      33.205  16.411   8.125  0.00  0.00     0.084 A 
HETATM    2  C   UNK N   1      33.044  15.048   8.389  0.00  0.00     0.077 A 
HETATM    3  C   UNK N   1      33.786  14.385   9.354  0.00  0.00     0.148 A 
HETATM    4  C   UNK N   1      34.772  15.073  10.100  0.00  0.00     0.115 A 
HETATM    5  C   UNK N   1      34.926  16.467   9.864  0.00  0.00     0.187 A 
HETATM    6  C   UNK N   1      34.153  17.129   8.894  0.00  0.00     0.184 A 
HETATM    7  F   UNK N   1      34.409  18.441   8.683  0.00  0.00    -0.200 F 
HETATM    8  F   UNK N   1      35.850  17.197  10.539  0.00  0.00    -0.200 F 
HETATM    9  F   UNK N   1      33.549  13.061   9.516  0.00  0.00    -0.203 F 
ENDROOT
BRANCH   1  10
HETATM   10  N   UNK N   1      32.481  16.952   7.002  0.00  0.00    -0.288 N 
HETATM   11  C   UNK N   1      31.039  16.950   6.990  0.00  0.00     0.169 C 
HETATM   12  C   UNK N   1      30.764  17.152   5.499  0.00  0.00     0.169 C 
HETATM   13  O   UNK N   1      31.926  17.656   4.952  0.00  0.00    -0.295 OA
HETATM   14  C   UNK N   1      32.922  17.417   5.815  0.00  0.00     0.368 C 
HETATM   15  O   UNK N   1      34.092  17.594   5.527  0.00  0.00    -0.238 OA
BRANCH  12  16
HETATM   16  C   UNK N   1      29.418  17.676   5.038  0.00  0.00     0.155 C 
BRANCH  16  17
HETATM   17  N   UNK N   1      28.492  17.954   6.102  0.00  0.00    -0.372 N 
HETATM   18  H   UNK N   1      28.272  17.264   6.768  0.00  0.00     0.161 HD
BRANCH  17  19
HETATM   19  C   UNK N   1      27.901  19.237   6.172  0.00  0.00     0.123 A 
HETATM   20  N   UNK N   1      27.273  19.720   7.255  0.00  0.00    -0.246 N 
HETATM   21  O   UNK N   1      26.809  20.889   6.931  0.00  0.00    -0.248 OA
ATOM     22  HN  UNK N   1      27.178  19.257   8.158  1.00  0.00     0.196 HD
HETATM   23  C   UNK N   1      27.093  21.189   5.680  0.00  0.00     0.171 A 
HETATM   24  C   UNK N   1      27.813  20.135   5.136  0.00  0.00     0.076 A 
ENDBRANCH  17  19
ENDBRANCH  16  17
ENDBRANCH  12  16
ENDBRANCH   1  10
BRANCH   4  25
HETATM   25  N   UNK N   1      35.606  14.368  11.049  0.00  0.00    -0.351 N 
HETATM   26  C   UNK N   1      36.779  13.626  10.603  0.00  0.00     0.136 C 
HETATM   27  C   UNK N   1      36.897  12.306  11.350  0.00  0.00     0.103 C 
HETATM   28  C   UNK N   1      36.876  12.595  12.820  0.00  0.00     0.152 C 
HETATM   29  O   UNK N   1      37.531  11.913  13.590  0.00  0.00    -0.293 OA
HETATM   30  C   UNK N   1      36.031  13.693  13.328  0.00  0.00     0.067 C 
HETATM   31  C   UNK N   1      35.395  14.494  12.460  0.00  0.00     0.095 C 
ENDBRANCH   4  25
TORSDOF 5
ENDMDL
MODEL 8
REMARK VINA RESULT:      -7.8      4.011     10.706
REMARK  5 active torsions:
REMARK  status: ('A' for Active; 'I' for Inactive)
REMARK    1  A    between atoms: C_6  and  N_7 
REMARK    2  A    between atoms: N_7  and  C_8 
REMARK    3  A    between atoms: C_9  and  C_8 
REMARK    4  A    between atoms: N_11  and  C_15 
REMARK    5  A    between atoms: C_18  and  N_23 
ROOT
HETATM    1  C   UNK N   1      35.695  13.800  12.164  0.00  0.00     0.084 A 
HETATM    2  C   UNK N   1      36.340  14.438  13.227  0.00  0.00     0.077 A 
HETATM    3  C   UNK N   1      36.271  13.968  14.529  0.00  0.00     0.148 A 
HETATM    4  C   UNK N   1      35.505  12.819  14.838  0.00  0.00     0.115 A 
HETATM    5  C   UNK N   1      34.867  12.142  13.762  0.00  0.00     0.187 A 
HETATM    6  C   UNK N   1      34.961  12.621  12.444  0.00  0.00     0.184 A 
HETATM    7  F   UNK N   1      34.270  11.957  11.489  0.00  0.00    -0.200 F 
HETATM    8  F   UNK N   1      34.113  11.033  13.977  0.00  0.00    -0.200 F 
HETATM    9  F   UNK N   1      36.931  14.674  15.479  0.00  0.00    -0.203 F 
ENDROOT
BRANCH   1  10
HETATM   10  N   UNK N   1      35.723  14.465  10.885  0.00  0.00    -0.288 N 
HETATM   11  C   UNK N   1      34.860  15.590  10.626  0.00  0.00     0.169 C 
HETATM   12  C   UNK N   1      34.894  15.630   9.097  0.00  0.00     0.169 C 
HETATM   13  O   UNK N   1      36.006  14.911   8.711  0.00  0.00    -0.295 OA
HETATM   14  C   UNK N   1      36.388  14.160   9.752  0.00  0.00     0.368 C 
HETATM   15  O   UNK N   1      37.237  13.292   9.654  0.00  0.00    -0.238 OA
BRANCH  12  16
HETATM   16  C   UNK N   1      34.521  16.903   8.361  0.00  0.00     0.155 C 
BRANCH  16  17
HETATM   17  N   UNK N   1      33.478  17.669   8.989  0.00  0.00    -0.372 N 
HETATM   18  H   UNK N   1      33.667  18.215   9.785  0.00  0.00     0.161 HD
BRANCH  17  19
HETATM   19  C   UNK N   1      32.175  17.622   8.441  0.00  0.00     0.123 A 
HETATM   20  N   UNK N   1      31.063  17.959   9.110  0.00  0.00    -0.246 N 
HETATM   21  O   UNK N   1      30.062  17.730   8.316  0.00  0.00    -0.248 OA
ATOM     22  HN  UNK N   1      31.014  18.325  10.061  1.00  0.00     0.196 HD
HETATM   23  C   UNK N   1      30.466  17.245   7.160  0.00  0.00     0.171 A 
HETATM   24  C   UNK N   1      31.850  17.156   7.190  0.00  0.00     0.076 A 
ENDBRANCH  17  19
ENDBRANCH  16  17
ENDBRANCH  12  16
ENDBRANCH   1  10
BRANCH   4  25
HETATM   25  N   UNK N   1      35.361  12.373  16.206  0.00  0.00    -0.351 N 
HETATM   26  C   UNK N   1      34.592  13.154  17.168  0.00  0.00     0.136 C 
HETATM   27  C   UNK N   1      35.290  13.181  18.520  0.00  0.00     0.103 C 
HETATM   28  C   UNK N   1      35.546  11.767  18.943  0.00  0.00     0.152 C 
HETATM   29  O   UNK N   1      35.499  11.460  20.123  0.00  0.00    -0.293 OA
HETATM   30  C   UNK N   1      35.887  10.758  17.922  0.00  0.00     0.067 C 
HETATM   31  C   UNK N   1      35.839  11.089  16.623  0.00  0.00     0.095 C 
ENDBRANCH   4  25
TORSDOF 5
ENDMDL
MODEL 9
REMARK VINA RESULT:      -7.7      1.651      2.097
REMARK  5 active torsions:
REMARK  status: ('A' for Active; 'I' for Inactive)
REMARK    1  A    between atoms: C_6  and  N_7 
REMARK    2  A    between atoms: N_7  and  C_8 
REMARK    3  A    between atoms: C_9  and  C_8 
REMARK    4  A    between atoms: N_11  and  C_15 
REMARK    5  A    between atoms: C_18  and  N_23 
ROOT
HETATM    1  C   UNK N   1      31.643  17.105   7.705  0.00  0.00     0.084 A 
HETATM    2  C   UNK N   1      30.634  17.609   8.531  0.00  0.00     0.077 A 
HETATM    3  C   UNK N   1      29.419  18.054   8.034  0.00  0.00     0.148 A 
HETATM    4  C   UNK N   1      29.164  18.040   6.642  0.00  0.00     0.115 A 
HETATM    5  C   UNK N   1      30.169  17.502   5.792  0.00  0.00     0.187 A 
HETATM    6  C   UNK N   1      31.390  17.038   6.313  0.00  0.00     0.184 A 
HETATM    7  F   UNK N   1      32.319  16.604   5.431  0.00  0.00    -0.200 F 
HETATM    8  F   UNK N   1      30.000  17.454   4.446  0.00  0.00    -0.200 F 
HETATM    9  F   UNK N   1      28.520  18.530   8.929  0.00  0.00    -0.203 F 
ENDROOT
BRANCH   1  10
HETATM   10  N   UNK N   1      32.911  16.811   8.324  0.00  0.00    -0.288 N 
HETATM   11  C   UNK N   1      33.101  15.585   9.059  0.00  0.00     0.169 C 
HETATM   12  C   UNK N   1      34.345  15.933   9.878  0.00  0.00     0.169 C 
HETATM   13  O   UNK N   1      34.936  17.012   9.254  0.00  0.00    -0.295 OA
HETATM   14  C   UNK N   1      34.026  17.562   8.440  0.00  0.00     0.368 C 
HETATM   15  O   UNK N   1      34.206  18.632   7.888  0.00  0.00    -0.238 OA
BRANCH  12  16
HETATM   16  C   UNK N   1      35.206  14.827  10.459  0.00  0.00     0.155 C 
BRANCH  16  17
HETATM   17  N   UNK N   1      34.476  13.828  11.191  0.00  0.00    -0.372 N 
HETATM   18  H   UNK N   1      33.649  13.442  10.824  0.00  0.00     0.161 HD
BRANCH  17  19
HETATM   19  C   UNK N   1      34.969  13.410  12.449  0.00  0.00     0.123 A 
HETATM   20  N   UNK N   1      34.553  12.309  13.095  0.00  0.00    -0.246 N 
HETATM   21  O   UNK N   1      35.175  12.284  14.234  0.00  0.00    -0.248 OA
ATOM     22  HN  UNK N   1      33.878  11.625  12.755  1.00  0.00     0.196 HD
HETATM   23  C   UNK N   1      35.971  13.325  14.371  0.00  0.00     0.171 A 
HETATM   24  C   UNK N   1      35.873  14.096  13.223  0.00  0.00     0.076 A 
ENDBRANCH  17  19
ENDBRANCH  16  17
ENDBRANCH  12  16
ENDBRANCH   1  10
BRANCH   4  25
HETATM   25  N   UNK N   1      27.932  18.580   6.112  0.00  0.00    -0.351 N 
HETATM   26  C   UNK N   1      26.899  17.699   5.582  0.00  0.00     0.136 C 
HETATM   27  C   UNK N   1      26.290  18.283   4.315  0.00  0.00     0.103 C 
HETATM   28  C   UNK N   1      25.815  19.671   4.621  0.00  0.00     0.152 C 
HETATM   29  O   UNK N   1      24.816  20.112   4.078  0.00  0.00    -0.293 OA
HETATM   30  C   UNK N   1      26.586  20.507   5.560  0.00  0.00     0.067 C 
HETATM   31  C   UNK N   1      27.624  19.975   6.222  0.00  0.00     0.095 C 
ENDBRANCH   4  25
TORSDOF 5
ENDMDL
