MODEL 1
REMARK VINA RESULT:      -7.1      0.000      0.000
REMARK  9 active torsions:
REMARK  status: ('A' for Active; 'I' for Inactive)
REMARK    1  A    between atoms: C_17  and  C_11 
REMARK    2  A    between atoms: C_22  and  C_11 
REMARK    3  A    between atoms: C_18  and  C_14 
REMARK    4  A    between atoms: N_25  and  C_14 
REMARK    5  A    between atoms: C_18  and  C_15 
REMARK    6  A    between atoms: O_27  and  C_15 
REMARK    7  A    between atoms: O_26  and  C_18 
REMARK    8  A    between atoms: O_27  and  C_21 
REMARK    9  A    between atoms: N_25  and  C_22 
ROOT
HETATM    1  C   UNK N   1      31.745  16.227   8.336  0.00  0.00     0.002 A 
HETATM    2  C   UNK N   1      32.215  14.930   8.521  0.00  0.00     0.003 A 
HETATM    3  C   UNK N   1      32.619  17.310   8.399  0.00  0.00     0.025 A 
HETATM    4  C   UNK N   1      33.550  14.715   8.839  0.00  0.00     0.038 A 
HETATM    5  C   UNK N   1      34.800  18.308   8.627  0.00  0.00     0.102 C 
HETATM    6  C   UNK N   1      33.968  17.118   8.670  0.00  0.00     0.077 A 
HETATM    7  C   UNK N   1      34.436  15.786   8.938  0.00  0.00     0.089 A 
HETATM    8  N   UNK N   1      35.428  19.282   8.581  0.00  0.00    -0.191 NA
ENDROOT
BRANCH   7   9
HETATM    9  O   UNK N   1      35.706  15.485   9.268  0.00  0.00    -0.347 OA
BRANCH   9  10
HETATM   10  C   UNK N   1      36.142  14.208   9.443  0.00  0.00     0.209 C 
BRANCH  10  11
HETATM   11  C   UNK N   1      36.532  14.041  10.897  0.00  0.00     0.159 C 
BRANCH  11  12
HETATM   12  C   UNK N   1      35.479  13.295  11.697  0.00  0.00     0.148 C 
BRANCH  12  13
HETATM   13  N   UNK N   1      35.850  13.239  13.094  0.00  0.00    -0.410 N 
HETATM   14  H   UNK N   1      36.095  14.067  13.637  0.00  0.00     0.154 HD
BRANCH  13  15
HETATM   15  C   UNK N   1      35.843  11.885  13.661  0.00  0.00     0.022 C 
HETATM   16  C   UNK N   1      36.897  10.948  13.094  0.00  0.00     0.038 C 
HETATM   17  C   UNK N   1      34.464  11.249  13.799  0.00  0.00     0.038 C 
BRANCH  15  18
HETATM   18  C   UNK N   1      36.328  12.012  14.989  0.00  0.00     0.070 C 
BRANCH  18  19
HETATM   19  C   UNK N   1      35.817  11.151  16.050  0.00  0.00    -0.028 A 
HETATM   20  C   UNK N   1      36.123   9.851  16.450  0.00  0.00     0.096 A 
HETATM   21  N   UNK N   1      35.918   9.766  17.791  0.00  0.00    -0.365 N 
HETATM   22  C   UNK N   1      35.543  11.008  18.168  0.00  0.00     0.042 A 
HETATM   23  H   UNK N   1      36.023   8.971  18.363  0.00  0.00     0.165 HD
HETATM   24  C   UNK N   1      35.493  11.543  19.447  0.00  0.00     0.030 A 
HETATM   25  C   UNK N   1      35.416  11.819  17.107  0.00  0.00    -0.002 A 
HETATM   26  C   UNK N   1      35.265  12.938  19.570  0.00  0.00     0.002 A 
HETATM   27  C   UNK N   1      35.063  13.749  18.433  0.00  0.00     0.001 A 
HETATM   28  C   UNK N   1      35.156  13.184  17.176  0.00  0.00     0.014 A 
ENDBRANCH  18  19
ENDBRANCH  15  18
ENDBRANCH  13  15
ENDBRANCH  12  13
ENDBRANCH  11  12
BRANCH  11  29
HETATM   29  O   UNK N   1      36.815  15.283  11.450  0.00  0.00    -0.392 OA
HETATM   30  H   UNK N   1      37.735  15.582  11.526  0.00  0.00     0.210 HD
ENDBRANCH  11  29
ENDBRANCH  10  11
ENDBRANCH   9  10
ENDBRANCH   7   9
TORSDOF 9
ENDMDL
MODEL 2
REMARK VINA RESULT:      -7.0      1.739      9.069
REMARK  9 active torsions:
REMARK  status: ('A' for Active; 'I' for Inactive)
REMARK    1  A    between atoms: C_17  and  C_11 
REMARK    2  A    between atoms: C_22  and  C_11 
REMARK    3  A    between atoms: C_18  and  C_14 
REMARK    4  A    between atoms: N_25  and  C_14 
REMARK    5  A    between atoms: C_18  and  C_15 
REMARK    6  A    between atoms: O_27  and  C_15 
REMARK    7  A    between atoms: O_26  and  C_18 
REMARK    8  A    between atoms: O_27  and  C_21 
REMARK    9  A    between atoms: N_25  and  C_22 
ROOT
HETATM    1  C   UNK N   1      35.200  12.619  19.178  0.00  0.00     0.002 A 
HETATM    2  C   UNK N   1      35.282  13.726  18.338  0.00  0.00     0.003 A 
HETATM    3  C   UNK N   1      35.307  11.330  18.659  0.00  0.00     0.025 A 
HETATM    4  C   UNK N   1      35.402  13.547  16.966  0.00  0.00     0.038 A 
HETATM    5  C   UNK N   1      35.660   9.746  16.879  0.00  0.00     0.102 C 
HETATM    6  C   UNK N   1      35.474  11.126  17.295  0.00  0.00     0.077 A 
HETATM    7  C   UNK N   1      35.480  12.266  16.422  0.00  0.00     0.089 A 
HETATM    8  N   UNK N   1      35.806   8.633  16.588  0.00  0.00    -0.191 NA
ENDROOT
BRANCH   7   9
HETATM    9  O   UNK N   1      35.577  12.188  15.081  0.00  0.00    -0.347 OA
BRANCH   9  10
HETATM   10  C   UNK N   1      36.671  12.612  14.393  0.00  0.00     0.209 C 
BRANCH  10  11
HETATM   11  C   UNK N   1      36.195  13.283  13.121  0.00  0.00     0.159 C 
BRANCH  11  12
HETATM   12  C   UNK N   1      35.215  12.423  12.344  0.00  0.00     0.148 C 
BRANCH  12  13
HETATM   13  N   UNK N   1      34.542  13.209  11.333  0.00  0.00    -0.410 N 
HETATM   14  H   UNK N   1      33.956  14.014  11.554  0.00  0.00     0.154 HD
BRANCH  13  15
HETATM   15  C   UNK N   1      34.775  12.745   9.961  0.00  0.00     0.022 C 
HETATM   16  C   UNK N   1      33.524  12.335   9.201  0.00  0.00     0.038 C 
HETATM   17  C   UNK N   1      35.941  11.774   9.796  0.00  0.00     0.038 C 
BRANCH  15  18
HETATM   18  C   UNK N   1      35.141  13.894   9.213  0.00  0.00     0.070 C 
BRANCH  18  19
HETATM   19  C   UNK N   1      34.839  15.231   9.711  0.00  0.00    -0.028 A 
HETATM   20  C   UNK N   1      35.473  16.071  10.625  0.00  0.00     0.096 A 
HETATM   21  N   UNK N   1      35.238  17.355  10.248  0.00  0.00    -0.365 N 
HETATM   22  C   UNK N   1      34.517  17.260   9.109  0.00  0.00     0.042 A 
HETATM   23  H   UNK N   1      35.531  18.177  10.706  0.00  0.00     0.165 HD
HETATM   24  C   UNK N   1      34.261  18.243   8.165  0.00  0.00     0.030 A 
HETATM   25  C   UNK N   1      34.220  15.981   8.828  0.00  0.00    -0.002 A 
HETATM   26  C   UNK N   1      33.652  17.846   6.947  0.00  0.00     0.002 A 
HETATM   27  C   UNK N   1      33.286  16.502   6.716  0.00  0.00     0.001 A 
HETATM   28  C   UNK N   1      33.590  15.548   7.666  0.00  0.00     0.014 A 
ENDBRANCH  18  19
ENDBRANCH  15  18
ENDBRANCH  13  15
ENDBRANCH  12  13
ENDBRANCH  11  12
BRANCH  11  29
HETATM   29  O   UNK N   1      37.289  13.645  12.347  0.00  0.00    -0.392 OA
HETATM   30  H   UNK N   1      37.928  12.971  12.065  0.00  0.00     0.210 HD
ENDBRANCH  11  29
ENDBRANCH  10  11
ENDBRANCH   9  10
ENDBRANCH   7   9
TORSDOF 9
ENDMDL
MODEL 3
REMARK VINA RESULT:      -7.0      2.668      9.725
REMARK  9 active torsions:
REMARK  status: ('A' for Active; 'I' for Inactive)
REMARK    1  A    between atoms: C_17  and  C_11 
REMARK    2  A    between atoms: C_22  and  C_11 
REMARK    3  A    between atoms: C_18  and  C_14 
REMARK    4  A    between atoms: N_25  and  C_14 
REMARK    5  A    between atoms: C_18  and  C_15 
REMARK    6  A    between atoms: O_27  and  C_15 
REMARK    7  A    between atoms: O_26  and  C_18 
REMARK    8  A    between atoms: O_27  and  C_21 
REMARK    9  A    between atoms: N_25  and  C_22 
ROOT
HETATM    1  C   UNK N   1      36.432  10.571  14.533  0.00  0.00     0.002 A 
HETATM    2  C   UNK N   1      35.470  10.567  13.527  0.00  0.00     0.003 A 
HETATM    3  C   UNK N   1      36.918  11.774  15.039  0.00  0.00     0.025 A 
HETATM    4  C   UNK N   1      35.041  11.767  12.974  0.00  0.00     0.038 A 
HETATM    5  C   UNK N   1      36.982  14.177  15.196  0.00  0.00     0.102 C 
HETATM    6  C   UNK N   1      36.471  12.989  14.534  0.00  0.00     0.077 A 
HETATM    7  C   UNK N   1      35.537  12.981  13.443  0.00  0.00     0.089 A 
HETATM    8  N   UNK N   1      37.412  15.100  15.751  0.00  0.00    -0.191 NA
ENDROOT
BRANCH   7   9
HETATM    9  O   UNK N   1      35.079  14.092  12.835  0.00  0.00    -0.347 OA
BRANCH   9  10
HETATM   10  C   UNK N   1      35.636  14.599  11.703  0.00  0.00     0.209 C 
BRANCH  10  11
HETATM   11  C   UNK N   1      34.672  15.610  11.117  0.00  0.00     0.159 C 
BRANCH  11  12
HETATM   12  C   UNK N   1      34.347  15.325   9.661  0.00  0.00     0.148 C 
BRANCH  12  13
HETATM   13  N   UNK N   1      33.364  16.265   9.168  0.00  0.00    -0.410 N 
HETATM   14  H   UNK N   1      32.464  16.417   9.624  0.00  0.00     0.154 HD
BRANCH  13  15
HETATM   15  C   UNK N   1      33.775  16.978   7.954  0.00  0.00     0.022 C 
HETATM   16  C   UNK N   1      34.474  16.120   6.912  0.00  0.00     0.038 C 
HETATM   17  C   UNK N   1      34.448  18.326   8.193  0.00  0.00     0.038 C 
BRANCH  15  18
HETATM   18  C   UNK N   1      32.580  17.280   7.250  0.00  0.00     0.070 C 
BRANCH  18  19
HETATM   19  C   UNK N   1      31.310  17.393   7.958  0.00  0.00    -0.028 A 
HETATM   20  C   UNK N   1      30.782  18.359   8.813  0.00  0.00     0.096 A 
HETATM   21  N   UNK N   1      29.432  18.369   8.652  0.00  0.00    -0.365 N 
HETATM   22  C   UNK N   1      29.188  17.456   7.687  0.00  0.00     0.042 A 
HETATM   23  H   UNK N   1      28.776  18.922   9.135  0.00  0.00     0.165 HD
HETATM   24  C   UNK N   1      28.031  17.276   6.943  0.00  0.00     0.030 A 
HETATM   25  C   UNK N   1      30.314  16.822   7.322  0.00  0.00    -0.002 A 
HETATM   26  C   UNK N   1      28.087  16.384   5.840  0.00  0.00     0.002 A 
HETATM   27  C   UNK N   1      29.270  15.679   5.530  0.00  0.00     0.001 A 
HETATM   28  C   UNK N   1      30.410  15.913   6.273  0.00  0.00     0.014 A 
ENDBRANCH  18  19
ENDBRANCH  15  18
ENDBRANCH  13  15
ENDBRANCH  12  13
ENDBRANCH  11  12
BRANCH  11  29
HETATM   29  O   UNK N   1      35.177  16.891  11.291  0.00  0.00    -0.392 OA
HETATM   30  H   UNK N   1      34.664  17.660  10.994  0.00  0.00     0.210 HD
ENDBRANCH  11  29
ENDBRANCH  10  11
ENDBRANCH   9  10
ENDBRANCH   7   9
TORSDOF 9
ENDMDL
MODEL 4
REMARK VINA RESULT:      -6.9     19.646     23.507
REMARK  9 active torsions:
REMARK  status: ('A' for Active; 'I' for Inactive)
REMARK    1  A    between atoms: C_17  and  C_11 
REMARK    2  A    between atoms: C_22  and  C_11 
REMARK    3  A    between atoms: C_18  and  C_14 
REMARK    4  A    between atoms: N_25  and  C_14 
REMARK    5  A    between atoms: C_18  and  C_15 
REMARK    6  A    between atoms: O_27  and  C_15 
REMARK    7  A    between atoms: O_26  and  C_18 
REMARK    8  A    between atoms: O_27  and  C_21 
REMARK    9  A    between atoms: N_25  and  C_22 
ROOT
HETATM    1  C   UNK N   1      28.025  26.977  -8.307  0.00  0.00     0.002 A 
HETATM    2  C   UNK N   1      29.185  26.449  -7.746  0.00  0.00     0.003 A 
HETATM    3  C   UNK N   1      26.936  26.153  -8.581  0.00  0.00     0.025 A 
HETATM    4  C   UNK N   1      29.286  25.082  -7.524  0.00  0.00     0.038 A 
HETATM    5  C   UNK N   1      25.773  24.043  -8.570  0.00  0.00     0.102 C 
HETATM    6  C   UNK N   1      26.996  24.789  -8.325  0.00  0.00     0.077 A 
HETATM    7  C   UNK N   1      28.221  24.234  -7.820  0.00  0.00     0.089 A 
HETATM    8  N   UNK N   1      24.778  23.486  -8.778  0.00  0.00    -0.191 NA
ENDROOT
BRANCH   7   9
HETATM    9  O   UNK N   1      28.415  22.922  -7.589  0.00  0.00    -0.347 OA
BRANCH   9  10
HETATM   10  C   UNK N   1      29.635  22.327  -7.681  0.00  0.00     0.209 C 
BRANCH  10  11
HETATM   11  C   UNK N   1      29.785  21.380  -6.509  0.00  0.00     0.159 C 
BRANCH  11  12
HETATM   12  C   UNK N   1      30.175  22.098  -5.229  0.00  0.00     0.148 C 
BRANCH  12  13
HETATM   13  N   UNK N   1      29.055  22.852  -4.710  0.00  0.00    -0.410 N 
HETATM   14  H   UNK N   1      28.133  22.847  -5.145  0.00  0.00     0.154 HD
BRANCH  13  15
HETATM   15  C   UNK N   1      29.364  23.627  -3.503  0.00  0.00     0.022 C 
HETATM   16  C   UNK N   1      30.484  24.643  -3.662  0.00  0.00     0.038 C 
HETATM   17  C   UNK N   1      29.450  22.812  -2.217  0.00  0.00     0.038 C 
BRANCH  15  18
HETATM   18  C   UNK N   1      28.269  24.510  -3.310  0.00  0.00     0.070 C 
BRANCH  18  19
HETATM   19  C   UNK N   1      27.252  24.666  -4.343  0.00  0.00    -0.028 A 
HETATM   20  C   UNK N   1      26.109  23.938  -4.670  0.00  0.00     0.096 A 
HETATM   21  N   UNK N   1      25.195  24.801  -5.189  0.00  0.00    -0.365 N 
HETATM   22  C   UNK N   1      25.784  26.016  -5.123  0.00  0.00     0.042 A 
HETATM   23  H   UNK N   1      24.300  24.586  -5.537  0.00  0.00     0.165 HD
HETATM   24  C   UNK N   1      25.196  27.266  -5.247  0.00  0.00     0.030 A 
HETATM   25  C   UNK N   1      27.046  25.919  -4.677  0.00  0.00    -0.002 A 
HETATM   26  C   UNK N   1      25.987  28.401  -4.931  0.00  0.00     0.002 A 
HETATM   27  C   UNK N   1      27.336  28.265  -4.536  0.00  0.00     0.001 A 
HETATM   28  C   UNK N   1      27.872  27.001  -4.390  0.00  0.00     0.014 A 
ENDBRANCH  18  19
ENDBRANCH  15  18
ENDBRANCH  13  15
ENDBRANCH  12  13
ENDBRANCH  11  12
BRANCH  11  29
HETATM   29  O   UNK N   1      30.690  20.378  -6.833  0.00  0.00    -0.392 OA
HETATM   30  H   UNK N   1      31.484  20.588  -7.349  0.00  0.00     0.210 HD
ENDBRANCH  11  29
ENDBRANCH  10  11
ENDBRANCH   9  10
ENDBRANCH   7   9
TORSDOF 9
ENDMDL
MODEL 5
REMARK VINA RESULT:      -6.9     18.858     23.885
REMARK  9 active torsions:
REMARK  status: ('A' for Active; 'I' for Inactive)
REMARK    1  A    between atoms: C_17  and  C_11 
REMARK    2  A    between atoms: C_22  and  C_11 
REMARK    3  A    between atoms: C_18  and  C_14 
REMARK    4  A    between atoms: N_25  and  C_14 
REMARK    5  A    between atoms: C_18  and  C_15 
REMARK    6  A    between atoms: O_27  and  C_15 
REMARK    7  A    between atoms: O_26  and  C_18 
REMARK    8  A    between atoms: O_27  and  C_21 
REMARK    9  A    between atoms: N_25  and  C_22 
ROOT
HETATM    1  C   UNK N   1      30.125  20.582  -6.202  0.00  0.00     0.002 A 
HETATM    2  C   UNK N   1      29.301  21.674  -6.461  0.00  0.00     0.003 A 
HETATM    3  C   UNK N   1      30.985  20.592  -5.106  0.00  0.00     0.025 A 
HETATM    4  C   UNK N   1      29.385  22.809  -5.665  0.00  0.00     0.038 A 
HETATM    5  C   UNK N   1      31.920  21.562  -3.109  0.00  0.00     0.102 C 
HETATM    6  C   UNK N   1      31.053  21.697  -4.267  0.00  0.00     0.077 A 
HETATM    7  C   UNK N   1      30.260  22.853  -4.582  0.00  0.00     0.089 A 
HETATM    8  N   UNK N   1      32.621  21.414  -2.197  0.00  0.00    -0.191 NA
ENDROOT
BRANCH   7   9
HETATM    9  O   UNK N   1      30.287  24.000  -3.878  0.00  0.00    -0.347 OA
BRANCH   9  10
HETATM   10  C   UNK N   1      29.284  24.919  -3.923  0.00  0.00     0.209 C 
BRANCH  10  11
HETATM   11  C   UNK N   1      29.905  26.276  -4.185  0.00  0.00     0.159 C 
BRANCH  11  12
HETATM   12  C   UNK N   1      28.916  27.413  -3.991  0.00  0.00     0.148 C 
BRANCH  12  13
HETATM   13  N   UNK N   1      27.560  26.939  -4.160  0.00  0.00    -0.410 N 
HETATM   14  H   UNK N   1      27.251  26.017  -3.850  0.00  0.00     0.154 HD
BRANCH  13  15
HETATM   15  C   UNK N   1      26.667  27.900  -4.817  0.00  0.00     0.022 C 
HETATM   16  C   UNK N   1      27.316  28.733  -5.911  0.00  0.00     0.038 C 
HETATM   17  C   UNK N   1      25.779  28.706  -3.875  0.00  0.00     0.038 C 
BRANCH  15  18
HETATM   18  C   UNK N   1      25.771  27.132  -5.605  0.00  0.00     0.070 C 
BRANCH  18  19
HETATM   19  C   UNK N   1      26.027  25.717  -5.853  0.00  0.00    -0.028 A 
HETATM   20  C   UNK N   1      25.711  24.557  -5.149  0.00  0.00     0.096 A 
HETATM   21  N   UNK N   1      25.543  23.552  -6.049  0.00  0.00    -0.365 N 
HETATM   22  C   UNK N   1      25.715  24.133  -7.258  0.00  0.00     0.042 A 
HETATM   23  H   UNK N   1      25.340  22.607  -5.861  0.00  0.00     0.165 HD
HETATM   24  C   UNK N   1      25.373  23.639  -8.508  0.00  0.00     0.030 A 
HETATM   25  C   UNK N   1      26.074  25.420  -7.131  0.00  0.00    -0.002 A 
HETATM   26  C   UNK N   1      25.462  24.523  -9.614  0.00  0.00     0.002 A 
HETATM   27  C   UNK N   1      25.915  25.851  -9.454  0.00  0.00     0.001 A 
HETATM   28  C   UNK N   1      26.211  26.314  -8.187  0.00  0.00     0.014 A 
ENDBRANCH  18  19
ENDBRANCH  15  18
ENDBRANCH  13  15
ENDBRANCH  12  13
ENDBRANCH  11  12
BRANCH  11  29
HETATM   29  O   UNK N   1      30.467  26.295  -5.454  0.00  0.00    -0.392 OA
HETATM   30  H   UNK N   1      30.865  25.489  -5.821  0.00  0.00     0.210 HD
ENDBRANCH  11  29
ENDBRANCH  10  11
ENDBRANCH   9  10
ENDBRANCH   7   9
TORSDOF 9
ENDMDL
MODEL 6
REMARK VINA RESULT:      -6.8     12.686     17.252
REMARK  9 active torsions:
REMARK  status: ('A' for Active; 'I' for Inactive)
REMARK    1  A    between atoms: C_17  and  C_11 
REMARK    2  A    between atoms: C_22  and  C_11 
REMARK    3  A    between atoms: C_18  and  C_14 
REMARK    4  A    between atoms: N_25  and  C_14 
REMARK    5  A    between atoms: C_18  and  C_15 
REMARK    6  A    between atoms: O_27  and  C_15 
REMARK    7  A    between atoms: O_26  and  C_18 
REMARK    8  A    between atoms: O_27  and  C_21 
REMARK    9  A    between atoms: N_25  and  C_22 
ROOT
HETATM    1  C   UNK N   1      23.666  11.919  11.318  0.00  0.00     0.002 A 
HETATM    2  C   UNK N   1      22.329  12.014  11.694  0.00  0.00     0.003 A 
HETATM    3  C   UNK N   1      24.079  12.370  10.067  0.00  0.00     0.025 A 
HETATM    4  C   UNK N   1      21.388  12.496  10.794  0.00  0.00     0.038 A 
HETATM    5  C   UNK N   1      23.722  13.416   7.926  0.00  0.00     0.102 C 
HETATM    6  C   UNK N   1      23.165  12.899   9.165  0.00  0.00     0.077 A 
HETATM    7  C   UNK N   1      21.774  12.924   9.525  0.00  0.00     0.089 A 
HETATM    8  N   UNK N   1      24.206  13.818   6.952  0.00  0.00    -0.191 NA
ENDROOT
BRANCH   7   9
HETATM    9  O   UNK N   1      20.793  13.359   8.713  0.00  0.00    -0.347 OA
BRANCH   9  10
HETATM   10  C   UNK N   1      20.362  14.649   8.700  0.00  0.00     0.209 C 
BRANCH  10  11
HETATM   11  C   UNK N   1      20.459  15.161   7.277  0.00  0.00     0.159 C 
BRANCH  11  12
HETATM   12  C   UNK N   1      21.466  16.289   7.134  0.00  0.00     0.148 C 
BRANCH  12  13
HETATM   13  N   UNK N   1      22.253  16.116   5.933  0.00  0.00    -0.410 N 
HETATM   14  H   UNK N   1      22.665  15.222   5.663  0.00  0.00     0.154 HD
BRANCH  13  15
HETATM   15  C   UNK N   1      22.406  17.339   5.137  0.00  0.00     0.022 C 
HETATM   16  C   UNK N   1      23.836  17.835   4.995  0.00  0.00     0.038 C 
HETATM   17  C   UNK N   1      21.399  18.441   5.446  0.00  0.00     0.038 C 
BRANCH  15  18
HETATM   18  C   UNK N   1      22.150  16.969   3.791  0.00  0.00     0.070 C 
BRANCH  18  19
HETATM   19  C   UNK N   1      21.208  15.898   3.483  0.00  0.00    -0.028 A 
HETATM   20  C   UNK N   1      19.818  15.852   3.389  0.00  0.00     0.096 A 
HETATM   21  N   UNK N   1      19.491  14.911   2.464  0.00  0.00    -0.365 N 
HETATM   22  C   UNK N   1      20.673  14.451   1.998  0.00  0.00     0.042 A 
HETATM   23  H   UNK N   1      18.587  14.627   2.193  0.00  0.00     0.165 HD
HETATM   24  C   UNK N   1      20.918  13.704   0.856  0.00  0.00     0.030 A 
HETATM   25  C   UNK N   1      21.702  14.998   2.664  0.00  0.00    -0.002 A 
HETATM   26  C   UNK N   1      22.269  13.519   0.466  0.00  0.00     0.002 A 
HETATM   27  C   UNK N   1      23.331  14.048   1.232  0.00  0.00     0.001 A 
HETATM   28  C   UNK N   1      23.043  14.816   2.342  0.00  0.00     0.014 A 
ENDBRANCH  18  19
ENDBRANCH  15  18
ENDBRANCH  13  15
ENDBRANCH  12  13
ENDBRANCH  11  12
BRANCH  11  29
HETATM   29  O   UNK N   1      19.199  15.536   6.830  0.00  0.00    -0.392 OA
HETATM   30  H   UNK N   1      18.405  15.190   7.269  0.00  0.00     0.210 HD
ENDBRANCH  11  29
ENDBRANCH  10  11
ENDBRANCH   9  10
ENDBRANCH   7   9
TORSDOF 9
ENDMDL
MODEL 7
REMARK VINA RESULT:      -6.8     11.446     15.052
REMARK  9 active torsions:
REMARK  status: ('A' for Active; 'I' for Inactive)
REMARK    1  A    between atoms: C_17  and  C_11 
REMARK    2  A    between atoms: C_22  and  C_11 
REMARK    3  A    between atoms: C_18  and  C_14 
REMARK    4  A    between atoms: N_25  and  C_14 
REMARK    5  A    between atoms: C_18  and  C_15 
REMARK    6  A    between atoms: O_27  and  C_15 
REMARK    7  A    between atoms: O_26  and  C_18 
REMARK    8  A    between atoms: O_27  and  C_21 
REMARK    9  A    between atoms: N_25  and  C_22 
ROOT
HETATM    1  C   UNK N   1      23.397  11.868  11.480  0.00  0.00     0.002 A 
HETATM    2  C   UNK N   1      24.443  12.003  10.571  0.00  0.00     0.003 A 
HETATM    3  C   UNK N   1      22.166  12.468  11.231  0.00  0.00     0.025 A 
HETATM    4  C   UNK N   1      24.284  12.799   9.444  0.00  0.00     0.038 A 
HETATM    5  C   UNK N   1      20.618  13.738   9.891  0.00  0.00     0.102 C 
HETATM    6  C   UNK N   1      21.966  13.232  10.088  0.00  0.00     0.077 A 
HETATM    7  C   UNK N   1      23.070  13.435   9.192  0.00  0.00     0.089 A 
HETATM    8  N   UNK N   1      19.531  14.122   9.770  0.00  0.00    -0.191 NA
ENDROOT
BRANCH   7   9
HETATM    9  O   UNK N   1      23.012  14.200   8.085  0.00  0.00    -0.347 OA
BRANCH   9  10
HETATM   10  C   UNK N   1      23.041  13.684   6.827  0.00  0.00     0.209 C 
BRANCH  10  11
HETATM   11  C   UNK N   1      23.824  14.637   5.947  0.00  0.00     0.159 C 
BRANCH  11  12
HETATM   12  C   UNK N   1      24.265  13.994   4.644  0.00  0.00     0.148 C 
BRANCH  12  13
HETATM   13  N   UNK N   1      25.542  14.528   4.223  0.00  0.00    -0.410 N 
HETATM   14  H   UNK N   1      26.252  14.851   4.880  0.00  0.00     0.154 HD
BRANCH  13  15
HETATM   15  C   UNK N   1      25.725  14.563   2.768  0.00  0.00     0.022 C 
HETATM   16  C   UNK N   1      24.439  14.521   1.959  0.00  0.00     0.038 C 
HETATM   17  C   UNK N   1      26.820  13.646   2.232  0.00  0.00     0.038 C 
BRANCH  15  18
HETATM   18  C   UNK N   1      26.158  15.878   2.457  0.00  0.00     0.070 C 
BRANCH  18  19
HETATM   19  C   UNK N   1      27.065  16.591   3.349  0.00  0.00    -0.028 A 
HETATM   20  C   UNK N   1      28.454  16.624   3.464  0.00  0.00     0.096 A 
HETATM   21  N   UNK N   1      28.809  17.858   3.912  0.00  0.00    -0.365 N 
HETATM   22  C   UNK N   1      27.648  18.542   4.012  0.00  0.00     0.042 A 
HETATM   23  H   UNK N   1      29.716  18.182   4.119  0.00  0.00     0.165 HD
HETATM   24  C   UNK N   1      27.461  19.910   4.140  0.00  0.00     0.030 A 
HETATM   25  C   UNK N   1      26.596  17.754   3.738  0.00  0.00    -0.002 A 
HETATM   26  C   UNK N   1      26.140  20.411   4.016  0.00  0.00     0.002 A 
HETATM   27  C   UNK N   1      25.046  19.544   3.801  0.00  0.00     0.001 A 
HETATM   28  C   UNK N   1      25.279  18.192   3.643  0.00  0.00     0.014 A 
ENDBRANCH  18  19
ENDBRANCH  15  18
ENDBRANCH  13  15
ENDBRANCH  12  13
ENDBRANCH  11  12
BRANCH  11  29
HETATM   29  O   UNK N   1      24.900  15.151   6.658  0.00  0.00    -0.392 OA
HETATM   30  H   UNK N   1      25.795  14.814   6.494  0.00  0.00     0.210 HD
ENDBRANCH  11  29
ENDBRANCH  10  11
ENDBRANCH   9  10
ENDBRANCH   7   9
TORSDOF 9
ENDMDL
MODEL 8
REMARK VINA RESULT:      -6.8     19.440     22.741
REMARK  9 active torsions:
REMARK  status: ('A' for Active; 'I' for Inactive)
REMARK    1  A    between atoms: C_17  and  C_11 
REMARK    2  A    between atoms: C_22  and  C_11 
REMARK    3  A    between atoms: C_18  and  C_14 
REMARK    4  A    between atoms: N_25  and  C_14 
REMARK    5  A    between atoms: C_18  and  C_15 
REMARK    6  A    between atoms: O_27  and  C_15 
REMARK    7  A    between atoms: O_26  and  C_18 
REMARK    8  A    between atoms: O_27  and  C_21 
REMARK    9  A    between atoms: N_25  and  C_22 
ROOT
HETATM    1  C   UNK N   1      27.891  28.451  -7.107  0.00  0.00     0.002 A 
HETATM    2  C   UNK N   1      27.680  27.292  -7.849  0.00  0.00     0.003 A 
HETATM    3  C   UNK N   1      27.292  28.608  -5.859  0.00  0.00     0.025 A 
HETATM    4  C   UNK N   1      26.813  26.315  -7.377  0.00  0.00     0.038 A 
HETATM    5  C   UNK N   1      25.956  27.858  -4.000  0.00  0.00     0.102 C 
HETATM    6  C   UNK N   1      26.456  27.625  -5.344  0.00  0.00     0.077 A 
HETATM    7  C   UNK N   1      26.178  26.465  -6.146  0.00  0.00     0.089 A 
HETATM    8  N   UNK N   1      25.580  28.080  -2.926  0.00  0.00    -0.191 NA
ENDROOT
BRANCH   7   9
HETATM    9  O   UNK N   1      25.342  25.477  -5.777  0.00  0.00    -0.347 OA
BRANCH   9  10
HETATM   10  C   UNK N   1      25.770  24.223  -5.467  0.00  0.00     0.209 C 
BRANCH  10  11
HETATM   11  C   UNK N   1      26.854  24.345  -4.415  0.00  0.00     0.159 C 
BRANCH  11  12
HETATM   12  C   UNK N   1      28.111  23.579  -4.788  0.00  0.00     0.148 C 
BRANCH  12  13
HETATM   13  N   UNK N   1      28.881  23.263  -3.605  0.00  0.00    -0.410 N 
HETATM   14  H   UNK N   1      28.493  23.305  -2.662  0.00  0.00     0.154 HD
BRANCH  13  15
HETATM   15  C   UNK N   1      30.269  22.877  -3.880  0.00  0.00     0.022 C 
HETATM   16  C   UNK N   1      31.108  22.578  -2.648  0.00  0.00     0.038 C 
HETATM   17  C   UNK N   1      30.985  23.736  -4.917  0.00  0.00     0.038 C 
BRANCH  15  18
HETATM   18  C   UNK N   1      30.213  21.578  -4.449  0.00  0.00     0.070 C 
BRANCH  18  19
HETATM   19  C   UNK N   1      31.169  21.175  -5.474  0.00  0.00    -0.028 A 
HETATM   20  C   UNK N   1      32.452  20.635  -5.418  0.00  0.00     0.096 A 
HETATM   21  N   UNK N   1      32.623  19.842  -6.508  0.00  0.00    -0.365 N 
HETATM   22  C   UNK N   1      31.441  19.887  -7.162  0.00  0.00     0.042 A 
HETATM   23  H   UNK N   1      33.432  19.343  -6.765  0.00  0.00     0.165 HD
HETATM   24  C   UNK N   1      30.977  19.046  -8.163  0.00  0.00     0.030 A 
HETATM   25  C   UNK N   1      30.593  20.745  -6.573  0.00  0.00    -0.002 A 
HETATM   26  C   UNK N   1      29.617  19.167  -8.549  0.00  0.00     0.002 A 
HETATM   27  C   UNK N   1      28.772  20.132  -7.958  0.00  0.00     0.001 A 
HETATM   28  C   UNK N   1      29.263  20.925  -6.940  0.00  0.00     0.014 A 
ENDBRANCH  18  19
ENDBRANCH  15  18
ENDBRANCH  13  15
ENDBRANCH  12  13
ENDBRANCH  11  12
BRANCH  11  29
HETATM   29  O   UNK N   1      26.354  23.946  -3.183  0.00  0.00    -0.392 OA
HETATM   30  H   UNK N   1      26.783  23.224  -2.696  0.00  0.00     0.210 HD
ENDBRANCH  11  29
ENDBRANCH  10  11
ENDBRANCH   9  10
ENDBRANCH   7   9
TORSDOF 9
ENDMDL
MODEL 9
REMARK VINA RESULT:      -6.7     11.894     16.424
REMARK  9 active torsions:
REMARK  status: ('A' for Active; 'I' for Inactive)
REMARK    1  A    between atoms: C_17  and  C_11 
REMARK    2  A    between atoms: C_22  and  C_11 
REMARK    3  A    between atoms: C_18  and  C_14 
REMARK    4  A    between atoms: N_25  and  C_14 
REMARK    5  A    between atoms: C_18  and  C_15 
REMARK    6  A    between atoms: O_27  and  C_15 
REMARK    7  A    between atoms: O_26  and  C_18 
REMARK    8  A    between atoms: O_27  and  C_21 
REMARK    9  A    between atoms: N_25  and  C_22 
ROOT
HETATM    1  C   UNK N   1      24.615  12.054  11.124  0.00  0.00     0.002 A 
HETATM    2  C   UNK N   1      24.846  12.765   9.950  0.00  0.00     0.003 A 
HETATM    3  C   UNK N   1      23.318  11.893  11.607  0.00  0.00     0.025 A 
HETATM    4  C   UNK N   1      23.789  13.377   9.290  0.00  0.00     0.038 A 
HETATM    5  C   UNK N   1      20.926  12.151  11.486  0.00  0.00     0.102 C 
HETATM    6  C   UNK N   1      22.238  12.456  10.940  0.00  0.00     0.077 A 
HETATM    7  C   UNK N   1      22.487  13.255   9.772  0.00  0.00     0.089 A 
HETATM    8  N   UNK N   1      19.899  11.883  11.952  0.00  0.00    -0.191 NA
ENDROOT
BRANCH   7   9
HETATM    9  O   UNK N   1      21.527  13.896   9.078  0.00  0.00    -0.347 OA
BRANCH   9  10
HETATM   10  C   UNK N   1      21.775  14.567   7.921  0.00  0.00     0.209 C 
BRANCH  10  11
HETATM   11  C   UNK N   1      20.451  15.059   7.372  0.00  0.00     0.159 C 
BRANCH  11  12
HETATM   12  C   UNK N   1      20.603  16.314   6.530  0.00  0.00     0.148 C 
BRANCH  12  13
HETATM   13  N   UNK N   1      21.977  16.479   6.110  0.00  0.00    -0.410 N 
HETATM   14  H   UNK N   1      22.770  16.146   6.659  0.00  0.00     0.154 HD
BRANCH  13  15
HETATM   15  C   UNK N   1      22.131  17.169   4.825  0.00  0.00     0.022 C 
HETATM   16  C   UNK N   1      20.934  18.003   4.398  0.00  0.00     0.038 C 
HETATM   17  C   UNK N   1      22.722  16.321   3.703  0.00  0.00     0.038 C 
BRANCH  15  18
HETATM   18  C   UNK N   1      23.075  18.205   5.044  0.00  0.00     0.070 C 
BRANCH  18  19
HETATM   19  C   UNK N   1      23.666  18.921   3.918  0.00  0.00    -0.028 A 
HETATM   20  C   UNK N   1      23.239  20.001   3.148  0.00  0.00     0.096 A 
HETATM   21  N   UNK N   1      24.339  20.686   2.739  0.00  0.00    -0.365 N 
HETATM   22  C   UNK N   1      25.384  20.039   3.300  0.00  0.00     0.042 A 
HETATM   23  H   UNK N   1      24.367  21.482   2.159  0.00  0.00     0.165 HD
HETATM   24  C   UNK N   1      26.691  20.477   3.447  0.00  0.00     0.030 A 
HETATM   25  C   UNK N   1      24.979  18.938   3.951  0.00  0.00    -0.002 A 
HETATM   26  C   UNK N   1      27.560  19.702   4.258  0.00  0.00     0.002 A 
HETATM   27  C   UNK N   1      27.119  18.508   4.868  0.00  0.00     0.001 A 
HETATM   28  C   UNK N   1      25.800  18.126   4.727  0.00  0.00     0.014 A 
ENDBRANCH  18  19
ENDBRANCH  15  18
ENDBRANCH  13  15
ENDBRANCH  12  13
ENDBRANCH  11  12
BRANCH  11  29
HETATM   29  O   UNK N   1      19.554  15.244   8.415  0.00  0.00    -0.392 OA
HETATM   30  H   UNK N   1      19.873  15.270   9.331  0.00  0.00     0.210 HD
ENDBRANCH  11  29
ENDBRANCH  10  11
ENDBRANCH   9  10
ENDBRANCH   7   9
TORSDOF 9
ENDMDL
