MODEL 1
REMARK VINA RESULT:      -9.1      0.000      0.000
REMARK  1 active torsions:
REMARK  status: ('A' for Active; 'I' for Inactive)
REMARK    1  A    between atoms: C_15  and  N_16 
ROOT
HETATM    1  C   UNK N   1      38.082  14.135   4.991  0.00  0.00     0.041 C 
HETATM    2  C   UNK N   1      37.045  14.444   6.050  0.00  0.00     0.136 C 
HETATM    3  C   UNK N   1      36.440  13.139   6.550  0.00  0.00     0.155 C 
HETATM    4  N   UNK N   1      35.452  13.480   7.544  0.00  0.00    -0.366 N 
HETATM    5  C   UNK N   1      35.636  13.124   8.913  0.00  0.00     0.079 A 
HETATM    6  C   UNK N   1      34.554  13.304   9.801  0.00  0.00    -0.026 A 
HETATM    7  C   UNK N   1      34.719  13.150  11.179  0.00  0.00     0.028 A 
HETATM    8  C   UNK N   1      35.973  12.774  11.640  0.00  0.00     0.050 A 
HETATM    9  C   UNK N   1      37.002  12.501  10.793  0.00  0.00     0.153 A 
HETATM   10  C   UNK N   1      36.888  12.665   9.418  0.00  0.00     0.180 A 
HETATM   11  F   UNK N   1      37.963  12.446   8.622  0.00  0.00    -0.201 F 
HETATM   12  O   UNK N   1      38.042  12.116  11.496  0.00  0.00    -0.232 OA
HETATM   13  N   UNK N   1      37.756  12.123  12.774  0.00  0.00    -0.243 N 
ATOM     14  HN  UNK N   1      38.378  11.852  13.535  1.00  0.00     0.196 HD
HETATM   15  C   UNK N   1      36.479  12.558  12.896  0.00  0.00     0.146 A 
HETATM   16  C   UNK N   1      33.225  13.655   9.240  0.00  0.00     0.072 C 
HETATM   17  C   UNK N   1      33.354  14.810   8.256  0.00  0.00     0.149 A 
HETATM   18  C   UNK N   1      34.431  14.460   7.153  0.00  0.00     0.141 C 
HETATM   19  C   UNK N   1      35.201  15.676   6.568  0.00  0.00     0.142 C 
HETATM   20  O   UNK N   1      36.027  15.250   5.504  0.00  0.00    -0.378 OA
HETATM   21  C   UNK N   1      34.301  16.796   6.083  0.00  0.00     0.042 C 
HETATM   22  C   UNK N   1      32.011  14.923   7.558  0.00  0.00     0.246 A 
HETATM   23  O   UNK N   1      31.610  13.994   6.871  0.00  0.00    -0.272 OA
HETATM   24  N   UNK N   1      31.229  16.020   7.696  0.00  0.00    -0.278 N 
HETATM   25  C   UNK N   1      31.587  17.079   8.457  0.00  0.00     0.329 A 
HETATM   26  O   UNK N   1      30.828  18.029   8.555  0.00  0.00    -0.247 OA
HETATM   27  N   UNK N   1      32.773  17.101   9.114  0.00  0.00    -0.278 N 
HETATM   28  C   UNK N   1      33.658  16.075   9.062  0.00  0.00     0.246 A 
HETATM   29  O   UNK N   1      34.703  16.165   9.687  0.00  0.00    -0.272 OA
HETATM   30  H   UNK N   1      30.366  16.047   7.223  0.00  0.00     0.173 HD
HETATM   31  H   UNK N   1      33.000  17.895   9.651  0.00  0.00     0.173 HD
ENDROOT
BRANCH  15  32
HETATM   32  N   UNK N   1      35.810  12.750  14.143  0.00  0.00    -0.271 N 
HETATM   33  C   UNK N   1      34.598  12.081  14.528  0.00  0.00     0.117 A 
HETATM   34  C   UNK N   1      34.327  12.677  15.940  0.00  0.00     0.206 A 
HETATM   35  C   UNK N   1      34.804  10.582  14.636  0.00  0.00     0.035 C 
HETATM   36  O   UNK N   1      35.387  13.534  16.180  0.00  0.00    -0.302 OA
HETATM   37  C   UNK N   1      36.210  13.554  15.134  0.00  0.00     0.369 A 
HETATM   38  O   UNK N   1      37.252  14.189  15.129  0.00  0.00    -0.238 OA
ENDBRANCH  15  32
TORSDOF 1
ENDMDL
MODEL 2
REMARK VINA RESULT:      -9.0      4.539      9.316
REMARK  1 active torsions:
REMARK  status: ('A' for Active; 'I' for Inactive)
REMARK    1  A    between atoms: C_15  and  N_16 
ROOT
HETATM    1  C   UNK N   1      34.665  16.362  10.363  0.00  0.00     0.041 C 
HETATM    2  C   UNK N   1      34.037  16.302   8.987  0.00  0.00     0.136 C 
HETATM    3  C   UNK N   1      32.703  15.575   9.079  0.00  0.00     0.155 C 
HETATM    4  N   UNK N   1      32.148  15.530   7.748  0.00  0.00    -0.366 N 
HETATM    5  C   UNK N   1      30.958  16.246   7.426  0.00  0.00     0.079 A 
HETATM    6  C   UNK N   1      30.354  16.008   6.173  0.00  0.00    -0.026 A 
HETATM    7  C   UNK N   1      29.298  16.801   5.719  0.00  0.00     0.028 A 
HETATM    8  C   UNK N   1      28.838  17.804   6.559  0.00  0.00     0.050 A 
HETATM    9  C   UNK N   1      29.341  17.986   7.810  0.00  0.00     0.153 A 
HETATM   10  C   UNK N   1      30.408  17.237   8.291  0.00  0.00     0.180 A 
HETATM   11  F   UNK N   1      30.919  17.503   9.518  0.00  0.00    -0.201 F 
HETATM   12  O   UNK N   1      28.684  18.960   8.397  0.00  0.00    -0.232 OA
HETATM   13  N   UNK N   1      27.765  19.438   7.595  0.00  0.00    -0.243 N 
ATOM     14  HN  UNK N   1      27.105  20.185   7.808  1.00  0.00     0.196 HD
HETATM   15  C   UNK N   1      27.858  18.754   6.429  0.00  0.00     0.146 A 
HETATM   16  C   UNK N   1      30.859  14.885   5.343  0.00  0.00     0.072 C 
HETATM   17  C   UNK N   1      32.377  14.942   5.242  0.00  0.00     0.149 A 
HETATM   18  C   UNK N   1      33.011  14.990   6.690  0.00  0.00     0.141 C 
HETATM   19  C   UNK N   1      34.359  15.755   6.800  0.00  0.00     0.142 C 
HETATM   20  O   UNK N   1      34.886  15.608   8.102  0.00  0.00    -0.378 OA
HETATM   21  C   UNK N   1      35.398  15.312   5.788  0.00  0.00     0.042 C 
HETATM   22  C   UNK N   1      32.809  13.635   4.603  0.00  0.00     0.246 A 
HETATM   23  O   UNK N   1      32.591  12.581   5.182  0.00  0.00    -0.272 OA
HETATM   24  N   UNK N   1      33.408  13.603   3.389  0.00  0.00    -0.278 N 
HETATM   25  C   UNK N   1      33.662  14.721   2.671  0.00  0.00     0.329 A 
HETATM   26  O   UNK N   1      34.188  14.621   1.575  0.00  0.00    -0.247 OA
HETATM   27  N   UNK N   1      33.339  15.948   3.148  0.00  0.00    -0.278 N 
HETATM   28  C   UNK N   1      32.740  16.132   4.350  0.00  0.00     0.246 A 
HETATM   29  O   UNK N   1      32.473  17.269   4.709  0.00  0.00    -0.272 OA
HETATM   30  H   UNK N   1      33.670  12.730   3.014  0.00  0.00     0.173 HD
HETATM   31  H   UNK N   1      33.548  16.738   2.599  0.00  0.00     0.173 HD
ENDROOT
BRANCH  15  32
HETATM   32  N   UNK N   1      27.053  19.015   5.277  0.00  0.00    -0.271 N 
HETATM   33  C   UNK N   1      26.432  17.999   4.472  0.00  0.00     0.117 A 
HETATM   34  C   UNK N   1      25.718  18.840   3.375  0.00  0.00     0.206 A 
HETATM   35  C   UNK N   1      25.404  17.216   5.267  0.00  0.00     0.035 C 
HETATM   36  O   UNK N   1      25.978  20.160   3.704  0.00  0.00    -0.302 OA
HETATM   37  C   UNK N   1      26.745  20.222   4.790  0.00  0.00     0.369 A 
HETATM   38  O   UNK N   1      27.062  21.277   5.312  0.00  0.00    -0.238 OA
ENDBRANCH  15  32
TORSDOF 1
ENDMDL
MODEL 3
REMARK VINA RESULT:      -8.4      9.451     13.352
REMARK  1 active torsions:
REMARK  status: ('A' for Active; 'I' for Inactive)
REMARK    1  A    between atoms: C_15  and  N_16 
ROOT
HETATM    1  C   UNK N   1      20.587  14.266   0.870  0.00  0.00     0.041 C 
HETATM    2  C   UNK N   1      20.941  14.817   2.235  0.00  0.00     0.136 C 
HETATM    3  C   UNK N   1      22.007  13.934   2.868  0.00  0.00     0.155 C 
HETATM    4  N   UNK N   1      22.304  14.487   4.167  0.00  0.00    -0.366 N 
HETATM    5  C   UNK N   1      23.581  15.056   4.447  0.00  0.00     0.079 A 
HETATM    6  C   UNK N   1      23.881  15.398   5.783  0.00  0.00    -0.026 A 
HETATM    7  C   UNK N   1      25.033  16.121   6.102  0.00  0.00     0.028 A 
HETATM    8  C   UNK N   1      25.890  16.455   5.064  0.00  0.00     0.050 A 
HETATM    9  C   UNK N   1      25.669  16.050   3.784  0.00  0.00     0.153 A 
HETATM   10  C   UNK N   1      24.524  15.352   3.421  0.00  0.00     0.180 A 
HETATM   11  F   UNK N   1      24.316  15.031   2.120  0.00  0.00    -0.201 F 
HETATM   12  O   UNK N   1      26.664  16.457   3.030  0.00  0.00    -0.232 OA
HETATM   13  N   UNK N   1      27.539  17.117   3.747  0.00  0.00    -0.243 N 
ATOM     14  HN  UNK N   1      28.412  17.525   3.412  1.00  0.00     0.196 HD
HETATM   15  C   UNK N   1      27.068  17.157   5.016  0.00  0.00     0.146 A 
HETATM   16  C   UNK N   1      22.947  14.965   6.855  0.00  0.00     0.072 C 
HETATM   17  C   UNK N   1      21.514  15.320   6.483  0.00  0.00     0.149 A 
HETATM   18  C   UNK N   1      21.163  14.723   5.061  0.00  0.00     0.141 C 
HETATM   19  C   UNK N   1      20.128  15.536   4.237  0.00  0.00     0.142 C 
HETATM   20  O   UNK N   1      19.798  14.832   3.058  0.00  0.00    -0.378 OA
HETATM   21  C   UNK N   1      18.856  15.859   4.997  0.00  0.00     0.042 C 
HETATM   22  C   UNK N   1      20.628  14.623   7.498  0.00  0.00     0.246 A 
HETATM   23  O   UNK N   1      20.624  13.401   7.555  0.00  0.00    -0.272 OA
HETATM   24  N   UNK N   1      19.857  15.320   8.365  0.00  0.00    -0.278 N 
HETATM   25  C   UNK N   1      19.823  16.673   8.386  0.00  0.00     0.329 A 
HETATM   26  O   UNK N   1      19.121  17.241   9.206  0.00  0.00    -0.247 OA
HETATM   27  N   UNK N   1      20.557  17.405   7.513  0.00  0.00    -0.278 N 
HETATM   28  C   UNK N   1      21.369  16.841   6.586  0.00  0.00     0.246 A 
HETATM   29  O   UNK N   1      22.006  17.567   5.838  0.00  0.00    -0.272 OA
HETATM   30  H   UNK N   1      19.299  14.823   9.007  0.00  0.00     0.173 HD
HETATM   31  H   UNK N   1      20.498  18.387   7.554  0.00  0.00     0.173 HD
ENDROOT
BRANCH  15  32
HETATM   32  N   UNK N   1      27.716  17.833   6.094  0.00  0.00    -0.271 N 
HETATM   33  C   UNK N   1      28.492  17.182   7.114  0.00  0.00     0.117 A 
HETATM   34  C   UNK N   1      28.928  18.377   8.009  0.00  0.00     0.206 A 
HETATM   35  C   UNK N   1      29.718  16.506   6.529  0.00  0.00     0.035 C 
HETATM   36  O   UNK N   1      28.405  19.501   7.393  0.00  0.00    -0.302 OA
HETATM   37  C   UNK N   1      27.717  19.154   6.308  0.00  0.00     0.369 A 
HETATM   38  O   UNK N   1      27.210  19.973   5.560  0.00  0.00    -0.238 OA
ENDBRANCH  15  32
TORSDOF 1
ENDMDL
MODEL 4
REMARK VINA RESULT:      -8.4      1.439      1.667
REMARK  1 active torsions:
REMARK  status: ('A' for Active; 'I' for Inactive)
REMARK    1  A    between atoms: C_15  and  N_16 
ROOT
HETATM    1  C   UNK N   1      38.699  12.026   6.343  0.00  0.00     0.041 C 
HETATM    2  C   UNK N   1      37.735  12.738   7.268  0.00  0.00     0.136 C 
HETATM    3  C   UNK N   1      36.907  11.703   8.018  0.00  0.00     0.155 C 
HETATM    4  N   UNK N   1      35.997  12.424   8.875  0.00  0.00    -0.366 N 
HETATM    5  C   UNK N   1      36.116  12.355  10.293  0.00  0.00     0.079 A 
HETATM    6  C   UNK N   1      35.085  12.914  11.078  0.00  0.00    -0.026 A 
HETATM    7  C   UNK N   1      35.221  13.045  12.462  0.00  0.00     0.028 A 
HETATM    8  C   UNK N   1      36.388  12.569  13.042  0.00  0.00     0.050 A 
HETATM    9  C   UNK N   1      37.351  11.938  12.316  0.00  0.00     0.153 A 
HETATM   10  C   UNK N   1      37.266  11.810  10.935  0.00  0.00     0.180 A 
HETATM   11  F   UNK N   1      38.285  11.235  10.248  0.00  0.00    -0.201 F 
HETATM   12  O   UNK N   1      38.307  11.544  13.126  0.00  0.00    -0.232 OA
HETATM   13  N   UNK N   1      38.027  11.884  14.360  0.00  0.00    -0.243 N 
ATOM     14  HN  UNK N   1      38.592  11.686  15.185  1.00  0.00     0.196 HD
HETATM   15  C   UNK N   1      36.849  12.552  14.334  0.00  0.00     0.146 A 
HETATM   16  C   UNK N   1      33.839  13.358  10.403  0.00  0.00     0.072 C 
HETATM   17  C   UNK N   1      34.171  14.225   9.196  0.00  0.00     0.149 A 
HETATM   18  C   UNK N   1      35.168  13.456   8.239  0.00  0.00     0.141 C 
HETATM   19  C   UNK N   1      36.142  14.357   7.431  0.00  0.00     0.142 C 
HETATM   20  O   UNK N   1      36.877  13.568   6.520  0.00  0.00    -0.378 OA
HETATM   21  C   UNK N   1      35.456  15.480   6.678  0.00  0.00     0.042 C 
HETATM   22  C   UNK N   1      32.870  14.412   8.438  0.00  0.00     0.246 A 
HETATM   23  O   UNK N   1      32.308  13.438   7.956  0.00  0.00    -0.272 OA
HETATM   24  N   UNK N   1      32.297  15.631   8.302  0.00  0.00    -0.278 N 
HETATM   25  C   UNK N   1      32.839  16.754   8.826  0.00  0.00     0.329 A 
HETATM   26  O   UNK N   1      32.262  17.820   8.684  0.00  0.00    -0.247 OA
HETATM   27  N   UNK N   1      34.010  16.714   9.507  0.00  0.00    -0.278 N 
HETATM   28  C   UNK N   1      34.698  15.565   9.715  0.00  0.00     0.246 A 
HETATM   29  O   UNK N   1      35.743  15.608  10.346  0.00  0.00    -0.272 OA
HETATM   30  H   UNK N   1      31.451  15.702   7.802  0.00  0.00     0.173 HD
HETATM   31  H   UNK N   1      34.376  17.555   9.865  0.00  0.00     0.173 HD
ENDROOT
BRANCH  15  32
HETATM   32  N   UNK N   1      36.226  13.131  15.482  0.00  0.00    -0.271 N 
HETATM   33  C   UNK N   1      35.109  12.556  16.178  0.00  0.00     0.117 A 
HETATM   34  C   UNK N   1      34.849  13.600  17.302  0.00  0.00     0.206 A 
HETATM   35  C   UNK N   1      35.470  11.218  16.794  0.00  0.00     0.035 C 
HETATM   36  O   UNK N   1      35.829  14.564  17.134  0.00  0.00    -0.302 OA
HETATM   37  C   UNK N   1      36.592  14.267  16.085  0.00  0.00     0.369 A 
HETATM   38  O   UNK N   1      37.563  14.934  15.768  0.00  0.00    -0.238 OA
ENDBRANCH  15  32
TORSDOF 1
ENDMDL
MODEL 5
REMARK VINA RESULT:      -8.3      4.039      7.176
REMARK  1 active torsions:
REMARK  status: ('A' for Active; 'I' for Inactive)
REMARK    1  A    between atoms: C_15  and  N_16 
ROOT
HETATM    1  C   UNK N   1      27.923  15.222   2.389  0.00  0.00     0.041 C 
HETATM    2  C   UNK N   1      29.271  14.816   2.945  0.00  0.00     0.136 C 
HETATM    3  C   UNK N   1      30.175  16.041   3.007  0.00  0.00     0.155 C 
HETATM    4  N   UNK N   1      31.448  15.606   3.529  0.00  0.00    -0.366 N 
HETATM    5  C   UNK N   1      31.906  16.051   4.803  0.00  0.00     0.079 A 
HETATM    6  C   UNK N   1      33.236  15.757   5.174  0.00  0.00    -0.026 A 
HETATM    7  C   UNK N   1      33.695  16.000   6.471  0.00  0.00     0.028 A 
HETATM    8  C   UNK N   1      32.809  16.578   7.369  0.00  0.00     0.050 A 
HETATM    9  C   UNK N   1      31.555  16.959   7.004  0.00  0.00     0.153 A 
HETATM   10  C   UNK N   1      31.052  16.713   5.732  0.00  0.00     0.180 A 
HETATM   11  F   UNK N   1      29.771  17.049   5.438  0.00  0.00    -0.201 F 
HETATM   12  O   UNK N   1      30.965  17.526   8.031  0.00  0.00    -0.232 OA
HETATM   13  N   UNK N   1      31.767  17.540   9.067  0.00  0.00    -0.243 N 
ATOM     14  HN  UNK N   1      31.565  17.936   9.984  1.00  0.00     0.196 HD
HETATM   15  C   UNK N   1      32.916  16.928   8.691  0.00  0.00     0.146 A 
HETATM   16  C   UNK N   1      34.150  15.187   4.151  0.00  0.00     0.072 C 
HETATM   17  C   UNK N   1      33.483  14.018   3.440  0.00  0.00     0.149 A 
HETATM   18  C   UNK N   1      32.085  14.468   2.855  0.00  0.00     0.141 C 
HETATM   19  C   UNK N   1      31.007  13.353   2.777  0.00  0.00     0.142 C 
HETATM   20  O   UNK N   1      29.860  13.843   2.115  0.00  0.00    -0.378 OA
HETATM   21  C   UNK N   1      31.482  12.090   2.083  0.00  0.00     0.042 C 
HETATM   22  C   UNK N   1      34.377  13.674   2.261  0.00  0.00     0.246 A 
HETATM   23  O   UNK N   1      34.548  14.500   1.376  0.00  0.00    -0.272 OA
HETATM   24  N   UNK N   1      35.014  12.482   2.177  0.00  0.00    -0.278 N 
HETATM   25  C   UNK N   1      34.898  11.525   3.127  0.00  0.00     0.329 A 
HETATM   26  O   UNK N   1      35.515  10.480   3.000  0.00  0.00    -0.247 OA
HETATM   27  N   UNK N   1      34.113  11.710   4.216  0.00  0.00    -0.278 N 
HETATM   28  C   UNK N   1      33.412  12.851   4.428  0.00  0.00     0.246 A 
HETATM   29  O   UNK N   1      32.731  12.947   5.438  0.00  0.00    -0.272 OA
HETATM   30  H   UNK N   1      35.584  12.305   1.394  0.00  0.00     0.173 HD
HETATM   31  H   UNK N   1      34.048  10.986   4.880  0.00  0.00     0.173 HD
ENDROOT
BRANCH  15  32
HETATM   32  N   UNK N   1      34.027  16.699   9.559  0.00  0.00    -0.271 N 
HETATM   33  C   UNK N   1      34.167  15.555  10.417  0.00  0.00     0.117 A 
HETATM   34  C   UNK N   1      35.523  15.838  11.125  0.00  0.00     0.206 A 
HETATM   35  C   UNK N   1      34.265  14.271   9.616  0.00  0.00     0.035 C 
HETATM   36  O   UNK N   1      35.977  17.025  10.576  0.00  0.00    -0.302 OA
HETATM   37  C   UNK N   1      35.098  17.490   9.691  0.00  0.00     0.369 A 
HETATM   38  O   UNK N   1      35.300  18.493   9.027  0.00  0.00    -0.238 OA
ENDBRANCH  15  32
TORSDOF 1
ENDMDL
MODEL 6
REMARK VINA RESULT:      -8.2      2.980      7.135
REMARK  1 active torsions:
REMARK  status: ('A' for Active; 'I' for Inactive)
REMARK    1  A    between atoms: C_15  and  N_16 
ROOT
HETATM    1  C   UNK N   1      38.089  10.885  14.686  0.00  0.00     0.041 C 
HETATM    2  C   UNK N   1      37.570  11.016  13.270  0.00  0.00     0.136 C 
HETATM    3  C   UNK N   1      36.089  11.367  13.312  0.00  0.00     0.155 C 
HETATM    4  N   UNK N   1      35.635  11.469  11.946  0.00  0.00    -0.366 N 
HETATM    5  C   UNK N   1      35.216  12.719  11.405  0.00  0.00     0.079 A 
HETATM    6  C   UNK N   1      34.598  12.724  10.136  0.00  0.00    -0.026 A 
HETATM    7  C   UNK N   1      34.329  13.921   9.469  0.00  0.00     0.028 A 
HETATM    8  C   UNK N   1      34.653  15.105  10.114  0.00  0.00     0.050 A 
HETATM    9  C   UNK N   1      35.159  15.125  11.378  0.00  0.00     0.153 A 
HETATM   10  C   UNK N   1      35.465  13.957  12.066  0.00  0.00     0.180 A 
HETATM   11  F   UNK N   1      36.032  14.029  13.296  0.00  0.00    -0.201 F 
HETATM   12  O   UNK N   1      35.314  16.372  11.756  0.00  0.00    -0.232 OA
HETATM   13  N   UNK N   1      34.937  17.188  10.803  0.00  0.00    -0.243 N 
ATOM     14  HN  UNK N   1      34.938  18.206  10.842  1.00  0.00     0.196 HD
HETATM   15  C   UNK N   1      34.547  16.424   9.754  0.00  0.00     0.146 A 
HETATM   16  C   UNK N   1      34.229  11.423   9.521  0.00  0.00     0.072 C 
HETATM   17  C   UNK N   1      35.404  10.457   9.580  0.00  0.00     0.149 A 
HETATM   18  C   UNK N   1      35.919  10.326  11.068  0.00  0.00     0.141 C 
HETATM   19  C   UNK N   1      37.436  10.029  11.223  0.00  0.00     0.142 C 
HETATM   20  O   UNK N   1      37.741   9.799  12.582  0.00  0.00    -0.378 OA
HETATM   21  C   UNK N   1      37.916   8.850  10.397  0.00  0.00     0.042 C 
HETATM   22  C   UNK N   1      34.858   9.102   9.169  0.00  0.00     0.246 A 
HETATM   23  O   UNK N   1      34.000   8.565   9.855  0.00  0.00    -0.272 OA
HETATM   24  N   UNK N   1      35.279   8.479   8.043  0.00  0.00    -0.278 N 
HETATM   25  C   UNK N   1      36.205   9.016   7.215  0.00  0.00     0.329 A 
HETATM   26  O   UNK N   1      36.527   8.412   6.205  0.00  0.00    -0.247 OA
HETATM   27  N   UNK N   1      36.778  10.213   7.488  0.00  0.00    -0.278 N 
HETATM   28  C   UNK N   1      36.458  10.946   8.583  0.00  0.00     0.246 A 
HETATM   29  O   UNK N   1      37.013  12.020   8.758  0.00  0.00    -0.272 OA
HETATM   30  H   UNK N   1      34.895   7.600   7.817  0.00  0.00     0.173 HD
HETATM   31  H   UNK N   1      37.455  10.566   6.866  0.00  0.00     0.173 HD
ENDROOT
BRANCH  15  32
HETATM   32  N   UNK N   1      34.111  16.945   8.498  0.00  0.00    -0.271 N 
HETATM   33  C   UNK N   1      33.121  16.324   7.660  0.00  0.00     0.117 A 
HETATM   34  C   UNK N   1      33.063  17.296   6.446  0.00  0.00     0.206 A 
HETATM   35  C   UNK N   1      31.768  16.277   8.344  0.00  0.00     0.035 C 
HETATM   36  O   UNK N   1      33.951  18.313   6.753  0.00  0.00    -0.302 OA
HETATM   37  C   UNK N   1      34.533  18.078   7.926  0.00  0.00     0.369 A 
HETATM   38  O   UNK N   1      35.312  18.862   8.443  0.00  0.00    -0.238 OA
ENDBRANCH  15  32
TORSDOF 1
ENDMDL
MODEL 7
REMARK VINA RESULT:      -8.1      2.064      7.040
REMARK  1 active torsions:
REMARK  status: ('A' for Active; 'I' for Inactive)
REMARK    1  A    between atoms: C_15  and  N_16 
ROOT
HETATM    1  C   UNK N   1      40.139   9.968   8.833  0.00  0.00     0.041 C 
HETATM    2  C   UNK N   1      38.869  10.518   9.447  0.00  0.00     0.136 C 
HETATM    3  C   UNK N   1      39.028  12.017   9.662  0.00  0.00     0.155 C 
HETATM    4  N   UNK N   1      37.803  12.494  10.258  0.00  0.00    -0.366 N 
HETATM    5  C   UNK N   1      36.940  13.379   9.548  0.00  0.00     0.079 A 
HETATM    6  C   UNK N   1      35.866  13.969  10.249  0.00  0.00    -0.026 A 
HETATM    7  C   UNK N   1      34.880  14.697   9.579  0.00  0.00     0.028 A 
HETATM    8  C   UNK N   1      35.017  14.855   8.207  0.00  0.00     0.050 A 
HETATM    9  C   UNK N   1      36.096  14.379   7.529  0.00  0.00     0.153 A 
HETATM   10  C   UNK N   1      37.085  13.628   8.153  0.00  0.00     0.180 A 
HETATM   11  F   UNK N   1      38.106  13.117   7.420  0.00  0.00    -0.201 F 
HETATM   12  O   UNK N   1      35.991  14.721   6.266  0.00  0.00    -0.232 OA
HETATM   13  N   UNK N   1      34.890  15.403   6.068  0.00  0.00    -0.243 N 
ATOM     14  HN  UNK N   1      34.576  15.802   5.185  1.00  0.00     0.196 HD
HETATM   15  C   UNK N   1      34.247  15.477   7.258  0.00  0.00     0.146 A 
HETATM   16  C   UNK N   1      35.805  13.806  11.724  0.00  0.00     0.072 C 
HETATM   17  C   UNK N   1      36.001  12.344  12.104  0.00  0.00     0.149 A 
HETATM   18  C   UNK N   1      37.339  11.797  11.464  0.00  0.00     0.141 C 
HETATM   19  C   UNK N   1      37.338  10.283  11.115  0.00  0.00     0.142 C 
HETATM   20  O   UNK N   1      38.624   9.892  10.685  0.00  0.00    -0.378 OA
HETATM   21  C   UNK N   1      36.902   9.391  12.261  0.00  0.00     0.042 C 
HETATM   22  C   UNK N   1      36.176  12.319  13.611  0.00  0.00     0.246 A 
HETATM   23  O   UNK N   1      37.135  12.886  14.115  0.00  0.00    -0.272 OA
HETATM   24  N   UNK N   1      35.281  11.704  14.420  0.00  0.00    -0.278 N 
HETATM   25  C   UNK N   1      34.181  11.076  13.945  0.00  0.00     0.329 A 
HETATM   26  O   UNK N   1      33.403  10.558  14.729  0.00  0.00    -0.247 OA
HETATM   27  N   UNK N   1      33.928  11.017  12.614  0.00  0.00    -0.278 N 
HETATM   28  C   UNK N   1      34.740  11.582  11.688  0.00  0.00     0.246 A 
HETATM   29  O   UNK N   1      34.442  11.493  10.507  0.00  0.00    -0.272 OA
HETATM   30  H   UNK N   1      35.437  11.715  15.392  0.00  0.00     0.173 HD
HETATM   31  H   UNK N   1      33.121  10.542  12.308  0.00  0.00     0.173 HD
ENDROOT
BRANCH  15  32
HETATM   32  N   UNK N   1      32.977  16.102   7.449  0.00  0.00    -0.271 N 
HETATM   33  C   UNK N   1      32.725  17.163   8.385  0.00  0.00     0.117 A 
HETATM   34  C   UNK N   1      31.206  17.430   8.179  0.00  0.00     0.206 A 
HETATM   35  C   UNK N   1      33.516  18.409   8.034  0.00  0.00     0.035 C 
HETATM   36  O   UNK N   1      30.818  16.559   7.174  0.00  0.00    -0.302 OA
HETATM   37  C   UNK N   1      31.851  15.815   6.786  0.00  0.00     0.369 A 
HETATM   38  O   UNK N   1      31.777  15.013   5.870  0.00  0.00    -0.238 OA
ENDBRANCH  15  32
TORSDOF 1
ENDMDL
MODEL 8
REMARK VINA RESULT:      -7.9     10.035     14.061
REMARK  1 active torsions:
REMARK  status: ('A' for Active; 'I' for Inactive)
REMARK    1  A    between atoms: C_15  and  N_16 
ROOT
HETATM    1  C   UNK N   1      19.007  13.234   1.306  0.00  0.00     0.041 C 
HETATM    2  C   UNK N   1      19.736  13.948   2.424  0.00  0.00     0.136 C 
HETATM    3  C   UNK N   1      20.815  13.029   2.982  0.00  0.00     0.155 C 
HETATM    4  N   UNK N   1      21.473  13.743   4.049  0.00  0.00    -0.366 N 
HETATM    5  C   UNK N   1      22.837  14.142   3.931  0.00  0.00     0.079 A 
HETATM    6  C   UNK N   1      23.483  14.656   5.075  0.00  0.00    -0.026 A 
HETATM    7  C   UNK N   1      24.753  15.232   4.989  0.00  0.00     0.028 A 
HETATM    8  C   UNK N   1      25.372  15.244   3.748  0.00  0.00     0.050 A 
HETATM    9  C   UNK N   1      24.807  14.666   2.653  0.00  0.00     0.153 A 
HETATM   10  C   UNK N   1      23.536  14.105   2.690  0.00  0.00     0.180 A 
HETATM   11  F   UNK N   1      22.988  13.603   1.555  0.00  0.00    -0.201 F 
HETATM   12  O   UNK N   1      25.634  14.775   1.638  0.00  0.00    -0.232 OA
HETATM   13  N   UNK N   1      26.724  15.401   2.005  0.00  0.00    -0.243 N 
ATOM     14  HN  UNK N   1      27.532  15.603   1.417  1.00  0.00     0.196 HD
HETATM   15  C   UNK N   1      26.576  15.732   3.310  0.00  0.00     0.146 A 
HETATM   16  C   UNK N   1      22.788  14.567   6.385  0.00  0.00     0.072 C 
HETATM   17  C   UNK N   1      21.358  15.075   6.261  0.00  0.00     0.149 A 
HETATM   18  C   UNK N   1      20.613  14.306   5.098  0.00  0.00     0.141 C 
HETATM   19  C   UNK N   1      19.511  15.118   4.364  0.00  0.00     0.142 C 
HETATM   20  O   UNK N   1      18.832  14.284   3.450  0.00  0.00    -0.378 OA
HETATM   21  C   UNK N   1      18.503  15.764   5.295  0.00  0.00     0.042 C 
HETATM   22  C   UNK N   1      20.666  14.710   7.561  0.00  0.00     0.246 A 
HETATM   23  O   UNK N   1      20.535  13.533   7.864  0.00  0.00    -0.272 OA
HETATM   24  N   UNK N   1      20.208  15.659   8.412  0.00  0.00    -0.278 N 
HETATM   25  C   UNK N   1      20.336  16.983   8.164  0.00  0.00     0.329 A 
HETATM   26  O   UNK N   1      19.919  17.787   8.982  0.00  0.00    -0.247 OA
HETATM   27  N   UNK N   1      20.920  17.429   7.026  0.00  0.00    -0.278 N 
HETATM   28  C   UNK N   1      21.418  16.594   6.082  0.00  0.00     0.246 A 
HETATM   29  O   UNK N   1      21.937  17.072   5.085  0.00  0.00    -0.272 OA
HETATM   30  H   UNK N   1      19.766  15.373   9.245  0.00  0.00     0.173 HD
HETATM   31  H   UNK N   1      20.985  18.401   6.879  0.00  0.00     0.173 HD
ENDROOT
BRANCH  15  32
HETATM   32  N   UNK N   1      27.536  16.472   4.066  0.00  0.00    -0.271 N 
HETATM   33  C   UNK N   1      27.716  17.896   3.981  0.00  0.00     0.117 A 
HETATM   34  C   UNK N   1      28.878  18.141   4.986  0.00  0.00     0.206 A 
HETATM   35  C   UNK N   1      26.476  18.639   4.440  0.00  0.00     0.035 C 
HETATM   36  O   UNK N   1      29.166  16.895   5.517  0.00  0.00    -0.302 OA
HETATM   37  C   UNK N   1      28.386  15.968   4.967  0.00  0.00     0.369 A 
HETATM   38  O   UNK N   1      28.408  14.799   5.314  0.00  0.00    -0.238 OA
ENDBRANCH  15  32
TORSDOF 1
ENDMDL
MODEL 9
REMARK VINA RESULT:      -7.8      2.495      7.140
REMARK  1 active torsions:
REMARK  status: ('A' for Active; 'I' for Inactive)
REMARK    1  A    between atoms: C_15  and  N_16 
ROOT
HETATM    1  C   UNK N   1      37.371  12.831   4.396  0.00  0.00     0.041 C 
HETATM    2  C   UNK N   1      36.583  13.151   5.649  0.00  0.00     0.136 C 
HETATM    3  C   UNK N   1      36.460  14.662   5.787  0.00  0.00     0.155 C 
HETATM    4  N   UNK N   1      35.717  14.921   6.996  0.00  0.00    -0.366 N 
HETATM    5  C   UNK N   1      34.418  15.507   6.946  0.00  0.00     0.079 A 
HETATM    6  C   UNK N   1      33.824  15.919   8.158  0.00  0.00    -0.026 A 
HETATM    7  C   UNK N   1      32.490  16.329   8.205  0.00  0.00     0.028 A 
HETATM    8  C   UNK N   1      31.782  16.356   7.012  0.00  0.00     0.050 A 
HETATM    9  C   UNK N   1      32.364  16.058   5.819  0.00  0.00     0.153 A 
HETATM   10  C   UNK N   1      33.680  15.621   5.732  0.00  0.00     0.180 A 
HETATM   11  F   UNK N   1      34.194  15.268   4.527  0.00  0.00    -0.201 F 
HETATM   12  O   UNK N   1      31.482  16.222   4.861  0.00  0.00    -0.232 OA
HETATM   13  N   UNK N   1      30.336  16.616   5.359  0.00  0.00    -0.243 N 
ATOM     14  HN  UNK N   1      29.490  16.832   4.833  1.00  0.00     0.196 HD
HETATM   15  C   UNK N   1      30.486  16.680   6.704  0.00  0.00     0.146 A 
HETATM   16  C   UNK N   1      34.651  15.915   9.392  0.00  0.00     0.072 C 
HETATM   17  C   UNK N   1      35.380  14.587   9.536  0.00  0.00     0.149 A 
HETATM   18  C   UNK N   1      36.206  14.280   8.224  0.00  0.00     0.141 C 
HETATM   19  C   UNK N   1      36.381  12.775   7.885  0.00  0.00     0.142 C 
HETATM   20  O   UNK N   1      37.245  12.631   6.778  0.00  0.00    -0.378 OA
HETATM   21  C   UNK N   1      36.907  11.944   9.040  0.00  0.00     0.042 C 
HETATM   22  C   UNK N   1      36.378  14.772  10.665  0.00  0.00     0.246 A 
HETATM   23  O   UNK N   1      37.278  15.592  10.545  0.00  0.00    -0.272 OA
HETATM   24  N   UNK N   1      36.283  14.070  11.819  0.00  0.00    -0.278 N 
HETATM   25  C   UNK N   1      35.303  13.164  12.043  0.00  0.00     0.329 A 
HETATM   26  O   UNK N   1      35.263  12.579  13.113  0.00  0.00    -0.247 OA
HETATM   27  N   UNK N   1      34.366  12.899  11.100  0.00  0.00    -0.278 N 
HETATM   28  C   UNK N   1      34.342  13.522   9.896  0.00  0.00     0.246 A 
HETATM   29  O   UNK N   1      33.460  13.235   9.101  0.00  0.00    -0.272 OA
HETATM   30  H   UNK N   1      36.954  14.226  12.524  0.00  0.00     0.173 HD
HETATM   31  H   UNK N   1      33.675  12.226  11.298  0.00  0.00     0.173 HD
ENDROOT
BRANCH  15  32
HETATM   32  N   UNK N   1      29.440  17.025   7.614  0.00  0.00    -0.271 N 
HETATM   33  C   UNK N   1      29.652  17.560   8.931  0.00  0.00     0.117 A 
HETATM   34  C   UNK N   1      28.197  17.723   9.458  0.00  0.00     0.206 A 
HETATM   35  C   UNK N   1      30.331  18.916   8.874  0.00  0.00     0.035 C 
HETATM   36  O   UNK N   1      27.386  17.319   8.411  0.00  0.00    -0.302 OA
HETATM   37  C   UNK N   1      28.128  16.924   7.379  0.00  0.00     0.369 A 
HETATM   38  O   UNK N   1      27.643  16.579   6.314  0.00  0.00    -0.238 OA
ENDBRANCH  15  32
TORSDOF 1
ENDMDL
