MODEL 1
REMARK VINA RESULT:      -7.2      0.000      0.000
REMARK  7 active torsions:
REMARK  status: ('A' for Active; 'I' for Inactive)
REMARK    1  A    between atoms: C_9  and  C_6 
REMARK    2  A    between atoms: C_10  and  C_6 
REMARK    3  A    between atoms: N_21  and  C_9 
REMARK    4  A    between atoms: N_24  and  C_10 
REMARK    5  A    between atoms: N_25  and  C_16 
REMARK    6  A    between atoms: O_28  and  C_17 
REMARK    7  A    between atoms: N_21  and  C_18 
ROOT
HETATM    1  C   UNK N   1      36.372  14.039  11.365  0.00  0.00     0.274 C 
ENDROOT
BRANCH   1   2
HETATM    2  C   UNK N   1      35.566  15.344  11.309  0.00  0.00     0.050 C 
BRANCH   2   3
HETATM    3  C   UNK N   1      34.169  15.122  10.727  0.00  0.00     0.123 C 
BRANCH   3   4
HETATM    4  N   UNK N   1      33.628  16.157   9.867  0.00  0.00    -0.376 N 
HETATM    5  H   UNK N   1      33.516  17.039  10.289  0.00  0.00     0.161 HD
BRANCH   4   6
HETATM    6  C   UNK N   1      33.237  16.080   8.499  0.00  0.00     0.112 A 
HETATM    7  C   UNK N   1      32.430  15.043   8.031  0.00  0.00     0.123 A 
HETATM    8  C   UNK N   1      32.073  14.999   6.692  0.00  0.00     0.254 A 
HETATM    9  N   UNK N   1      32.513  15.978   5.831  0.00  0.00    -0.271 N 
HETATM   10  O   UNK N   1      31.371  14.086   6.290  0.00  0.00    -0.268 OA
HETATM   11  C   UNK N   1      32.140  15.929   4.420  0.00  0.00     0.164 C 
HETATM   12  C   UNK N   1      33.303  17.003   6.300  0.00  0.00     0.332 A 
HETATM   13  N   UNK N   1      33.660  17.048   7.631  0.00  0.00    -0.290 N 
HETATM   14  O   UNK N   1      33.692  17.875   5.535  0.00  0.00    -0.246 OA
HETATM   15  C   UNK N   1      34.498  18.141   8.120  0.00  0.00     0.163 C 
ENDBRANCH   4   6
ENDBRANCH   3   4
ENDBRANCH   2   3
ENDBRANCH   1   2
BRANCH   1  16
HETATM   16  N   UNK N   1      36.299  13.433  12.689  0.00  0.00     0.091 N 
HETATM   17  C   UNK N   1      34.991  12.838  12.878  0.00  0.00     0.292 C 
HETATM   18  C   UNK N   1      34.936  12.127  14.236  0.00  0.00     0.153 C 
HETATM   19  N   UNK N   1      35.768  12.728  15.288  0.00  0.00    -0.375 N 
HETATM   20  C   UNK N   1      36.579  13.912  15.035  0.00  0.00     0.153 C 
HETATM   21  C   UNK N   1      36.362  14.507  13.660  0.00  0.00     0.292 C 
BRANCH  19  22
HETATM   22  C   UNK N   1      35.640  12.225  16.630  0.00  0.00     0.064 A 
HETATM   23  C   UNK N   1      35.163  13.106  17.620  0.00  0.00     0.032 A 
HETATM   24  C   UNK N   1      35.107  12.734  18.961  0.00  0.00     0.002 A 
HETATM   25  C   UNK N   1      35.536  11.471  19.350  0.00  0.00     0.003 A 
HETATM   26  C   UNK N   1      35.990  10.565  18.394  0.00  0.00     0.039 A 
HETATM   27  C   UNK N   1      36.037  10.904  17.036  0.00  0.00     0.094 A 
BRANCH  27  28
HETATM   28  O   UNK N   1      36.447   9.934  16.183  0.00  0.00    -0.354 OA
HETATM   29  C   UNK N   1      35.652   8.868  15.821  0.00  0.00     0.210 C 
ENDBRANCH  27  28
ENDBRANCH  19  22
ENDBRANCH   1  16
TORSDOF 7
ENDMDL
MODEL 2
REMARK VINA RESULT:      -7.2      2.394     10.396
REMARK  7 active torsions:
REMARK  status: ('A' for Active; 'I' for Inactive)
REMARK    1  A    between atoms: C_9  and  C_6 
REMARK    2  A    between atoms: C_10  and  C_6 
REMARK    3  A    between atoms: N_21  and  C_9 
REMARK    4  A    between atoms: N_24  and  C_10 
REMARK    5  A    between atoms: N_25  and  C_16 
REMARK    6  A    between atoms: O_28  and  C_17 
REMARK    7  A    between atoms: N_21  and  C_18 
ROOT
HETATM    1  C   UNK N   1      35.687  15.983  10.285  0.00  0.00     0.274 C 
ENDROOT
BRANCH   1   2
HETATM    2  C   UNK N   1      35.674  15.539  11.754  0.00  0.00     0.050 C 
BRANCH   2   3
HETATM    3  C   UNK N   1      36.151  14.094  11.913  0.00  0.00     0.123 C 
BRANCH   3   4
HETATM    4  N   UNK N   1      36.959  13.779  13.075  0.00  0.00    -0.376 N 
HETATM    5  H   UNK N   1      37.891  14.094  13.038  0.00  0.00     0.161 HD
BRANCH   4   6
HETATM    6  C   UNK N   1      36.598  13.079  14.262  0.00  0.00     0.112 A 
HETATM    7  C   UNK N   1      35.841  13.687  15.263  0.00  0.00     0.123 A 
HETATM    8  C   UNK N   1      35.512  12.976  16.407  0.00  0.00     0.254 A 
HETATM    9  N   UNK N   1      35.931  11.673  16.550  0.00  0.00    -0.271 N 
HETATM   10  O   UNK N   1      34.854  13.517  17.280  0.00  0.00    -0.268 OA
HETATM   11  C   UNK N   1      35.588  10.925  17.757  0.00  0.00     0.164 C 
HETATM   12  C   UNK N   1      36.672  11.075  15.555  0.00  0.00     0.332 A 
HETATM   13  N   UNK N   1      37.000  11.781  14.417  0.00  0.00    -0.290 N 
HETATM   14  O   UNK N   1      37.041   9.915  15.680  0.00  0.00    -0.246 OA
HETATM   15  C   UNK N   1      37.786  11.138  13.367  0.00  0.00     0.163 C 
ENDBRANCH   4   6
ENDBRANCH   3   4
ENDBRANCH   2   3
ENDBRANCH   1   2
BRANCH   1  16
HETATM   16  N   UNK N   1      34.363  16.417   9.855  0.00  0.00     0.091 N 
HETATM   17  C   UNK N   1      33.604  15.273   9.391  0.00  0.00     0.292 C 
HETATM   18  C   UNK N   1      32.183  15.710   9.016  0.00  0.00     0.153 C 
HETATM   19  N   UNK N   1      32.068  17.083   8.504  0.00  0.00    -0.375 N 
HETATM   20  C   UNK N   1      33.234  17.947   8.373  0.00  0.00     0.153 C 
HETATM   21  C   UNK N   1      34.540  17.246   8.680  0.00  0.00     0.292 C 
BRANCH  19  22
HETATM   22  C   UNK N   1      30.801  17.509   7.971  0.00  0.00     0.064 A 
HETATM   23  C   UNK N   1      29.916  18.182   8.835  0.00  0.00     0.032 A 
HETATM   24  C   UNK N   1      28.632  18.537   8.432  0.00  0.00     0.002 A 
HETATM   25  C   UNK N   1      28.193  18.219   7.152  0.00  0.00     0.003 A 
HETATM   26  C   UNK N   1      29.051  17.577   6.262  0.00  0.00     0.039 A 
HETATM   27  C   UNK N   1      30.356  17.228   6.633  0.00  0.00     0.094 A 
BRANCH  27  28
HETATM   28  O   UNK N   1      31.125  16.652   5.677  0.00  0.00    -0.354 OA
HETATM   29  C   UNK N   1      31.911  17.377   4.809  0.00  0.00     0.210 C 
ENDBRANCH  27  28
ENDBRANCH  19  22
ENDBRANCH   1  16
TORSDOF 7
ENDMDL
MODEL 3
REMARK VINA RESULT:      -7.1      8.000     11.991
REMARK  7 active torsions:
REMARK  status: ('A' for Active; 'I' for Inactive)
REMARK    1  A    between atoms: C_9  and  C_6 
REMARK    2  A    between atoms: C_10  and  C_6 
REMARK    3  A    between atoms: N_21  and  C_9 
REMARK    4  A    between atoms: N_24  and  C_10 
REMARK    5  A    between atoms: N_25  and  C_16 
REMARK    6  A    between atoms: O_28  and  C_17 
REMARK    7  A    between atoms: N_21  and  C_18 
ROOT
HETATM    1  C   UNK N   1      26.283  16.027   4.133  0.00  0.00     0.274 C 
ENDROOT
BRANCH   1   2
HETATM    2  C   UNK N   1      25.522  15.245   5.211  0.00  0.00     0.050 C 
BRANCH   2   3
HETATM    3  C   UNK N   1      24.229  15.955   5.618  0.00  0.00     0.123 C 
BRANCH   3   4
HETATM    4  N   UNK N   1      24.145  17.383   5.382  0.00  0.00    -0.376 N 
HETATM    5  H   UNK N   1      24.806  17.929   5.865  0.00  0.00     0.161 HD
BRANCH   4   6
HETATM    6  C   UNK N   1      23.244  18.108   4.550  0.00  0.00     0.112 A 
HETATM    7  C   UNK N   1      21.954  17.643   4.297  0.00  0.00     0.123 A 
HETATM    8  C   UNK N   1      21.106  18.374   3.479  0.00  0.00     0.254 A 
HETATM    9  N   UNK N   1      21.538  19.556   2.922  0.00  0.00    -0.271 N 
HETATM   10  O   UNK N   1      19.981  17.958   3.259  0.00  0.00    -0.268 OA
HETATM   11  C   UNK N   1      20.647  20.324   2.057  0.00  0.00     0.164 C 
HETATM   12  C   UNK N   1      22.811  20.014   3.182  0.00  0.00     0.332 A 
HETATM   13  N   UNK N   1      23.655  19.288   3.995  0.00  0.00    -0.290 N 
HETATM   14  O   UNK N   1      23.194  21.067   2.690  0.00  0.00    -0.246 OA
HETATM   15  C   UNK N   1      25.004  19.783   4.265  0.00  0.00     0.163 C 
ENDBRANCH   4   6
ENDBRANCH   3   4
ENDBRANCH   2   3
ENDBRANCH   1   2
BRANCH   1  16
HETATM   16  N   UNK N   1      27.659  16.284   4.542  0.00  0.00     0.091 N 
HETATM   17  C   UNK N   1      28.064  15.300   5.526  0.00  0.00     0.292 C 
HETATM   18  C   UNK N   1      29.536  15.514   5.899  0.00  0.00     0.153 C 
HETATM   19  N   UNK N   1      29.998  16.908   5.837  0.00  0.00    -0.375 N 
HETATM   20  C   UNK N   1      29.104  17.990   5.444  0.00  0.00     0.153 C 
HETATM   21  C   UNK N   1      27.669  17.546   5.255  0.00  0.00     0.292 C 
BRANCH  19  22
HETATM   22  C   UNK N   1      31.313  17.215   6.335  0.00  0.00     0.064 A 
HETATM   23  C   UNK N   1      32.373  17.258   5.409  0.00  0.00     0.032 A 
HETATM   24  C   UNK N   1      33.691  17.446   5.819  0.00  0.00     0.002 A 
HETATM   25  C   UNK N   1      33.985  17.585   7.170  0.00  0.00     0.003 A 
HETATM   26  C   UNK N   1      32.958  17.573   8.111  0.00  0.00     0.039 A 
HETATM   27  C   UNK N   1      31.621  17.408   7.726  0.00  0.00     0.094 A 
BRANCH  27  28
HETATM   28  O   UNK N   1      30.694  17.462   8.713  0.00  0.00    -0.354 OA
HETATM   29  C   UNK N   1      30.134  18.641   9.153  0.00  0.00     0.210 C 
ENDBRANCH  27  28
ENDBRANCH  19  22
ENDBRANCH   1  16
TORSDOF 7
ENDMDL
MODEL 4
REMARK VINA RESULT:      -7.1      1.639      2.860
REMARK  7 active torsions:
REMARK  status: ('A' for Active; 'I' for Inactive)
REMARK    1  A    between atoms: C_9  and  C_6 
REMARK    2  A    between atoms: C_10  and  C_6 
REMARK    3  A    between atoms: N_21  and  C_9 
REMARK    4  A    between atoms: N_24  and  C_10 
REMARK    5  A    between atoms: N_25  and  C_16 
REMARK    6  A    between atoms: O_28  and  C_17 
REMARK    7  A    between atoms: N_21  and  C_18 
ROOT
HETATM    1  C   UNK N   1      34.563  14.862  10.848  0.00  0.00     0.274 C 
ENDROOT
BRANCH   1   2
HETATM    2  C   UNK N   1      35.176  16.269  10.873  0.00  0.00     0.050 C 
BRANCH   2   3
HETATM    3  C   UNK N   1      34.944  17.011   9.555  0.00  0.00     0.123 C 
BRANCH   3   4
HETATM    4  N   UNK N   1      33.582  17.389   9.229  0.00  0.00    -0.376 N 
HETATM    5  H   UNK N   1      33.058  17.758   9.975  0.00  0.00     0.161 HD
BRANCH   4   6
HETATM    6  C   UNK N   1      32.895  17.302   7.984  0.00  0.00     0.112 A 
HETATM    7  C   UNK N   1      33.537  17.583   6.778  0.00  0.00     0.123 A 
HETATM    8  C   UNK N   1      32.834  17.493   5.586  0.00  0.00     0.254 A 
HETATM    9  N   UNK N   1      31.509  17.124   5.596  0.00  0.00    -0.271 N 
HETATM   10  O   UNK N   1      33.402  17.744   4.536  0.00  0.00    -0.268 OA
HETATM   11  C   UNK N   1      30.768  17.033   4.341  0.00  0.00     0.164 C 
HETATM   12  C   UNK N   1      30.882  16.842   6.789  0.00  0.00     0.332 A 
HETATM   13  N   UNK N   1      31.579  16.932   7.975  0.00  0.00    -0.290 N 
HETATM   14  O   UNK N   1      29.704  16.511   6.798  0.00  0.00    -0.246 OA
HETATM   15  C   UNK N   1      30.905  16.629   9.236  0.00  0.00     0.163 C 
ENDBRANCH   4   6
ENDBRANCH   3   4
ENDBRANCH   2   3
ENDBRANCH   1   2
BRANCH   1  16
HETATM   16  N   UNK N   1      34.805  14.162  12.104  0.00  0.00     0.091 N 
HETATM   17  C   UNK N   1      36.115  14.514  12.612  0.00  0.00     0.292 C 
HETATM   18  C   UNK N   1      36.341  13.845  13.974  0.00  0.00     0.153 C 
HETATM   19  N   UNK N   1      35.671  12.549  14.150  0.00  0.00    -0.375 N 
HETATM   20  C   UNK N   1      34.855  11.964  13.094  0.00  0.00     0.153 C 
HETATM   21  C   UNK N   1      34.894  12.748  11.799  0.00  0.00     0.292 C 
BRANCH  19  22
HETATM   22  C   UNK N   1      35.971  11.780  15.328  0.00  0.00     0.064 A 
HETATM   23  C   UNK N   1      36.704  10.588  15.167  0.00  0.00     0.032 A 
HETATM   24  C   UNK N   1      36.948   9.732  16.237  0.00  0.00     0.002 A 
HETATM   25  C   UNK N   1      36.456  10.041  17.500  0.00  0.00     0.003 A 
HETATM   26  C   UNK N   1      35.749  11.224  17.701  0.00  0.00     0.039 A 
HETATM   27  C   UNK N   1      35.507  12.114  16.647  0.00  0.00     0.094 A 
BRANCH  27  28
HETATM   28  O   UNK N   1      34.854  13.260  16.959  0.00  0.00    -0.354 OA
HETATM   29  C   UNK N   1      35.138  14.004  18.083  0.00  0.00     0.210 C 
ENDBRANCH  27  28
ENDBRANCH  19  22
ENDBRANCH   1  16
TORSDOF 7
ENDMDL
MODEL 5
REMARK VINA RESULT:      -7.0      8.128     11.980
REMARK  7 active torsions:
REMARK  status: ('A' for Active; 'I' for Inactive)
REMARK    1  A    between atoms: C_9  and  C_6 
REMARK    2  A    between atoms: C_10  and  C_6 
REMARK    3  A    between atoms: N_21  and  C_9 
REMARK    4  A    between atoms: N_24  and  C_10 
REMARK    5  A    between atoms: N_25  and  C_16 
REMARK    6  A    between atoms: O_28  and  C_17 
REMARK    7  A    between atoms: N_21  and  C_18 
ROOT
HETATM    1  C   UNK N   1      26.971  15.187   3.395  0.00  0.00     0.274 C 
ENDROOT
BRANCH   1   2
HETATM    2  C   UNK N   1      25.729  16.090   3.416  0.00  0.00     0.050 C 
BRANCH   2   3
HETATM    3  C   UNK N   1      25.165  16.243   4.830  0.00  0.00     0.123 C 
BRANCH   3   4
HETATM    4  N   UNK N   1      24.529  17.503   5.165  0.00  0.00    -0.376 N 
HETATM    5  H   UNK N   1      24.795  17.891   6.029  0.00  0.00     0.161 HD
BRANCH   4   6
HETATM    6  C   UNK N   1      23.576  18.258   4.423  0.00  0.00     0.112 A 
HETATM    7  C   UNK N   1      22.277  17.792   4.223  0.00  0.00     0.123 A 
HETATM    8  C   UNK N   1      21.378  18.553   3.491  0.00  0.00     0.254 A 
HETATM    9  N   UNK N   1      21.769  19.764   2.967  0.00  0.00    -0.271 N 
HETATM   10  O   UNK N   1      20.245  18.136   3.317  0.00  0.00    -0.268 OA
HETATM   11  C   UNK N   1      20.823  20.563   2.193  0.00  0.00     0.164 C 
HETATM   12  C   UNK N   1      23.051  20.221   3.175  0.00  0.00     0.332 A 
HETATM   13  N   UNK N   1      23.946  19.466   3.902  0.00  0.00    -0.290 N 
HETATM   14  O   UNK N   1      23.397  21.300   2.712  0.00  0.00    -0.246 OA
HETATM   15  C   UNK N   1      25.304  19.961   4.117  0.00  0.00     0.163 C 
ENDBRANCH   4   6
ENDBRANCH   3   4
ENDBRANCH   2   3
ENDBRANCH   1   2
BRANCH   1  16
HETATM   16  N   UNK N   1      28.012  15.705   4.274  0.00  0.00     0.091 N 
HETATM   17  C   UNK N   1      28.625  16.869   3.666  0.00  0.00     0.292 C 
HETATM   18  C   UNK N   1      29.664  17.468   4.624  0.00  0.00     0.153 C 
HETATM   19  N   UNK N   1      30.339  16.497   5.496  0.00  0.00    -0.375 N 
HETATM   20  C   UNK N   1      30.026  15.075   5.439  0.00  0.00     0.153 C 
HETATM   21  C   UNK N   1      29.068  14.714   4.324  0.00  0.00     0.292 C 
BRANCH  19  22
HETATM   22  C   UNK N   1      31.444  16.952   6.298  0.00  0.00     0.064 A 
HETATM   23  C   UNK N   1      31.176  17.351   7.622  0.00  0.00     0.032 A 
HETATM   24  C   UNK N   1      32.166  17.900   8.431  0.00  0.00     0.002 A 
HETATM   25  C   UNK N   1      33.452  18.076   7.935  0.00  0.00     0.003 A 
HETATM   26  C   UNK N   1      33.759  17.668   6.639  0.00  0.00     0.039 A 
HETATM   27  C   UNK N   1      32.789  17.092   5.809  0.00  0.00     0.094 A 
BRANCH  27  28
HETATM   28  O   UNK N   1      33.202  16.685   4.584  0.00  0.00    -0.354 OA
HETATM   29  C   UNK N   1      33.681  15.417   4.337  0.00  0.00     0.210 C 
ENDBRANCH  27  28
ENDBRANCH  19  22
ENDBRANCH   1  16
TORSDOF 7
ENDMDL
MODEL 6
REMARK VINA RESULT:      -7.0      2.027      2.781
REMARK  7 active torsions:
REMARK  status: ('A' for Active; 'I' for Inactive)
REMARK    1  A    between atoms: C_9  and  C_6 
REMARK    2  A    between atoms: C_10  and  C_6 
REMARK    3  A    between atoms: N_21  and  C_9 
REMARK    4  A    between atoms: N_24  and  C_10 
REMARK    5  A    between atoms: N_25  and  C_16 
REMARK    6  A    between atoms: O_28  and  C_17 
REMARK    7  A    between atoms: N_21  and  C_18 
ROOT
HETATM    1  C   UNK N   1      36.068  11.182  11.464  0.00  0.00     0.274 C 
ENDROOT
BRANCH   1   2
HETATM    2  C   UNK N   1      34.750  11.435  10.720  0.00  0.00     0.050 C 
BRANCH   2   3
HETATM    3  C   UNK N   1      34.992  11.868   9.272  0.00  0.00     0.123 C 
BRANCH   3   4
HETATM    4  N   UNK N   1      35.771  13.071   9.054  0.00  0.00    -0.376 N 
HETATM    5  H   UNK N   1      36.748  12.953   9.090  0.00  0.00     0.161 HD
BRANCH   4   6
HETATM    6  C   UNK N   1      35.326  14.399   8.795  0.00  0.00     0.112 A 
HETATM    7  C   UNK N   1      34.630  14.718   7.629  0.00  0.00     0.123 A 
HETATM    8  C   UNK N   1      34.216  16.023   7.408  0.00  0.00     0.254 A 
HETATM    9  N   UNK N   1      34.491  16.998   8.340  0.00  0.00    -0.271 N 
HETATM   10  O   UNK N   1      33.612  16.294   6.384  0.00  0.00    -0.268 OA
HETATM   11  C   UNK N   1      34.058  18.373   8.106  0.00  0.00     0.164 C 
HETATM   12  C   UNK N   1      35.173  16.675   9.493  0.00  0.00     0.332 A 
HETATM   13  N   UNK N   1      35.585  15.378   9.713  0.00  0.00    -0.290 N 
HETATM   14  O   UNK N   1      35.414  17.541  10.323  0.00  0.00    -0.246 OA
HETATM   15  C   UNK N   1      36.307  15.046  10.939  0.00  0.00     0.163 C 
ENDBRANCH   4   6
ENDBRANCH   3   4
ENDBRANCH   2   3
ENDBRANCH   1   2
BRANCH   1  16
HETATM   16  N   UNK N   1      35.871  11.217  12.909  0.00  0.00     0.091 N 
HETATM   17  C   UNK N   1      34.591  11.826  13.209  0.00  0.00     0.292 C 
HETATM   18  C   UNK N   1      34.341  11.789  14.722  0.00  0.00     0.153 C 
HETATM   19  N   UNK N   1      35.550  11.871  15.556  0.00  0.00    -0.375 N 
HETATM   20  C   UNK N   1      36.877  11.977  14.964  0.00  0.00     0.153 C 
HETATM   21  C   UNK N   1      36.854  12.129  13.457  0.00  0.00     0.292 C 
BRANCH  19  22
HETATM   22  C   UNK N   1      35.390  12.016  16.978  0.00  0.00     0.064 A 
HETATM   23  C   UNK N   1      35.181  13.312  17.488  0.00  0.00     0.032 A 
HETATM   24  C   UNK N   1      35.120  13.554  18.858  0.00  0.00     0.002 A 
HETATM   25  C   UNK N   1      35.276  12.506  19.757  0.00  0.00     0.003 A 
HETATM   26  C   UNK N   1      35.458  11.208  19.287  0.00  0.00     0.039 A 
HETATM   27  C   UNK N   1      35.502  10.931  17.915  0.00  0.00     0.094 A 
BRANCH  27  28
HETATM   28  O   UNK N   1      35.633   9.629  17.563  0.00  0.00    -0.354 OA
HETATM   29  C   UNK N   1      36.851   8.987  17.498  0.00  0.00     0.210 C 
ENDBRANCH  27  28
ENDBRANCH  19  22
ENDBRANCH   1  16
TORSDOF 7
ENDMDL
MODEL 7
REMARK VINA RESULT:      -7.0      1.939     10.505
REMARK  7 active torsions:
REMARK  status: ('A' for Active; 'I' for Inactive)
REMARK    1  A    between atoms: C_9  and  C_6 
REMARK    2  A    between atoms: C_10  and  C_6 
REMARK    3  A    between atoms: N_21  and  C_9 
REMARK    4  A    between atoms: N_24  and  C_10 
REMARK    5  A    between atoms: N_25  and  C_16 
REMARK    6  A    between atoms: O_28  and  C_17 
REMARK    7  A    between atoms: N_21  and  C_18 
ROOT
HETATM    1  C   UNK N   1      35.441  14.622  12.438  0.00  0.00     0.274 C 
ENDROOT
BRANCH   1   2
HETATM    2  C   UNK N   1      36.152  13.294  12.142  0.00  0.00     0.050 C 
BRANCH   2   3
HETATM    3  C   UNK N   1      36.420  12.499  13.422  0.00  0.00     0.123 C 
BRANCH   3   4
HETATM    4  N   UNK N   1      35.302  12.274  14.319  0.00  0.00    -0.376 N 
HETATM    5  H   UNK N   1      34.437  12.109  13.879  0.00  0.00     0.161 HD
BRANCH   4   6
HETATM    6  C   UNK N   1      35.277  12.259  15.743  0.00  0.00     0.112 A 
HETATM    7  C   UNK N   1      35.342  13.438  16.484  0.00  0.00     0.123 A 
HETATM    8  C   UNK N   1      35.319  13.384  17.869  0.00  0.00     0.254 A 
HETATM    9  N   UNK N   1      35.232  12.168  18.508  0.00  0.00    -0.271 N 
HETATM   10  O   UNK N   1      35.380  14.420  18.510  0.00  0.00    -0.268 OA
HETATM   11  C   UNK N   1      35.213  12.110  19.967  0.00  0.00     0.164 C 
HETATM   12  C   UNK N   1      35.162  11.007  17.770  0.00  0.00     0.332 A 
HETATM   13  N   UNK N   1      35.184  11.060  16.393  0.00  0.00    -0.290 N 
HETATM   14  O   UNK N   1      35.080   9.926  18.338  0.00  0.00    -0.246 OA
HETATM   15  C   UNK N   1      35.108   9.822  15.619  0.00  0.00     0.163 C 
ENDBRANCH   4   6
ENDBRANCH   3   4
ENDBRANCH   2   3
ENDBRANCH   1   2
BRANCH   1  16
HETATM   16  N   UNK N   1      34.711  15.098  11.269  0.00  0.00     0.091 N 
HETATM   17  C   UNK N   1      34.626  14.039  10.284  0.00  0.00     0.292 C 
HETATM   18  C   UNK N   1      33.788  14.508   9.088  0.00  0.00     0.153 C 
HETATM   19  N   UNK N   1      33.866  15.947   8.798  0.00  0.00    -0.375 N 
HETATM   20  C   UNK N   1      34.686  16.842   9.604  0.00  0.00     0.153 C 
HETATM   21  C   UNK N   1      35.522  16.123  10.642  0.00  0.00     0.292 C 
BRANCH  19  22
HETATM   22  C   UNK N   1      33.249  16.436   7.594  0.00  0.00     0.064 A 
HETATM   23  C   UNK N   1      31.916  16.881   7.673  0.00  0.00     0.032 A 
HETATM   24  C   UNK N   1      31.210  17.273   6.538  0.00  0.00     0.002 A 
HETATM   25  C   UNK N   1      31.817  17.219   5.289  0.00  0.00     0.003 A 
HETATM   26  C   UNK N   1      33.143  16.807   5.178  0.00  0.00     0.039 A 
HETATM   27  C   UNK N   1      33.885  16.429   6.304  0.00  0.00     0.094 A 
BRANCH  27  28
HETATM   28  O   UNK N   1      35.180  16.093   6.093  0.00  0.00    -0.354 OA
HETATM   29  C   UNK N   1      35.563  14.900   5.520  0.00  0.00     0.210 C 
ENDBRANCH  27  28
ENDBRANCH  19  22
ENDBRANCH   1  16
TORSDOF 7
ENDMDL
MODEL 8
REMARK VINA RESULT:      -6.9      7.987     12.230
REMARK  7 active torsions:
REMARK  status: ('A' for Active; 'I' for Inactive)
REMARK    1  A    between atoms: C_9  and  C_6 
REMARK    2  A    between atoms: C_10  and  C_6 
REMARK    3  A    between atoms: N_21  and  C_9 
REMARK    4  A    between atoms: N_24  and  C_10 
REMARK    5  A    between atoms: N_25  and  C_16 
REMARK    6  A    between atoms: O_28  and  C_17 
REMARK    7  A    between atoms: N_21  and  C_18 
ROOT
HETATM    1  C   UNK N   1      26.839  15.345   3.607  0.00  0.00     0.274 C 
ENDROOT
BRANCH   1   2
HETATM    2  C   UNK N   1      25.613  16.270   3.618  0.00  0.00     0.050 C 
BRANCH   2   3
HETATM    3  C   UNK N   1      25.300  16.777   5.027  0.00  0.00     0.123 C 
BRANCH   3   4
HETATM    4  N   UNK N   1      23.988  17.352   5.256  0.00  0.00    -0.376 N 
HETATM    5  H   UNK N   1      23.591  17.158   6.136  0.00  0.00     0.161 HD
BRANCH   4   6
HETATM    6  C   UNK N   1      23.192  18.156   4.391  0.00  0.00     0.112 A 
HETATM    7  C   UNK N   1      23.631  19.404   3.951  0.00  0.00     0.123 A 
HETATM    8  C   UNK N   1      22.826  20.162   3.112  0.00  0.00     0.254 A 
HETATM    9  N   UNK N   1      21.600  19.678   2.716  0.00  0.00    -0.271 N 
HETATM   10  O   UNK N   1      23.216  21.254   2.736  0.00  0.00    -0.268 OA
HETATM   11  C   UNK N   1      20.751  20.477   1.837  0.00  0.00     0.164 C 
HETATM   12  C   UNK N   1      21.175  18.442   3.149  0.00  0.00     0.332 A 
HETATM   13  N   UNK N   1      21.974  17.688   3.983  0.00  0.00    -0.290 N 
HETATM   14  O   UNK N   1      20.086  18.011   2.794  0.00  0.00    -0.246 OA
HETATM   15  C   UNK N   1      21.514  16.377   4.435  0.00  0.00     0.163 C 
ENDBRANCH   4   6
ENDBRANCH   3   4
ENDBRANCH   2   3
ENDBRANCH   1   2
BRANCH   1  16
HETATM   16  N   UNK N   1      27.912  15.887   4.432  0.00  0.00     0.091 N 
HETATM   17  C   UNK N   1      28.620  16.914   3.695  0.00  0.00     0.292 C 
HETATM   18  C   UNK N   1      29.696  17.545   4.588  0.00  0.00     0.153 C 
HETATM   19  N   UNK N   1      30.287  16.641   5.585  0.00  0.00    -0.375 N 
HETATM   20  C   UNK N   1      29.862  15.251   5.699  0.00  0.00     0.153 C 
HETATM   21  C   UNK N   1      28.886  14.830   4.622  0.00  0.00     0.292 C 
BRANCH  19  22
HETATM   22  C   UNK N   1      31.419  17.105   6.342  0.00  0.00     0.064 A 
HETATM   23  C   UNK N   1      32.659  17.197   5.681  0.00  0.00     0.032 A 
HETATM   24  C   UNK N   1      33.825  17.537   6.362  0.00  0.00     0.002 A 
HETATM   25  C   UNK N   1      33.783  17.785   7.729  0.00  0.00     0.003 A 
HETATM   26  C   UNK N   1      32.570  17.728   8.409  0.00  0.00     0.039 A 
HETATM   27  C   UNK N   1      31.378  17.410   7.746  0.00  0.00     0.094 A 
BRANCH  27  28
HETATM   28  O   UNK N   1      30.245  17.430   8.490  0.00  0.00    -0.354 OA
HETATM   29  C   UNK N   1      29.585  18.594   8.820  0.00  0.00     0.210 C 
ENDBRANCH  27  28
ENDBRANCH  19  22
ENDBRANCH   1  16
TORSDOF 7
ENDMDL
MODEL 9
REMARK VINA RESULT:      -6.8      1.507      2.539
REMARK  7 active torsions:
REMARK  status: ('A' for Active; 'I' for Inactive)
REMARK    1  A    between atoms: C_9  and  C_6 
REMARK    2  A    between atoms: C_10  and  C_6 
REMARK    3  A    between atoms: N_21  and  C_9 
REMARK    4  A    between atoms: N_24  and  C_10 
REMARK    5  A    between atoms: N_25  and  C_16 
REMARK    6  A    between atoms: O_28  and  C_17 
REMARK    7  A    between atoms: N_21  and  C_18 
ROOT
HETATM    1  C   UNK N   1      36.528  11.786  10.961  0.00  0.00     0.274 C 
ENDROOT
BRANCH   1   2
HETATM    2  C   UNK N   1      36.675  13.086  10.158  0.00  0.00     0.050 C 
BRANCH   2   3
HETATM    3  C   UNK N   1      36.051  14.276  10.890  0.00  0.00     0.123 C 
BRANCH   3   4
HETATM    4  N   UNK N   1      34.768  14.758  10.416  0.00  0.00    -0.376 N 
HETATM    5  H   UNK N   1      34.004  14.574  11.009  0.00  0.00     0.161 HD
BRANCH   4   6
HETATM    6  C   UNK N   1      34.454  15.458   9.216  0.00  0.00     0.112 A 
HETATM    7  C   UNK N   1      34.785  16.802   9.051  0.00  0.00     0.123 A 
HETATM    8  C   UNK N   1      34.459  17.452   7.870  0.00  0.00     0.254 A 
HETATM    9  N   UNK N   1      33.814  16.769   6.865  0.00  0.00    -0.271 N 
HETATM   10  O   UNK N   1      34.748  18.629   7.736  0.00  0.00    -0.268 OA
HETATM   11  C   UNK N   1      33.468  17.454   5.623  0.00  0.00     0.164 C 
HETATM   12  C   UNK N   1      33.497  15.439   7.031  0.00  0.00     0.332 A 
HETATM   13  N   UNK N   1      33.819  14.792   8.205  0.00  0.00    -0.290 N 
HETATM   14  O   UNK N   1      32.926  14.830   6.136  0.00  0.00    -0.246 OA
HETATM   15  C   UNK N   1      33.479  13.380   8.371  0.00  0.00     0.163 C 
ENDBRANCH   4   6
ENDBRANCH   3   4
ENDBRANCH   2   3
ENDBRANCH   1   2
BRANCH   1  16
HETATM   16  N   UNK N   1      36.280  12.064  12.370  0.00  0.00     0.091 N 
HETATM   17  C   UNK N   1      37.402  11.601  13.162  0.00  0.00     0.292 C 
HETATM   18  C   UNK N   1      37.184  11.967  14.636  0.00  0.00     0.153 C 
HETATM   19  N   UNK N   1      35.779  11.995  15.069  0.00  0.00    -0.375 N 
HETATM   20  C   UNK N   1      34.691  11.696  14.146  0.00  0.00     0.153 C 
HETATM   21  C   UNK N   1      35.167  11.234  12.785  0.00  0.00     0.292 C 
BRANCH  19  22
HETATM   22  C   UNK N   1      35.500  12.159  16.471  0.00  0.00     0.064 A 
HETATM   23  C   UNK N   1      35.296  13.467  16.952  0.00  0.00     0.032 A 
HETATM   24  C   UNK N   1      35.123  13.725  18.309  0.00  0.00     0.002 A 
HETATM   25  C   UNK N   1      35.160  12.680  19.226  0.00  0.00     0.003 A 
HETATM   26  C   UNK N   1      35.334  11.372  18.782  0.00  0.00     0.039 A 
HETATM   27  C   UNK N   1      35.489  11.080  17.421  0.00  0.00     0.094 A 
BRANCH  27  28
HETATM   28  O   UNK N   1      35.601   9.770  17.090  0.00  0.00    -0.354 OA
HETATM   29  C   UNK N   1      36.034   8.807  17.975  0.00  0.00     0.210 C 
ENDBRANCH  27  28
ENDBRANCH  19  22
ENDBRANCH   1  16
TORSDOF 7
ENDMDL
