MODEL 1
REMARK VINA RESULT:      -6.3      0.000      0.000
REMARK  14 active torsions:
REMARK  status: ('A' for Active; 'I' for Inactive)
REMARK    1  A    between atoms: N_26  and  C_6 
REMARK    2  A    between atoms: C_8  and  C_7 
REMARK    3  A    between atoms: C_15  and  C_7 
REMARK    4  A    between atoms: C_16  and  C_8 
REMARK    5  A    between atoms: N_26  and  C_15 
REMARK    6  A    between atoms: O_31  and  C_16 
REMARK    7  A    between atoms: C_19  and  C_17 
REMARK    8  A    between atoms: C_20  and  C_17 
REMARK    9  A    between atoms: N_26  and  C_19 
REMARK   10  A    between atoms: C_25  and  C_21 
REMARK   11  A    between atoms: O_28  and  C_22 
REMARK   12  A    between atoms: O_29  and  C_23 
REMARK   13  A    between atoms: O_30  and  C_24 
REMARK   14  A    between atoms: O_31  and  C_25 
ROOT
HETATM    1  C   UNK N   1      29.841  27.910  -3.478  0.00  0.00     0.032 C 
ENDROOT
BRANCH   1   2
HETATM    2  C   UNK N   1      30.094  26.718  -4.376  0.00  0.00     0.028 C 
BRANCH   2   3
HETATM    3  C   UNK N   1      30.857  25.643  -3.619  0.00  0.00     0.179 C 
BRANCH   3   4
HETATM    4  O   UNK N   1      29.998  24.802  -2.941  0.00  0.00    -0.318 OA
BRANCH   4   5
HETATM    5  C   UNK N   1      30.268  23.491  -2.702  0.00  0.00     0.293 C 
HETATM    6  O   UNK N   1      30.432  23.132  -1.543  0.00  0.00    -0.259 OA
BRANCH   5   7
HETATM    7  C   UNK N   1      30.389  22.482  -3.791  0.00  0.00     0.042 A 
HETATM    8  C   UNK N   1      29.595  22.584  -4.937  0.00  0.00     0.020 A 
HETATM    9  C   UNK N   1      29.697  21.633  -5.952  0.00  0.00     0.040 A 
HETATM   10  C   UNK N   1      30.604  20.568  -5.863  0.00  0.00     0.101 A 
HETATM   11  C   UNK N   1      31.422  20.462  -4.694  0.00  0.00     0.102 A 
HETATM   12  C   UNK N   1      31.297  21.423  -3.693  0.00  0.00     0.057 A 
BRANCH  10  13
HETATM   13  O   UNK N   1      30.660  19.723  -6.926  0.00  0.00    -0.353 OA
HETATM   14  C   UNK N   1      30.144  19.962  -8.177  0.00  0.00     0.210 C 
ENDBRANCH  10  13
BRANCH  11  15
HETATM   15  O   UNK N   1      32.317  19.468  -4.480  0.00  0.00    -0.353 OA
HETATM   16  C   UNK N   1      33.639  19.564  -4.840  0.00  0.00     0.210 C 
ENDBRANCH  11  15
ENDBRANCH   5   7
ENDBRANCH   4   5
ENDBRANCH   3   4
ENDBRANCH   2   3
ENDBRANCH   1   2
BRANCH   1  17
HETATM   17  C   UNK N   1      29.454  29.107  -4.324  0.00  0.00     0.273 C 
BRANCH  17  18
HETATM   18  N   UNK N   1      28.216  28.850  -5.058  0.00  0.00     0.092 N 
BRANCH  18  19
HETATM   19  C   UNK N   1      28.417  29.314  -6.421  0.00  0.00     0.268 C 
HETATM   20  C   UNK N   1      28.202  28.163  -7.386  0.00  0.00     0.037 C 
ENDBRANCH  18  19
BRANCH  18  21
HETATM   21  C   UNK N   1      27.035  29.529  -4.496  0.00  0.00     0.223 C 
HETATM   22  C   UNK N   1      27.330  30.910  -3.896  0.00  0.00     0.043 C 
BRANCH  21  23
HETATM   23  C   UNK N   1      26.315  28.611  -3.514  0.00  0.00     0.074 C 
BRANCH  23  24
HETATM   24  C   UNK N   1      26.064  27.258  -4.095  0.00  0.00    -0.056 A 
HETATM   25  C   UNK N   1      25.315  27.150  -5.268  0.00  0.00     0.010 A 
HETATM   26  C   UNK N   1      25.078  25.898  -5.839  0.00  0.00     0.037 A 
HETATM   27  C   UNK N   1      25.587  24.741  -5.241  0.00  0.00     0.068 A 
HETATM   28  C   UNK N   1      26.337  24.850  -4.054  0.00  0.00     0.037 A 
HETATM   29  C   UNK N   1      26.575  26.105  -3.484  0.00  0.00     0.010 A 
BRANCH  27  30
HETATM   30  O   UNK N   1      25.342  23.544  -5.824  0.00  0.00    -0.356 OA
HETATM   31  C   UNK N   1      26.229  22.920  -6.671  0.00  0.00     0.210 C 
ENDBRANCH  27  30
ENDBRANCH  23  24
ENDBRANCH  21  23
ENDBRANCH  18  21
ENDBRANCH  17  18
ENDBRANCH   1  17
TORSDOF 14
ENDMDL
MODEL 2
REMARK VINA RESULT:      -6.1      1.814      3.772
REMARK  14 active torsions:
REMARK  status: ('A' for Active; 'I' for Inactive)
REMARK    1  A    between atoms: N_26  and  C_6 
REMARK    2  A    between atoms: C_8  and  C_7 
REMARK    3  A    between atoms: C_15  and  C_7 
REMARK    4  A    between atoms: C_16  and  C_8 
REMARK    5  A    between atoms: N_26  and  C_15 
REMARK    6  A    between atoms: O_31  and  C_16 
REMARK    7  A    between atoms: C_19  and  C_17 
REMARK    8  A    between atoms: C_20  and  C_17 
REMARK    9  A    between atoms: N_26  and  C_19 
REMARK   10  A    between atoms: C_25  and  C_21 
REMARK   11  A    between atoms: O_28  and  C_22 
REMARK   12  A    between atoms: O_29  and  C_23 
REMARK   13  A    between atoms: O_30  and  C_24 
REMARK   14  A    between atoms: O_31  and  C_25 
ROOT
HETATM    1  C   UNK N   1      29.068  25.721  -5.916  0.00  0.00     0.032 C 
ENDROOT
BRANCH   1   2
HETATM    2  C   UNK N   1      29.333  25.968  -4.446  0.00  0.00     0.028 C 
BRANCH   2   3
HETATM    3  C   UNK N   1      30.687  25.401  -4.054  0.00  0.00     0.179 C 
BRANCH   3   4
HETATM    4  O   UNK N   1      30.642  24.808  -2.809  0.00  0.00    -0.318 OA
BRANCH   4   5
HETATM    5  C   UNK N   1      30.605  23.461  -2.622  0.00  0.00     0.293 C 
HETATM    6  O   UNK N   1      30.313  23.036  -1.512  0.00  0.00    -0.259 OA
BRANCH   5   7
HETATM    7  C   UNK N   1      30.924  22.488  -3.705  0.00  0.00     0.042 A 
HETATM    8  C   UNK N   1      29.919  22.041  -4.567  0.00  0.00     0.020 A 
HETATM    9  C   UNK N   1      30.212  21.120  -5.572  0.00  0.00     0.040 A 
HETATM   10  C   UNK N   1      31.514  20.636  -5.759  0.00  0.00     0.101 A 
HETATM   11  C   UNK N   1      32.547  21.094  -4.882  0.00  0.00     0.102 A 
HETATM   12  C   UNK N   1      32.226  22.012  -3.882  0.00  0.00     0.057 A 
BRANCH  10  13
HETATM   13  O   UNK N   1      31.705  19.779  -6.796  0.00  0.00    -0.353 OA
HETATM   14  C   UNK N   1      32.131  20.118  -8.057  0.00  0.00     0.210 C 
ENDBRANCH  10  13
BRANCH  11  15
HETATM   15  O   UNK N   1      33.836  20.685  -4.945  0.00  0.00    -0.353 OA
HETATM   16  C   UNK N   1      34.300  19.575  -4.280  0.00  0.00     0.210 C 
ENDBRANCH  11  15
ENDBRANCH   5   7
ENDBRANCH   4   5
ENDBRANCH   3   4
ENDBRANCH   2   3
ENDBRANCH   1   2
BRANCH   1  17
HETATM   17  C   UNK N   1      27.911  24.752  -6.065  0.00  0.00     0.273 C 
BRANCH  17  18
HETATM   18  N   UNK N   1      26.722  25.248  -5.372  0.00  0.00     0.092 N 
BRANCH  18  19
HETATM   19  C   UNK N   1      26.207  24.156  -4.563  0.00  0.00     0.268 C 
HETATM   20  C   UNK N   1      26.926  24.131  -3.227  0.00  0.00     0.037 C 
ENDBRANCH  18  19
BRANCH  18  21
HETATM   21  C   UNK N   1      25.654  25.713  -6.275  0.00  0.00     0.223 C 
HETATM   22  C   UNK N   1      26.088  25.858  -7.740  0.00  0.00     0.043 C 
BRANCH  21  23
HETATM   23  C   UNK N   1      25.019  26.987  -5.730  0.00  0.00     0.074 C 
BRANCH  23  24
HETATM   24  C   UNK N   1      26.013  27.850  -5.023  0.00  0.00    -0.056 A 
HETATM   25  C   UNK N   1      26.036  27.857  -3.628  0.00  0.00     0.010 A 
HETATM   26  C   UNK N   1      26.964  28.644  -2.943  0.00  0.00     0.037 A 
HETATM   27  C   UNK N   1      27.880  29.431  -3.649  0.00  0.00     0.068 A 
HETATM   28  C   UNK N   1      27.853  29.428  -5.056  0.00  0.00     0.037 A 
HETATM   29  C   UNK N   1      26.922  28.639  -5.741  0.00  0.00     0.010 A 
BRANCH  27  30
HETATM   30  O   UNK N   1      28.769  30.178  -2.953  0.00  0.00    -0.356 OA
HETATM   31  C   UNK N   1      29.709  29.639  -2.104  0.00  0.00     0.210 C 
ENDBRANCH  27  30
ENDBRANCH  23  24
ENDBRANCH  21  23
ENDBRANCH  18  21
ENDBRANCH  17  18
ENDBRANCH   1  17
TORSDOF 14
ENDMDL
MODEL 3
REMARK VINA RESULT:      -5.9      2.307      4.096
REMARK  14 active torsions:
REMARK  status: ('A' for Active; 'I' for Inactive)
REMARK    1  A    between atoms: N_26  and  C_6 
REMARK    2  A    between atoms: C_8  and  C_7 
REMARK    3  A    between atoms: C_15  and  C_7 
REMARK    4  A    between atoms: C_16  and  C_8 
REMARK    5  A    between atoms: N_26  and  C_15 
REMARK    6  A    between atoms: O_31  and  C_16 
REMARK    7  A    between atoms: C_19  and  C_17 
REMARK    8  A    between atoms: C_20  and  C_17 
REMARK    9  A    between atoms: N_26  and  C_19 
REMARK   10  A    between atoms: C_25  and  C_21 
REMARK   11  A    between atoms: O_28  and  C_22 
REMARK   12  A    between atoms: O_29  and  C_23 
REMARK   13  A    between atoms: O_30  and  C_24 
REMARK   14  A    between atoms: O_31  and  C_25 
ROOT
HETATM    1  C   UNK N   1      27.344  24.004  -4.436  0.00  0.00     0.032 C 
ENDROOT
BRANCH   1   2
HETATM    2  C   UNK N   1      28.110  25.041  -3.644  0.00  0.00     0.028 C 
BRANCH   2   3
HETATM    3  C   UNK N   1      29.578  25.024  -4.038  0.00  0.00     0.179 C 
BRANCH   3   4
HETATM    4  O   UNK N   1      30.380  24.675  -2.970  0.00  0.00    -0.318 OA
BRANCH   4   5
HETATM    5  C   UNK N   1      30.668  23.388  -2.637  0.00  0.00     0.293 C 
HETATM    6  O   UNK N   1      30.451  23.021  -1.491  0.00  0.00    -0.259 OA
BRANCH   5   7
HETATM    7  C   UNK N   1      31.254  22.419  -3.606  0.00  0.00     0.042 A 
HETATM    8  C   UNK N   1      30.611  21.206  -3.863  0.00  0.00     0.020 A 
HETATM    9  C   UNK N   1      31.165  20.291  -4.758  0.00  0.00     0.040 A 
HETATM   10  C   UNK N   1      32.361  20.568  -5.435  0.00  0.00     0.101 A 
HETATM   11  C   UNK N   1      33.021  21.811  -5.178  0.00  0.00     0.102 A 
HETATM   12  C   UNK N   1      32.448  22.706  -4.275  0.00  0.00     0.057 A 
BRANCH  10  13
HETATM   13  O   UNK N   1      32.792  19.632  -6.322  0.00  0.00    -0.353 OA
HETATM   14  C   UNK N   1      32.609  19.664  -7.683  0.00  0.00     0.210 C 
ENDBRANCH  10  13
BRANCH  11  15
HETATM   15  O   UNK N   1      34.190  22.183  -5.750  0.00  0.00    -0.353 OA
HETATM   16  C   UNK N   1      34.262  23.086  -6.783  0.00  0.00     0.210 C 
ENDBRANCH  11  15
ENDBRANCH   5   7
ENDBRANCH   4   5
ENDBRANCH   3   4
ENDBRANCH   2   3
ENDBRANCH   1   2
BRANCH   1  17
HETATM   17  C   UNK N   1      28.015  23.798  -5.780  0.00  0.00     0.273 C 
BRANCH  17  18
HETATM   18  N   UNK N   1      27.037  23.860  -6.867  0.00  0.00     0.092 N 
BRANCH  18  19
HETATM   19  C   UNK N   1      26.825  22.501  -7.335  0.00  0.00     0.268 C 
HETATM   20  C   UNK N   1      25.351  22.155  -7.239  0.00  0.00     0.037 C 
ENDBRANCH  18  19
BRANCH  18  21
HETATM   21  C   UNK N   1      27.462  24.693  -8.006  0.00  0.00     0.223 C 
HETATM   22  C   UNK N   1      28.915  25.180  -7.922  0.00  0.00     0.043 C 
BRANCH  21  23
HETATM   23  C   UNK N   1      26.477  25.837  -8.220  0.00  0.00     0.074 C 
BRANCH  23  24
HETATM   24  C   UNK N   1      26.373  26.717  -7.018  0.00  0.00    -0.056 A 
HETATM   25  C   UNK N   1      25.273  26.581  -6.170  0.00  0.00     0.010 A 
HETATM   26  C   UNK N   1      25.159  27.382  -5.032  0.00  0.00     0.037 A 
HETATM   27  C   UNK N   1      26.145  28.328  -4.731  0.00  0.00     0.068 A 
HETATM   28  C   UNK N   1      27.251  28.469  -5.591  0.00  0.00     0.037 A 
HETATM   29  C   UNK N   1      27.364  27.666  -6.731  0.00  0.00     0.010 A 
BRANCH  27  30
HETATM   30  O   UNK N   1      26.004  29.085  -3.617  0.00  0.00    -0.356 OA
HETATM   31  C   UNK N   1      27.052  29.742  -3.014  0.00  0.00     0.210 C 
ENDBRANCH  27  30
ENDBRANCH  23  24
ENDBRANCH  21  23
ENDBRANCH  18  21
ENDBRANCH  17  18
ENDBRANCH   1  17
TORSDOF 14
ENDMDL
MODEL 4
REMARK VINA RESULT:      -5.9      1.378      2.563
REMARK  14 active torsions:
REMARK  status: ('A' for Active; 'I' for Inactive)
REMARK    1  A    between atoms: N_26  and  C_6 
REMARK    2  A    between atoms: C_8  and  C_7 
REMARK    3  A    between atoms: C_15  and  C_7 
REMARK    4  A    between atoms: C_16  and  C_8 
REMARK    5  A    between atoms: N_26  and  C_15 
REMARK    6  A    between atoms: O_31  and  C_16 
REMARK    7  A    between atoms: C_19  and  C_17 
REMARK    8  A    between atoms: C_20  and  C_17 
REMARK    9  A    between atoms: N_26  and  C_19 
REMARK   10  A    between atoms: C_25  and  C_21 
REMARK   11  A    between atoms: O_28  and  C_22 
REMARK   12  A    between atoms: O_29  and  C_23 
REMARK   13  A    between atoms: O_30  and  C_24 
REMARK   14  A    between atoms: O_31  and  C_25 
ROOT
HETATM    1  C   UNK N   1      29.235  25.899  -5.576  0.00  0.00     0.032 C 
ENDROOT
BRANCH   1   2
HETATM    2  C   UNK N   1      29.856  25.096  -4.453  0.00  0.00     0.028 C 
BRANCH   2   3
HETATM    3  C   UNK N   1      28.782  24.636  -3.481  0.00  0.00     0.179 C 
BRANCH   3   4
HETATM    4  O   UNK N   1      28.927  23.300  -3.169  0.00  0.00    -0.318 OA
BRANCH   4   5
HETATM    5  C   UNK N   1      30.050  22.779  -2.605  0.00  0.00     0.293 C 
HETATM    6  O   UNK N   1      30.325  23.097  -1.456  0.00  0.00    -0.259 OA
BRANCH   5   7
HETATM    7  C   UNK N   1      30.965  21.858  -3.336  0.00  0.00     0.042 A 
HETATM    8  C   UNK N   1      32.265  21.642  -2.872  0.00  0.00     0.020 A 
HETATM    9  C   UNK N   1      33.128  20.791  -3.562  0.00  0.00     0.040 A 
HETATM   10  C   UNK N   1      32.714  20.118  -4.720  0.00  0.00     0.101 A 
HETATM   11  C   UNK N   1      31.382  20.332  -5.196  0.00  0.00     0.102 A 
HETATM   12  C   UNK N   1      30.542  21.191  -4.490  0.00  0.00     0.057 A 
BRANCH  10  13
HETATM   13  O   UNK N   1      33.613  19.274  -5.291  0.00  0.00    -0.353 OA
HETATM   14  C   UNK N   1      34.251  19.466  -6.492  0.00  0.00     0.210 C 
ENDBRANCH  10  13
BRANCH  11  15
HETATM   15  O   UNK N   1      30.873  19.760  -6.313  0.00  0.00    -0.353 OA
HETATM   16  C   UNK N   1      30.514  20.482  -7.425  0.00  0.00     0.210 C 
ENDBRANCH  11  15
ENDBRANCH   5   7
ENDBRANCH   4   5
ENDBRANCH   3   4
ENDBRANCH   2   3
ENDBRANCH   1   2
BRANCH   1  17
HETATM   17  C   UNK N   1      28.635  27.174  -5.015  0.00  0.00     0.273 C 
BRANCH  17  18
HETATM   18  N   UNK N   1      27.468  27.588  -5.792  0.00  0.00     0.092 N 
BRANCH  18  19
HETATM   19  C   UNK N   1      27.836  28.794  -6.515  0.00  0.00     0.268 C 
HETATM   20  C   UNK N   1      28.255  29.869  -5.529  0.00  0.00     0.037 C 
ENDBRANCH  18  19
BRANCH  18  21
HETATM   21  C   UNK N   1      26.274  27.872  -4.975  0.00  0.00     0.223 C 
HETATM   22  C   UNK N   1      26.457  27.592  -3.477  0.00  0.00     0.043 C 
BRANCH  21  23
HETATM   23  C   UNK N   1      25.056  27.161  -5.554  0.00  0.00     0.074 C 
BRANCH  23  24
HETATM   24  C   UNK N   1      25.405  25.821  -6.115  0.00  0.00    -0.056 A 
HETATM   25  C   UNK N   1      25.602  25.691  -7.491  0.00  0.00     0.010 A 
HETATM   26  C   UNK N   1      25.942  24.452  -8.038  0.00  0.00     0.037 A 
HETATM   27  C   UNK N   1      26.089  23.331  -7.215  0.00  0.00     0.068 A 
HETATM   28  C   UNK N   1      25.885  23.463  -5.828  0.00  0.00     0.037 A 
HETATM   29  C   UNK N   1      25.544  24.704  -5.280  0.00  0.00     0.010 A 
BRANCH  27  30
HETATM   30  O   UNK N   1      26.424  22.147  -7.779  0.00  0.00    -0.356 OA
HETATM   31  C   UNK N   1      25.512  21.152  -8.045  0.00  0.00     0.210 C 
ENDBRANCH  27  30
ENDBRANCH  23  24
ENDBRANCH  21  23
ENDBRANCH  18  21
ENDBRANCH  17  18
ENDBRANCH   1  17
TORSDOF 14
ENDMDL
MODEL 5
REMARK VINA RESULT:      -5.9      2.422      5.037
REMARK  14 active torsions:
REMARK  status: ('A' for Active; 'I' for Inactive)
REMARK    1  A    between atoms: N_26  and  C_6 
REMARK    2  A    between atoms: C_8  and  C_7 
REMARK    3  A    between atoms: C_15  and  C_7 
REMARK    4  A    between atoms: C_16  and  C_8 
REMARK    5  A    between atoms: N_26  and  C_15 
REMARK    6  A    between atoms: O_31  and  C_16 
REMARK    7  A    between atoms: C_19  and  C_17 
REMARK    8  A    between atoms: C_20  and  C_17 
REMARK    9  A    between atoms: N_26  and  C_19 
REMARK   10  A    between atoms: C_25  and  C_21 
REMARK   11  A    between atoms: O_28  and  C_22 
REMARK   12  A    between atoms: O_29  and  C_23 
REMARK   13  A    between atoms: O_30  and  C_24 
REMARK   14  A    between atoms: O_31  and  C_25 
ROOT
HETATM    1  C   UNK N   1      28.181  25.613  -8.619  0.00  0.00     0.032 C 
ENDROOT
BRANCH   1   2
HETATM    2  C   UNK N   1      27.764  27.057  -8.439  0.00  0.00     0.028 C 
BRANCH   2   3
HETATM    3  C   UNK N   1      28.710  27.760  -7.479  0.00  0.00     0.179 C 
BRANCH   3   4
HETATM    4  O   UNK N   1      28.554  27.293  -6.189  0.00  0.00    -0.318 OA
BRANCH   4   5
HETATM    5  C   UNK N   1      29.584  27.161  -5.311  0.00  0.00     0.293 C 
HETATM    6  O   UNK N   1      29.986  28.160  -4.730  0.00  0.00    -0.259 OA
BRANCH   5   7
HETATM    7  C   UNK N   1      30.252  25.855  -5.045  0.00  0.00     0.042 A 
HETATM    8  C   UNK N   1      30.937  25.194  -6.067  0.00  0.00     0.020 A 
HETATM    9  C   UNK N   1      31.551  23.965  -5.823  0.00  0.00     0.040 A 
HETATM   10  C   UNK N   1      31.516  23.373  -4.553  0.00  0.00     0.101 A 
HETATM   11  C   UNK N   1      30.820  24.050  -3.502  0.00  0.00     0.102 A 
HETATM   12  C   UNK N   1      30.211  25.274  -3.774  0.00  0.00     0.057 A 
BRANCH  10  13
HETATM   13  O   UNK N   1      32.185  22.200  -4.407  0.00  0.00    -0.353 OA
HETATM   14  C   UNK N   1      33.538  22.016  -4.558  0.00  0.00     0.210 C 
ENDBRANCH  10  13
BRANCH  11  15
HETATM   15  O   UNK N   1      30.695  23.571  -2.242  0.00  0.00    -0.353 OA
HETATM   16  C   UNK N   1      29.563  22.936  -1.793  0.00  0.00     0.210 C 
ENDBRANCH  11  15
ENDBRANCH   5   7
ENDBRANCH   4   5
ENDBRANCH   3   4
ENDBRANCH   2   3
ENDBRANCH   1   2
BRANCH   1  17
HETATM   17  C   UNK N   1      26.973  24.785  -9.014  0.00  0.00     0.273 C 
BRANCH  17  18
HETATM   18  N   UNK N   1      26.954  23.514  -8.291  0.00  0.00     0.092 N 
BRANCH  18  19
HETATM   19  C   UNK N   1      25.614  22.964  -8.419  0.00  0.00     0.268 C 
HETATM   20  C   UNK N   1      25.695  21.554  -8.973  0.00  0.00     0.037 C 
ENDBRANCH  18  19
BRANCH  18  21
HETATM   21  C   UNK N   1      27.280  23.635  -6.858  0.00  0.00     0.223 C 
HETATM   22  C   UNK N   1      28.207  22.533  -6.329  0.00  0.00     0.043 C 
BRANCH  21  23
HETATM   23  C   UNK N   1      26.003  23.765  -6.035  0.00  0.00     0.074 C 
BRANCH  23  24
HETATM   24  C   UNK N   1      25.954  25.054  -5.281  0.00  0.00    -0.056 A 
HETATM   25  C   UNK N   1      25.280  26.141  -5.836  0.00  0.00     0.010 A 
HETATM   26  C   UNK N   1      25.207  27.352  -5.145  0.00  0.00     0.037 A 
HETATM   27  C   UNK N   1      25.808  27.487  -3.890  0.00  0.00     0.068 A 
HETATM   28  C   UNK N   1      26.493  26.391  -3.332  0.00  0.00     0.037 A 
HETATM   29  C   UNK N   1      26.566  25.178  -4.025  0.00  0.00     0.010 A 
BRANCH  27  30
HETATM   30  O   UNK N   1      25.714  28.674  -3.246  0.00  0.00    -0.356 OA
HETATM   31  C   UNK N   1      26.506  29.760  -3.543  0.00  0.00     0.210 C 
ENDBRANCH  27  30
ENDBRANCH  23  24
ENDBRANCH  21  23
ENDBRANCH  18  21
ENDBRANCH  17  18
ENDBRANCH   1  17
TORSDOF 14
ENDMDL
MODEL 6
REMARK VINA RESULT:      -5.9      1.093      1.863
REMARK  14 active torsions:
REMARK  status: ('A' for Active; 'I' for Inactive)
REMARK    1  A    between atoms: N_26  and  C_6 
REMARK    2  A    between atoms: C_8  and  C_7 
REMARK    3  A    between atoms: C_15  and  C_7 
REMARK    4  A    between atoms: C_16  and  C_8 
REMARK    5  A    between atoms: N_26  and  C_15 
REMARK    6  A    between atoms: O_31  and  C_16 
REMARK    7  A    between atoms: C_19  and  C_17 
REMARK    8  A    between atoms: C_20  and  C_17 
REMARK    9  A    between atoms: N_26  and  C_19 
REMARK   10  A    between atoms: C_25  and  C_21 
REMARK   11  A    between atoms: O_28  and  C_22 
REMARK   12  A    between atoms: O_29  and  C_23 
REMARK   13  A    between atoms: O_30  and  C_24 
REMARK   14  A    between atoms: O_31  and  C_25 
ROOT
HETATM    1  C   UNK N   1      29.686  27.750  -4.112  0.00  0.00     0.032 C 
ENDROOT
BRANCH   1   2
HETATM    2  C   UNK N   1      30.803  26.891  -3.560  0.00  0.00     0.028 C 
BRANCH   2   3
HETATM    3  C   UNK N   1      30.500  25.420  -3.792  0.00  0.00     0.179 C 
BRANCH   3   4
HETATM    4  O   UNK N   1      30.872  24.654  -2.706  0.00  0.00    -0.318 OA
BRANCH   4   5
HETATM    5  C   UNK N   1      30.523  23.347  -2.557  0.00  0.00     0.293 C 
HETATM    6  O   UNK N   1      30.159  22.965  -1.452  0.00  0.00    -0.259 OA
BRANCH   5   7
HETATM    7  C   UNK N   1      30.584  22.365  -3.675  0.00  0.00     0.042 A 
HETATM    8  C   UNK N   1      29.694  22.462  -4.747  0.00  0.00     0.020 A 
HETATM    9  C   UNK N   1      29.740  21.535  -5.788  0.00  0.00     0.040 A 
HETATM   10  C   UNK N   1      30.685  20.499  -5.799  0.00  0.00     0.101 A 
HETATM   11  C   UNK N   1      31.602  20.398  -4.705  0.00  0.00     0.102 A 
HETATM   12  C   UNK N   1      31.531  21.336  -3.675  0.00  0.00     0.057 A 
BRANCH  10  13
HETATM   13  O   UNK N   1      30.678  19.678  -6.881  0.00  0.00    -0.353 OA
HETATM   14  C   UNK N   1      31.379  19.871  -8.047  0.00  0.00     0.210 C 
ENDBRANCH  10  13
BRANCH  11  15
HETATM   15  O   UNK N   1      32.543  19.432  -4.589  0.00  0.00    -0.353 OA
HETATM   16  C   UNK N   1      33.806  19.553  -5.115  0.00  0.00     0.210 C 
ENDBRANCH  11  15
ENDBRANCH   5   7
ENDBRANCH   4   5
ENDBRANCH   3   4
ENDBRANCH   2   3
ENDBRANCH   1   2
BRANCH   1  17
HETATM   17  C   UNK N   1      28.416  26.926  -4.208  0.00  0.00     0.273 C 
BRANCH  17  18
HETATM   18  N   UNK N   1      27.524  27.461  -5.235  0.00  0.00     0.092 N 
BRANCH  18  19
HETATM   19  C   UNK N   1      28.152  28.656  -5.773  0.00  0.00     0.268 C 
HETATM   20  C   UNK N   1      28.121  28.607  -7.290  0.00  0.00     0.037 C 
ENDBRANCH  18  19
BRANCH  18  21
HETATM   21  C   UNK N   1      26.182  27.815  -4.738  0.00  0.00     0.223 C 
HETATM   22  C   UNK N   1      25.964  27.513  -3.249  0.00  0.00     0.043 C 
BRANCH  21  23
HETATM   23  C   UNK N   1      25.109  27.188  -5.620  0.00  0.00     0.074 C 
BRANCH  23  24
HETATM   24  C   UNK N   1      25.515  25.841  -6.124  0.00  0.00    -0.056 A 
HETATM   25  C   UNK N   1      25.542  24.764  -5.237  0.00  0.00     0.010 A 
HETATM   26  C   UNK N   1      25.905  23.493  -5.685  0.00  0.00     0.037 A 
HETATM   27  C   UNK N   1      26.245  23.286  -7.026  0.00  0.00     0.068 A 
HETATM   28  C   UNK N   1      26.223  24.375  -7.919  0.00  0.00     0.037 A 
HETATM   29  C   UNK N   1      25.859  25.648  -7.469  0.00  0.00     0.010 A 
BRANCH  27  30
HETATM   30  O   UNK N   1      26.587  22.039  -7.428  0.00  0.00    -0.356 OA
HETATM   31  C   UNK N   1      25.743  21.216  -8.137  0.00  0.00     0.210 C 
ENDBRANCH  27  30
ENDBRANCH  23  24
ENDBRANCH  21  23
ENDBRANCH  18  21
ENDBRANCH  17  18
ENDBRANCH   1  17
TORSDOF 14
ENDMDL
MODEL 7
REMARK VINA RESULT:      -5.9     15.479     19.632
REMARK  14 active torsions:
REMARK  status: ('A' for Active; 'I' for Inactive)
REMARK    1  A    between atoms: N_26  and  C_6 
REMARK    2  A    between atoms: C_8  and  C_7 
REMARK    3  A    between atoms: C_15  and  C_7 
REMARK    4  A    between atoms: C_16  and  C_8 
REMARK    5  A    between atoms: N_26  and  C_15 
REMARK    6  A    between atoms: O_31  and  C_16 
REMARK    7  A    between atoms: C_19  and  C_17 
REMARK    8  A    between atoms: C_20  and  C_17 
REMARK    9  A    between atoms: N_26  and  C_19 
REMARK   10  A    between atoms: C_25  and  C_21 
REMARK   11  A    between atoms: O_28  and  C_22 
REMARK   12  A    between atoms: O_29  and  C_23 
REMARK   13  A    between atoms: O_30  and  C_24 
REMARK   14  A    between atoms: O_31  and  C_25 
ROOT
HETATM    1  C   UNK N   1      35.185  14.791  11.918  0.00  0.00     0.032 C 
ENDROOT
BRANCH   1   2
HETATM    2  C   UNK N   1      35.993  15.715  11.033  0.00  0.00     0.028 C 
BRANCH   2   3
HETATM    3  C   UNK N   1      35.142  16.212   9.876  0.00  0.00     0.179 C 
BRANCH   3   4
HETATM    4  O   UNK N   1      35.229  17.582   9.742  0.00  0.00    -0.318 OA
BRANCH   4   5
HETATM    5  C   UNK N   1      34.759  18.261   8.661  0.00  0.00     0.293 C 
HETATM    6  O   UNK N   1      35.314  19.304   8.342  0.00  0.00    -0.259 OA
BRANCH   5   7
HETATM    7  C   UNK N   1      33.589  17.795   7.864  0.00  0.00     0.042 A 
HETATM    8  C   UNK N   1      32.301  17.857   8.403  0.00  0.00     0.020 A 
HETATM    9  C   UNK N   1      31.206  17.409   7.664  0.00  0.00     0.040 A 
HETATM   10  C   UNK N   1      31.361  16.906   6.365  0.00  0.00     0.101 A 
HETATM   11  C   UNK N   1      32.677  16.845   5.808  0.00  0.00     0.102 A 
HETATM   12  C   UNK N   1      33.755  17.296   6.569  0.00  0.00     0.057 A 
BRANCH  10  13
HETATM   13  O   UNK N   1      30.227  16.540   5.712  0.00  0.00    -0.353 OA
HETATM   14  C   UNK N   1      29.012  17.177   5.783  0.00  0.00     0.210 C 
ENDBRANCH  10  13
BRANCH  11  15
HETATM   15  O   UNK N   1      32.959  16.360   4.575  0.00  0.00    -0.353 OA
HETATM   16  C   UNK N   1      32.783  17.093   3.427  0.00  0.00     0.210 C 
ENDBRANCH  11  15
ENDBRANCH   5   7
ENDBRANCH   4   5
ENDBRANCH   3   4
ENDBRANCH   2   3
ENDBRANCH   1   2
BRANCH   1  17
HETATM   17  C   UNK N   1      36.001  14.421  13.141  0.00  0.00     0.273 C 
BRANCH  17  18
HETATM   18  N   UNK N   1      35.726  13.046  13.556  0.00  0.00     0.092 N 
BRANCH  18  19
HETATM   19  C   UNK N   1      36.632  12.735  14.649  0.00  0.00     0.268 C 
HETATM   20  C   UNK N   1      36.947  14.001  15.423  0.00  0.00     0.037 C 
ENDBRANCH  18  19
BRANCH  18  21
HETATM   21  C   UNK N   1      35.915  12.049  12.486  0.00  0.00     0.223 C 
HETATM   22  C   UNK N   1      35.356  10.659  12.817  0.00  0.00     0.043 C 
BRANCH  21  23
HETATM   23  C   UNK N   1      37.378  12.001  12.061  0.00  0.00     0.074 C 
BRANCH  23  24
HETATM   24  C   UNK N   1      37.565  12.450  10.649  0.00  0.00    -0.056 A 
HETATM   25  C   UNK N   1      38.718  13.157  10.307  0.00  0.00     0.010 A 
HETATM   26  C   UNK N   1      38.923  13.575   8.991  0.00  0.00     0.037 A 
HETATM   27  C   UNK N   1      37.976  13.290   8.002  0.00  0.00     0.068 A 
HETATM   28  C   UNK N   1      36.809  12.581   8.349  0.00  0.00     0.037 A 
HETATM   29  C   UNK N   1      36.605  12.162   9.668  0.00  0.00     0.010 A 
BRANCH  27  30
HETATM   30  O   UNK N   1      38.209  13.707   6.735  0.00  0.00    -0.356 OA
HETATM   31  C   UNK N   1      37.236  14.250   5.928  0.00  0.00     0.210 C 
ENDBRANCH  27  30
ENDBRANCH  23  24
ENDBRANCH  21  23
ENDBRANCH  18  21
ENDBRANCH  17  18
ENDBRANCH   1  17
TORSDOF 14
ENDMDL
MODEL 8
REMARK VINA RESULT:      -5.8     17.349     21.218
REMARK  14 active torsions:
REMARK  status: ('A' for Active; 'I' for Inactive)
REMARK    1  A    between atoms: N_26  and  C_6 
REMARK    2  A    between atoms: C_8  and  C_7 
REMARK    3  A    between atoms: C_15  and  C_7 
REMARK    4  A    between atoms: C_16  and  C_8 
REMARK    5  A    between atoms: N_26  and  C_15 
REMARK    6  A    between atoms: O_31  and  C_16 
REMARK    7  A    between atoms: C_19  and  C_17 
REMARK    8  A    between atoms: C_20  and  C_17 
REMARK    9  A    between atoms: N_26  and  C_19 
REMARK   10  A    between atoms: C_25  and  C_21 
REMARK   11  A    between atoms: O_28  and  C_22 
REMARK   12  A    between atoms: O_29  and  C_23 
REMARK   13  A    between atoms: O_30  and  C_24 
REMARK   14  A    between atoms: O_31  and  C_25 
ROOT
HETATM    1  C   UNK N   1      35.872  14.199   9.131  0.00  0.00     0.032 C 
ENDROOT
BRANCH   1   2
HETATM    2  C   UNK N   1      36.094  15.362  10.073  0.00  0.00     0.028 C 
BRANCH   2   3
HETATM    3  C   UNK N   1      34.881  16.277  10.072  0.00  0.00     0.179 C 
BRANCH   3   4
HETATM    4  O   UNK N   1      35.237  17.582   9.794  0.00  0.00    -0.318 OA
BRANCH   4   5
HETATM    5  C   UNK N   1      34.767  18.274   8.722  0.00  0.00     0.293 C 
HETATM    6  O   UNK N   1      35.349  19.299   8.391  0.00  0.00    -0.259 OA
BRANCH   5   7
HETATM    7  C   UNK N   1      33.567  17.846   7.950  0.00  0.00     0.042 A 
HETATM    8  C   UNK N   1      33.689  17.466   6.612  0.00  0.00     0.020 A 
HETATM    9  C   UNK N   1      32.564  17.079   5.883  0.00  0.00     0.040 A 
HETATM   10  C   UNK N   1      31.293  17.040   6.473  0.00  0.00     0.101 A 
HETATM   11  C   UNK N   1      31.164  17.423   7.845  0.00  0.00     0.102 A 
HETATM   12  C   UNK N   1      32.303  17.811   8.549  0.00  0.00     0.057 A 
BRANCH  10  13
HETATM   13  O   UNK N   1      30.271  16.602   5.692  0.00  0.00    -0.353 OA
HETATM   14  C   UNK N   1      29.963  15.291   5.423  0.00  0.00     0.210 C 
ENDBRANCH  10  13
BRANCH  11  15
HETATM   15  O   UNK N   1      29.990  17.450   8.519  0.00  0.00    -0.353 OA
HETATM   16  C   UNK N   1      29.591  18.522   9.281  0.00  0.00     0.210 C 
ENDBRANCH  11  15
ENDBRANCH   5   7
ENDBRANCH   4   5
ENDBRANCH   3   4
ENDBRANCH   2   3
ENDBRANCH   1   2
BRANCH   1  17
HETATM   17  C   UNK N   1      35.748  12.917   9.932  0.00  0.00     0.273 C 
BRANCH  17  18
HETATM   18  N   UNK N   1      36.723  12.885  11.021  0.00  0.00     0.092 N 
BRANCH  18  19
HETATM   19  C   UNK N   1      37.863  12.112  10.558  0.00  0.00     0.268 C 
HETATM   20  C   UNK N   1      39.042  13.038  10.319  0.00  0.00     0.037 C 
ENDBRANCH  18  19
BRANCH  18  21
HETATM   21  C   UNK N   1      36.213  12.278  12.264  0.00  0.00     0.223 C 
HETATM   22  C   UNK N   1      34.722  11.918  12.221  0.00  0.00     0.043 C 
BRANCH  21  23
HETATM   23  C   UNK N   1      36.565  13.153  13.462  0.00  0.00     0.074 C 
BRANCH  23  24
HETATM   24  C   UNK N   1      36.312  12.453  14.758  0.00  0.00    -0.056 A 
HETATM   25  C   UNK N   1      36.939  11.232  15.005  0.00  0.00     0.010 A 
HETATM   26  C   UNK N   1      36.730  10.565  16.214  0.00  0.00     0.037 A 
HETATM   27  C   UNK N   1      35.890  11.114  17.188  0.00  0.00     0.068 A 
HETATM   28  C   UNK N   1      35.252  12.344  16.935  0.00  0.00     0.037 A 
HETATM   29  C   UNK N   1      35.463  13.012  15.724  0.00  0.00     0.010 A 
BRANCH  27  30
HETATM   30  O   UNK N   1      35.713  10.443  18.350  0.00  0.00    -0.356 OA
HETATM   31  C   UNK N   1      34.572   9.732  18.646  0.00  0.00     0.210 C 
ENDBRANCH  27  30
ENDBRANCH  23  24
ENDBRANCH  21  23
ENDBRANCH  18  21
ENDBRANCH  17  18
ENDBRANCH   1  17
TORSDOF 14
ENDMDL
MODEL 9
REMARK VINA RESULT:      -5.7      2.227      4.218
REMARK  14 active torsions:
REMARK  status: ('A' for Active; 'I' for Inactive)
REMARK    1  A    between atoms: N_26  and  C_6 
REMARK    2  A    between atoms: C_8  and  C_7 
REMARK    3  A    between atoms: C_15  and  C_7 
REMARK    4  A    between atoms: C_16  and  C_8 
REMARK    5  A    between atoms: N_26  and  C_15 
REMARK    6  A    between atoms: O_31  and  C_16 
REMARK    7  A    between atoms: C_19  and  C_17 
REMARK    8  A    between atoms: C_20  and  C_17 
REMARK    9  A    between atoms: N_26  and  C_19 
REMARK   10  A    between atoms: C_25  and  C_21 
REMARK   11  A    between atoms: O_28  and  C_22 
REMARK   12  A    between atoms: O_29  and  C_23 
REMARK   13  A    between atoms: O_30  and  C_24 
REMARK   14  A    between atoms: O_31  and  C_25 
ROOT
HETATM    1  C   UNK N   1      26.496  24.687  -4.062  0.00  0.00     0.032 C 
ENDROOT
BRANCH   1   2
HETATM    2  C   UNK N   1      27.668  24.051  -3.346  0.00  0.00     0.028 C 
BRANCH   2   3
HETATM    3  C   UNK N   1      28.977  24.583  -3.906  0.00  0.00     0.179 C 
BRANCH   3   4
HETATM    4  O   UNK N   1      29.996  24.485  -2.980  0.00  0.00    -0.318 OA
BRANCH   4   5
HETATM    5  C   UNK N   1      30.548  23.304  -2.595  0.00  0.00     0.293 C 
HETATM    6  O   UNK N   1      30.483  22.989  -1.414  0.00  0.00    -0.259 OA
BRANCH   5   7
HETATM    7  C   UNK N   1      31.241  22.391  -3.546  0.00  0.00     0.042 A 
HETATM    8  C   UNK N   1      30.806  21.073  -3.702  0.00  0.00     0.020 A 
HETATM    9  C   UNK N   1      31.462  20.212  -4.582  0.00  0.00     0.040 A 
HETATM   10  C   UNK N   1      32.556  20.646  -5.343  0.00  0.00     0.101 A 
HETATM   11  C   UNK N   1      33.003  21.997  -5.191  0.00  0.00     0.102 A 
HETATM   12  C   UNK N   1      32.331  22.834  -4.301  0.00  0.00     0.057 A 
BRANCH  10  13
HETATM   13  O   UNK N   1      33.096  19.746  -6.206  0.00  0.00    -0.353 OA
HETATM   14  C   UNK N   1      34.229  19.000  -5.991  0.00  0.00     0.210 C 
ENDBRANCH  10  13
BRANCH  11  15
HETATM   15  O   UNK N   1      34.059  22.527  -5.851  0.00  0.00    -0.353 OA
HETATM   16  C   UNK N   1      35.326  22.568  -5.321  0.00  0.00     0.210 C 
ENDBRANCH  11  15
ENDBRANCH   5   7
ENDBRANCH   4   5
ENDBRANCH   3   4
ENDBRANCH   2   3
ENDBRANCH   1   2
BRANCH   1  17
HETATM   17  C   UNK N   1      26.578  24.374  -5.543  0.00  0.00     0.273 C 
BRANCH  17  18
HETATM   18  N   UNK N   1      25.980  25.447  -6.337  0.00  0.00     0.092 N 
BRANCH  18  19
HETATM   19  C   UNK N   1      26.898  25.743  -7.424  0.00  0.00     0.268 C 
HETATM   20  C   UNK N   1      26.181  25.579  -8.752  0.00  0.00     0.037 C 
ENDBRANCH  18  19
BRANCH  18  21
HETATM   21  C   UNK N   1      25.731  26.686  -5.578  0.00  0.00     0.223 C 
HETATM   22  C   UNK N   1      24.296  27.216  -5.694  0.00  0.00     0.043 C 
BRANCH  21  23
HETATM   23  C   UNK N   1      26.771  27.742  -5.933  0.00  0.00     0.074 C 
BRANCH  23  24
HETATM   24  C   UNK N   1      27.278  28.457  -4.724  0.00  0.00    -0.056 A 
HETATM   25  C   UNK N   1      28.528  28.118  -4.207  0.00  0.00     0.010 A 
HETATM   26  C   UNK N   1      29.030  28.781  -3.086  0.00  0.00     0.037 A 
HETATM   27  C   UNK N   1      28.285  29.792  -2.470  0.00  0.00     0.068 A 
HETATM   28  C   UNK N   1      27.020  30.131  -2.989  0.00  0.00     0.037 A 
HETATM   29  C   UNK N   1      26.519  29.466  -4.112  0.00  0.00     0.010 A 
BRANCH  27  30
HETATM   30  O   UNK N   1      28.804  30.418  -1.387  0.00  0.00    -0.356 OA
HETATM   31  C   UNK N   1      28.554  30.021  -0.093  0.00  0.00     0.210 C 
ENDBRANCH  27  30
ENDBRANCH  23  24
ENDBRANCH  21  23
ENDBRANCH  18  21
ENDBRANCH  17  18
ENDBRANCH   1  17
TORSDOF 14
ENDMDL
