MODEL 1
REMARK VINA RESULT:      -8.0      0.000      0.000
REMARK  6 active torsions:
REMARK  status: ('A' for Active; 'I' for Inactive)
REMARK    1  A    between atoms: C_5  and  C_8 
REMARK    2  A    between atoms: C_8  and  N_9 
REMARK    3  A    between atoms: N_9  and  C_10 
REMARK    4  A    between atoms: C_17  and  C_21 
REMARK    5  A    between atoms: C_25  and  O_27 
REMARK    6  A    between atoms: O_27  and  C_28 
ROOT
HETATM    1  C   UNK N   1      34.259  14.861  10.396  0.00  0.00     0.116 A 
HETATM    2  C   UNK N   1      35.291  15.329   9.558  0.00  0.00     0.053 A 
HETATM    3  C   UNK N   1      36.598  14.843   9.719  0.00  0.00     0.054 A 
HETATM    4  C   UNK N   1      36.805  13.913  10.728  0.00  0.00     0.127 A 
HETATM    5  N   UNK N   1      37.974  13.341  11.080  0.00  0.00    -0.349 N 
ATOM      6  HN  UNK N   1      38.888  13.479  10.648  1.00  0.00     0.167 HD
HETATM    7  C   UNK N   1      37.671  12.538  12.138  0.00  0.00     0.122 A 
HETATM    8  C   UNK N   1      36.305  12.645  12.387  0.00  0.00     0.084 A 
HETATM    9  N   UNK N   1      35.795  13.505  11.495  0.00  0.00    -0.236 N 
HETATM   10  N   UNK N   1      34.541  13.940  11.359  0.00  0.00    -0.277 N 
ATOM     11  HN  UNK N   1      33.803  13.587  11.967  1.00  0.00     0.189 HD
ENDROOT
BRANCH   8  12
HETATM   12  C   UNK N   1      35.527  11.970  13.441  0.00  0.00    -0.003 A 
HETATM   13  C   UNK N   1      34.531  11.032  13.136  0.00  0.00     0.014 A 
HETATM   14  C   UNK N   1      33.824  10.403  14.172  0.00  0.00     0.004 A 
HETATM   15  C   UNK N   1      34.097  10.728  15.508  0.00  0.00     0.037 A 
HETATM   16  C   UNK N   1      35.086  11.681  15.811  0.00  0.00     0.079 A 
HETATM   17  C   UNK N   1      35.791  12.278  14.776  0.00  0.00     0.051 A 
BRANCH  16  18
HETATM   18  O   UNK N   1      35.372  12.069  17.077  0.00  0.00    -0.255 OA
BRANCH  18  19
HETATM   19  C   UNK N   1      35.050  13.284  17.642  0.00  0.00     0.530 C 
HETATM   20  F   UNK N   1      34.838  13.134  19.000  0.00  0.00    -0.144 F 
HETATM   21  F   UNK N   1      36.106  14.153  17.444  0.00  0.00    -0.144 F 
HETATM   22  F   UNK N   1      33.920  13.809  17.041  0.00  0.00    -0.144 F 
ENDBRANCH  18  19
ENDBRANCH  16  18
ENDBRANCH   8  12
BRANCH   1  23
HETATM   23  N   UNK N   1      32.940  15.336  10.207  0.00  0.00    -0.375 N 
HETATM   24  H   UNK N   1      32.488  15.784  10.958  0.00  0.00     0.161 HD
BRANCH  23  25
HETATM   25  C   UNK N   1      32.231  15.187   8.961  0.00  0.00     0.126 C 
BRANCH  25  26
HETATM   26  C   UNK N   1      31.671  16.547   8.553  0.00  0.00     0.007 C 
HETATM   27  C   UNK N   1      30.709  16.439   7.357  0.00  0.00     0.036 C 
HETATM   28  C   UNK N   1      31.203  17.201   6.132  0.00  0.00     0.272 C 
HETATM   29  N   UNK N   1      32.614  16.911   5.903  0.00  0.00     0.084 N 
HETATM   30  C   UNK N   1      32.988  17.598   4.680  0.00  0.00     0.309 C 
HETATM   31  C   UNK N   1      33.469  17.449   6.975  0.00  0.00     0.272 C 
HETATM   32  C   UNK N   1      32.768  17.590   8.338  0.00  0.00     0.036 C 
ENDBRANCH  25  26
ENDBRANCH  23  25
ENDBRANCH   1  23
TORSDOF 6
ENDMDL
MODEL 2
REMARK VINA RESULT:      -7.8      8.016     10.763
REMARK  6 active torsions:
REMARK  status: ('A' for Active; 'I' for Inactive)
REMARK    1  A    between atoms: C_5  and  C_8 
REMARK    2  A    between atoms: C_8  and  N_9 
REMARK    3  A    between atoms: N_9  and  C_10 
REMARK    4  A    between atoms: C_17  and  C_21 
REMARK    5  A    between atoms: C_25  and  O_27 
REMARK    6  A    between atoms: O_27  and  C_28 
ROOT
HETATM    1  C   UNK N   1      28.169  18.431   7.499  0.00  0.00     0.116 A 
HETATM    2  C   UNK N   1      28.170  18.423   8.907  0.00  0.00     0.053 A 
HETATM    3  C   UNK N   1      29.271  17.900   9.604  0.00  0.00     0.054 A 
HETATM    4  C   UNK N   1      30.317  17.397   8.842  0.00  0.00     0.127 A 
HETATM    5  N   UNK N   1      31.449  16.822   9.296  0.00  0.00    -0.349 N 
ATOM      6  HN  UNK N   1      31.731  16.686  10.267  1.00  0.00     0.167 HD
HETATM    7  C   UNK N   1      32.135  16.462   8.176  0.00  0.00     0.122 A 
HETATM    8  C   UNK N   1      31.388  16.846   7.066  0.00  0.00     0.084 A 
HETATM    9  N   UNK N   1      30.265  17.425   7.512  0.00  0.00    -0.236 N 
HETATM   10  N   UNK N   1      29.239  17.926   6.823  0.00  0.00    -0.277 N 
ATOM     11  HN  UNK N   1      29.255  17.931   5.804  1.00  0.00     0.189 HD
ENDROOT
BRANCH   8  12
HETATM   12  C   UNK N   1      31.724  16.654   5.644  0.00  0.00    -0.003 A 
HETATM   13  C   UNK N   1      32.668  17.460   4.993  0.00  0.00     0.014 A 
HETATM   14  C   UNK N   1      32.968  17.232   3.642  0.00  0.00     0.004 A 
HETATM   15  C   UNK N   1      32.308  16.215   2.937  0.00  0.00     0.037 A 
HETATM   16  C   UNK N   1      31.350  15.417   3.588  0.00  0.00     0.079 A 
HETATM   17  C   UNK N   1      31.081  15.642   4.930  0.00  0.00     0.051 A 
BRANCH  16  18
HETATM   18  O   UNK N   1      30.648  14.446   2.956  0.00  0.00    -0.255 OA
BRANCH  18  19
HETATM   19  C   UNK N   1      29.333  14.529   2.556  0.00  0.00     0.530 C 
HETATM   20  F   UNK N   1      28.997  15.845   2.299  0.00  0.00    -0.144 F 
HETATM   21  F   UNK N   1      29.179  13.791   1.398  0.00  0.00    -0.144 F 
HETATM   22  F   UNK N   1      28.501  14.009   3.531  0.00  0.00    -0.144 F 
ENDBRANCH  18  19
ENDBRANCH  16  18
ENDBRANCH   8  12
BRANCH   1  23
HETATM   23  N   UNK N   1      27.068  18.986   6.806  0.00  0.00    -0.375 N 
HETATM   24  H   UNK N   1      26.164  18.649   7.007  0.00  0.00     0.161 HD
BRANCH  23  25
HETATM   25  C   UNK N   1      27.215  20.024   5.816  0.00  0.00     0.126 C 
BRANCH  25  26
HETATM   26  C   UNK N   1      27.011  19.412   4.433  0.00  0.00     0.007 C 
HETATM   27  C   UNK N   1      26.804  20.487   3.352  0.00  0.00     0.036 C 
HETATM   28  C   UNK N   1      25.436  20.397   2.685  0.00  0.00     0.272 C 
HETATM   29  N   UNK N   1      24.398  20.237   3.697  0.00  0.00     0.084 N 
HETATM   30  C   UNK N   1      23.127  20.245   2.997  0.00  0.00     0.309 C 
HETATM   31  C   UNK N   1      24.498  18.941   4.389  0.00  0.00     0.272 C 
HETATM   32  C   UNK N   1      25.917  18.344   4.422  0.00  0.00     0.036 C 
ENDBRANCH  25  26
ENDBRANCH  23  25
ENDBRANCH   1  23
TORSDOF 6
ENDMDL
MODEL 3
REMARK VINA RESULT:      -7.4     10.588     15.208
REMARK  6 active torsions:
REMARK  status: ('A' for Active; 'I' for Inactive)
REMARK    1  A    between atoms: C_5  and  C_8 
REMARK    2  A    between atoms: C_8  and  N_9 
REMARK    3  A    between atoms: N_9  and  C_10 
REMARK    4  A    between atoms: C_17  and  C_21 
REMARK    5  A    between atoms: C_25  and  O_27 
REMARK    6  A    between atoms: O_27  and  C_28 
ROOT
HETATM    1  C   UNK N   1      23.472  19.398   3.553  0.00  0.00     0.116 A 
HETATM    2  C   UNK N   1      23.102  20.532   2.804  0.00  0.00     0.053 A 
HETATM    3  C   UNK N   1      21.786  20.662   2.334  0.00  0.00     0.054 A 
HETATM    4  C   UNK N   1      20.905  19.632   2.635  0.00  0.00     0.127 A 
HETATM    5  N   UNK N   1      19.613  19.532   2.262  0.00  0.00    -0.349 N 
ATOM      6  HN  UNK N   1      19.068  20.205   1.721  1.00  0.00     0.167 HD
HETATM    7  C   UNK N   1      19.192  18.338   2.762  0.00  0.00     0.122 A 
HETATM    8  C   UNK N   1      20.257  17.752   3.441  0.00  0.00     0.084 A 
HETATM    9  N   UNK N   1      21.305  18.579   3.345  0.00  0.00    -0.236 N 
HETATM   10  N   UNK N   1      22.546  18.433   3.814  0.00  0.00    -0.277 N 
ATOM     11  HN  UNK N   1      22.798  17.610   4.361  1.00  0.00     0.189 HD
ENDROOT
BRANCH   8  12
HETATM   12  C   UNK N   1      20.275  16.451   4.135  0.00  0.00    -0.003 A 
HETATM   13  C   UNK N   1      20.542  15.255   3.453  0.00  0.00     0.014 A 
HETATM   14  C   UNK N   1      20.564  14.042   4.156  0.00  0.00     0.004 A 
HETATM   15  C   UNK N   1      20.297  14.021   5.532  0.00  0.00     0.037 A 
HETATM   16  C   UNK N   1      20.014  15.219   6.211  0.00  0.00     0.079 A 
HETATM   17  C   UNK N   1      20.018  16.414   5.505  0.00  0.00     0.051 A 
BRANCH  16  18
HETATM   18  O   UNK N   1      19.709  15.265   7.530  0.00  0.00    -0.255 OA
BRANCH  18  19
HETATM   19  C   UNK N   1      20.594  15.510   8.557  0.00  0.00     0.530 C 
HETATM   20  F   UNK N   1      21.892  15.310   8.122  0.00  0.00    -0.144 F 
HETATM   21  F   UNK N   1      20.450  16.825   8.955  0.00  0.00    -0.144 F 
HETATM   22  F   UNK N   1      20.323  14.684   9.633  0.00  0.00    -0.144 F 
ENDBRANCH  18  19
ENDBRANCH  16  18
ENDBRANCH   8  12
BRANCH   1  23
HETATM   23  N   UNK N   1      24.793  19.289   4.046  0.00  0.00    -0.375 N 
HETATM   24  H   UNK N   1      25.378  18.586   3.680  0.00  0.00     0.161 HD
BRANCH  23  25
HETATM   25  C   UNK N   1      25.318  20.166   5.063  0.00  0.00     0.126 C 
BRANCH  25  26
HETATM   26  C   UNK N   1      26.802  20.396   4.790  0.00  0.00     0.007 C 
HETATM   27  C   UNK N   1      27.457  19.184   4.107  0.00  0.00     0.036 C 
HETATM   28  C   UNK N   1      28.559  18.553   4.953  0.00  0.00     0.272 C 
HETATM   29  N   UNK N   1      28.100  18.397   6.328  0.00  0.00     0.084 N 
HETATM   30  C   UNK N   1      29.162  17.716   7.047  0.00  0.00     0.309 C 
HETATM   31  C   UNK N   1      27.896  19.695   6.993  0.00  0.00     0.272 C 
HETATM   32  C   UNK N   1      27.561  20.854   6.037  0.00  0.00     0.036 C 
ENDBRANCH  25  26
ENDBRANCH  23  25
ENDBRANCH   1  23
TORSDOF 6
ENDMDL
MODEL 4
REMARK VINA RESULT:      -7.3      9.783     14.134
REMARK  6 active torsions:
REMARK  status: ('A' for Active; 'I' for Inactive)
REMARK    1  A    between atoms: C_5  and  C_8 
REMARK    2  A    between atoms: C_8  and  N_9 
REMARK    3  A    between atoms: N_9  and  C_10 
REMARK    4  A    between atoms: C_17  and  C_21 
REMARK    5  A    between atoms: C_25  and  O_27 
REMARK    6  A    between atoms: O_27  and  C_28 
ROOT
HETATM    1  C   UNK N   1      25.628  19.299   5.002  0.00  0.00     0.116 A 
HETATM    2  C   UNK N   1      25.647  20.190   3.911  0.00  0.00     0.053 A 
HETATM    3  C   UNK N   1      24.479  20.403   3.161  0.00  0.00     0.054 A 
HETATM    4  C   UNK N   1      23.348  19.695   3.542  0.00  0.00     0.127 A 
HETATM    5  N   UNK N   1      22.136  19.719   2.951  0.00  0.00    -0.349 N 
ATOM      6  HN  UNK N   1      21.848  20.276   2.146  1.00  0.00     0.167 HD
HETATM    7  C   UNK N   1      21.379  18.837   3.661  0.00  0.00     0.122 A 
HETATM    8  C   UNK N   1      22.167  18.310   4.680  0.00  0.00     0.084 A 
HETATM    9  N   UNK N   1      23.383  18.862   4.581  0.00  0.00    -0.236 N 
HETATM   10  N   UNK N   1      24.474  18.648   5.319  0.00  0.00    -0.277 N 
ATOM     11  HN  UNK N   1      24.444  18.006   6.110  1.00  0.00     0.189 HD
ENDROOT
BRANCH   8  12
HETATM   12  C   UNK N   1      21.780  17.309   5.691  0.00  0.00    -0.003 A 
HETATM   13  C   UNK N   1      22.153  15.963   5.577  0.00  0.00     0.014 A 
HETATM   14  C   UNK N   1      21.775  15.047   6.570  0.00  0.00     0.004 A 
HETATM   15  C   UNK N   1      21.006  15.473   7.663  0.00  0.00     0.037 A 
HETATM   16  C   UNK N   1      20.620  16.821   7.767  0.00  0.00     0.079 A 
HETATM   17  C   UNK N   1      21.021  17.718   6.787  0.00  0.00     0.051 A 
BRANCH  16  18
HETATM   18  O   UNK N   1      19.845  17.289   8.775  0.00  0.00    -0.255 OA
BRANCH  18  19
HETATM   19  C   UNK N   1      18.536  16.938   9.019  0.00  0.00     0.530 C 
HETATM   20  F   UNK N   1      17.904  17.933   9.741  0.00  0.00    -0.144 F 
HETATM   21  F   UNK N   1      17.891  16.781   7.807  0.00  0.00    -0.144 F 
HETATM   22  F   UNK N   1      18.481  15.742   9.712  0.00  0.00    -0.144 F 
ENDBRANCH  18  19
ENDBRANCH  16  18
ENDBRANCH   8  12
BRANCH   1  23
HETATM   23  N   UNK N   1      26.802  19.112   5.769  0.00  0.00    -0.375 N 
HETATM   24  H   UNK N   1      26.898  19.609   6.614  0.00  0.00     0.161 HD
BRANCH  23  25
HETATM   25  C   UNK N   1      27.864  18.226   5.363  0.00  0.00     0.126 C 
BRANCH  25  26
HETATM   26  C   UNK N   1      28.038  17.151   6.432  0.00  0.00     0.007 C 
HETATM   27  C   UNK N   1      28.444  17.749   7.789  0.00  0.00     0.036 C 
HETATM   28  C   UNK N   1      29.813  17.268   8.260  0.00  0.00     0.272 C 
HETATM   29  N   UNK N   1      30.772  17.348   7.163  0.00  0.00     0.084 N 
HETATM   30  C   UNK N   1      32.061  16.959   7.706  0.00  0.00     0.309 C 
HETATM   31  C   UNK N   1      30.456  16.396   6.085  0.00  0.00     0.272 C 
HETATM   32  C   UNK N   1      28.967  16.023   5.980  0.00  0.00     0.036 C 
ENDBRANCH  25  26
ENDBRANCH  23  25
ENDBRANCH   1  23
TORSDOF 6
ENDMDL
MODEL 5
REMARK VINA RESULT:      -7.3     11.245     14.797
REMARK  6 active torsions:
REMARK  status: ('A' for Active; 'I' for Inactive)
REMARK    1  A    between atoms: C_5  and  C_8 
REMARK    2  A    between atoms: C_8  and  N_9 
REMARK    3  A    between atoms: N_9  and  C_10 
REMARK    4  A    between atoms: C_17  and  C_21 
REMARK    5  A    between atoms: C_25  and  O_27 
REMARK    6  A    between atoms: O_27  and  C_28 
ROOT
HETATM    1  C   UNK N   1      22.662  20.072   2.993  0.00  0.00     0.116 A 
HETATM    2  C   UNK N   1      21.674  20.562   2.116  0.00  0.00     0.053 A 
HETATM    3  C   UNK N   1      20.439  19.904   2.015  0.00  0.00     0.054 A 
HETATM    4  C   UNK N   1      20.261  18.772   2.798  0.00  0.00     0.127 A 
HETATM    5  N   UNK N   1      19.177  17.971   2.838  0.00  0.00    -0.349 N 
ATOM      6  HN  UNK N   1      18.305  18.081   2.319  1.00  0.00     0.167 HD
HETATM    7  C   UNK N   1      19.497  16.985   3.720  0.00  0.00     0.122 A 
HETATM    8  C   UNK N   1      20.781  17.232   4.200  0.00  0.00     0.084 A 
HETATM    9  N   UNK N   1      21.228  18.348   3.610  0.00  0.00    -0.236 N 
HETATM   10  N   UNK N   1      22.408  18.958   3.736  0.00  0.00    -0.277 N 
ATOM     11  HN  UNK N   1      23.110  18.596   4.380  1.00  0.00     0.189 HD
ENDROOT
BRANCH   8  12
HETATM   12  C   UNK N   1      21.551  16.426   5.165  0.00  0.00    -0.003 A 
HETATM   13  C   UNK N   1      22.742  15.782   4.804  0.00  0.00     0.014 A 
HETATM   14  C   UNK N   1      23.451  15.038   5.758  0.00  0.00     0.004 A 
HETATM   15  C   UNK N   1      22.956  14.918   7.065  0.00  0.00     0.037 A 
HETATM   16  C   UNK N   1      21.753  15.552   7.421  0.00  0.00     0.079 A 
HETATM   17  C   UNK N   1      21.076  16.303   6.471  0.00  0.00     0.051 A 
BRANCH  16  18
HETATM   18  O   UNK N   1      21.200  15.445   8.654  0.00  0.00    -0.255 OA
BRANCH  18  19
HETATM   19  C   UNK N   1      20.799  14.274   9.261  0.00  0.00     0.530 C 
HETATM   20  F   UNK N   1      21.716  13.904  10.227  0.00  0.00    -0.144 F 
HETATM   21  F   UNK N   1      19.573  14.489   9.861  0.00  0.00    -0.144 F 
HETATM   22  F   UNK N   1      20.667  13.267   8.321  0.00  0.00    -0.144 F 
ENDBRANCH  18  19
ENDBRANCH  16  18
ENDBRANCH   8  12
BRANCH   1  23
HETATM   23  N   UNK N   1      23.893  20.758   3.109  0.00  0.00    -0.375 N 
HETATM   24  H   UNK N   1      23.880  21.720   3.315  0.00  0.00     0.161 HD
BRANCH  23  25
HETATM   25  C   UNK N   1      25.167  20.104   2.937  0.00  0.00     0.126 C 
BRANCH  25  26
HETATM   26  C   UNK N   1      25.779  19.857   4.313  0.00  0.00     0.007 C 
HETATM   27  C   UNK N   1      27.263  20.261   4.364  0.00  0.00     0.036 C 
HETATM   28  C   UNK N   1      28.185  19.082   4.657  0.00  0.00     0.272 C 
HETATM   29  N   UNK N   1      27.814  17.943   3.825  0.00  0.00     0.084 N 
HETATM   30  C   UNK N   1      28.783  16.896   4.095  0.00  0.00     0.309 C 
HETATM   31  C   UNK N   1      26.491  17.405   4.183  0.00  0.00     0.272 C 
HETATM   32  C   UNK N   1      25.535  18.433   4.814  0.00  0.00     0.036 C 
ENDBRANCH  25  26
ENDBRANCH  23  25
ENDBRANCH   1  23
TORSDOF 6
ENDMDL
MODEL 6
REMARK VINA RESULT:      -7.2      6.055     10.173
REMARK  6 active torsions:
REMARK  status: ('A' for Active; 'I' for Inactive)
REMARK    1  A    between atoms: C_5  and  C_8 
REMARK    2  A    between atoms: C_8  and  N_9 
REMARK    3  A    between atoms: N_9  and  C_10 
REMARK    4  A    between atoms: C_17  and  C_21 
REMARK    5  A    between atoms: C_25  and  O_27 
REMARK    6  A    between atoms: O_27  and  C_28 
ROOT
HETATM    1  C   UNK N   1      31.427  16.050   3.940  0.00  0.00     0.116 A 
HETATM    2  C   UNK N   1      31.172  15.007   3.027  0.00  0.00     0.053 A 
HETATM    3  C   UNK N   1      29.869  14.802   2.546  0.00  0.00     0.054 A 
HETATM    4  C   UNK N   1      28.880  15.653   3.018  0.00  0.00     0.127 A 
HETATM    5  N   UNK N   1      27.566  15.619   2.719  0.00  0.00    -0.349 N 
ATOM      6  HN  UNK N   1      27.091  14.981   2.081  1.00  0.00     0.167 HD
HETATM    7  C   UNK N   1      27.010  16.622   3.454  0.00  0.00     0.122 A 
HETATM    8  C   UNK N   1      28.024  17.245   4.176  0.00  0.00     0.084 A 
HETATM    9  N   UNK N   1      29.173  16.622   3.884  0.00  0.00    -0.236 N 
HETATM   10  N   UNK N   1      30.402  16.850   4.350  0.00  0.00    -0.277 N 
ATOM     11  HN  UNK N   1      30.574  17.612   5.005  1.00  0.00     0.189 HD
ENDROOT
BRANCH   8  12
HETATM   12  C   UNK N   1      27.897  18.374   5.116  0.00  0.00    -0.003 A 
HETATM   13  C   UNK N   1      27.560  19.662   4.680  0.00  0.00     0.014 A 
HETATM   14  C   UNK N   1      27.436  20.704   5.611  0.00  0.00     0.004 A 
HETATM   15  C   UNK N   1      27.671  20.462   6.972  0.00  0.00     0.037 A 
HETATM   16  C   UNK N   1      28.025  19.172   7.405  0.00  0.00     0.079 A 
HETATM   17  C   UNK N   1      28.122  18.148   6.474  0.00  0.00     0.051 A 
BRANCH  16  18
HETATM   18  O   UNK N   1      28.304  18.880   8.698  0.00  0.00    -0.255 OA
BRANCH  18  19
HETATM   19  C   UNK N   1      29.538  18.526   9.199  0.00  0.00     0.530 C 
HETATM   20  F   UNK N   1      30.540  19.089   8.431  0.00  0.00    -0.144 F 
HETATM   21  F   UNK N   1      29.639  19.003  10.492  0.00  0.00    -0.144 F 
HETATM   22  F   UNK N   1      29.671  17.149   9.219  0.00  0.00    -0.144 F 
ENDBRANCH  18  19
ENDBRANCH  16  18
ENDBRANCH   8  12
BRANCH   1  23
HETATM   23  N   UNK N   1      32.747  16.267   4.398  0.00  0.00    -0.375 N 
HETATM   24  H   UNK N   1      33.433  15.590   4.199  0.00  0.00     0.161 HD
BRANCH  23  25
HETATM   25  C   UNK N   1      33.128  17.441   5.144  0.00  0.00     0.126 C 
BRANCH  25  26
HETATM   26  C   UNK N   1      34.211  17.052   6.146  0.00  0.00     0.007 C 
HETATM   27  C   UNK N   1      34.365  15.526   6.265  0.00  0.00     0.036 C 
HETATM   28  C   UNK N   1      34.047  15.009   7.664  0.00  0.00     0.272 C 
HETATM   29  N   UNK N   1      32.810  15.611   8.147  0.00  0.00     0.084 N 
HETATM   30  C   UNK N   1      32.529  15.009   9.438  0.00  0.00     0.309 C 
HETATM   31  C   UNK N   1      32.952  17.059   8.371  0.00  0.00     0.272 C 
HETATM   32  C   UNK N   1      34.026  17.736   7.501  0.00  0.00     0.036 C 
ENDBRANCH  25  26
ENDBRANCH  23  25
ENDBRANCH   1  23
TORSDOF 6
ENDMDL
MODEL 7
REMARK VINA RESULT:      -7.2     18.890     21.722
REMARK  6 active torsions:
REMARK  status: ('A' for Active; 'I' for Inactive)
REMARK    1  A    between atoms: C_5  and  C_8 
REMARK    2  A    between atoms: C_8  and  N_9 
REMARK    3  A    between atoms: N_9  and  C_10 
REMARK    4  A    between atoms: C_17  and  C_21 
REMARK    5  A    between atoms: C_25  and  O_27 
REMARK    6  A    between atoms: O_27  and  C_28 
ROOT
HETATM    1  C   UNK N   1      26.209  27.857  -3.795  0.00  0.00     0.116 A 
HETATM    2  C   UNK N   1      25.163  28.006  -4.726  0.00  0.00     0.053 A 
HETATM    3  C   UNK N   1      24.813  26.934  -5.562  0.00  0.00     0.054 A 
HETATM    4  C   UNK N   1      25.544  25.763  -5.426  0.00  0.00     0.127 A 
HETATM    5  N   UNK N   1      25.404  24.628  -6.141  0.00  0.00    -0.349 N 
ATOM      6  HN  UNK N   1      24.723  24.438  -6.877  1.00  0.00     0.167 HD
HETATM    7  C   UNK N   1      26.366  23.790  -5.666  0.00  0.00     0.122 A 
HETATM    8  C   UNK N   1      27.060  24.453  -4.658  0.00  0.00     0.084 A 
HETATM    9  N   UNK N   1      26.527  25.674  -4.531  0.00  0.00    -0.236 N 
HETATM   10  N   UNK N   1      26.875  26.671  -3.716  0.00  0.00    -0.277 N 
ATOM     11  HN  UNK N   1      27.630  26.547  -3.042  1.00  0.00     0.189 HD
ENDROOT
BRANCH   8  12
HETATM   12  C   UNK N   1      28.194  23.946  -3.863  0.00  0.00    -0.003 A 
HETATM   13  C   UNK N   1      28.024  23.465  -2.558  0.00  0.00     0.014 A 
HETATM   14  C   UNK N   1      29.129  22.980  -1.843  0.00  0.00     0.004 A 
HETATM   15  C   UNK N   1      30.405  22.997  -2.425  0.00  0.00     0.037 A 
HETATM   16  C   UNK N   1      30.576  23.495  -3.729  0.00  0.00     0.079 A 
HETATM   17  C   UNK N   1      29.469  23.951  -4.430  0.00  0.00     0.051 A 
BRANCH  16  18
HETATM   18  O   UNK N   1      31.786  23.576  -4.333  0.00  0.00    -0.255 OA
BRANCH  18  19
HETATM   19  C   UNK N   1      32.359  24.720  -4.844  0.00  0.00     0.530 C 
HETATM   20  F   UNK N   1      31.929  24.927  -6.142  0.00  0.00    -0.144 F 
HETATM   21  F   UNK N   1      31.970  25.792  -4.064  0.00  0.00    -0.144 F 
HETATM   22  F   UNK N   1      33.738  24.621  -4.812  0.00  0.00    -0.144 F 
ENDBRANCH  18  19
ENDBRANCH  16  18
ENDBRANCH   8  12
BRANCH   1  23
HETATM   23  N   UNK N   1      26.537  28.933  -2.937  0.00  0.00    -0.375 N 
HETATM   24  H   UNK N   1      25.846  29.606  -2.739  0.00  0.00     0.161 HD
BRANCH  23  25
HETATM   25  C   UNK N   1      27.842  29.084  -2.343  0.00  0.00     0.126 C 
BRANCH  25  26
HETATM   26  C   UNK N   1      28.588  30.193  -3.079  0.00  0.00     0.007 C 
HETATM   27  C   UNK N   1      27.690  30.913  -4.100  0.00  0.00     0.036 C 
HETATM   28  C   UNK N   1      28.188  30.761  -5.534  0.00  0.00     0.272 C 
HETATM   29  N   UNK N   1      28.539  29.369  -5.793  0.00  0.00     0.084 N 
HETATM   30  C   UNK N   1      28.918  29.288  -7.192  0.00  0.00     0.309 C 
HETATM   31  C   UNK N   1      29.706  28.939  -5.006  0.00  0.00     0.272 C 
HETATM   32  C   UNK N   1      29.904  29.708  -3.688  0.00  0.00     0.036 C 
ENDBRANCH  25  26
ENDBRANCH  23  25
ENDBRANCH   1  23
TORSDOF 6
ENDMDL
MODEL 8
REMARK VINA RESULT:      -7.1     11.604     14.878
REMARK  6 active torsions:
REMARK  status: ('A' for Active; 'I' for Inactive)
REMARK    1  A    between atoms: C_5  and  C_8 
REMARK    2  A    between atoms: C_8  and  N_9 
REMARK    3  A    between atoms: N_9  and  C_10 
REMARK    4  A    between atoms: C_17  and  C_21 
REMARK    5  A    between atoms: C_25  and  O_27 
REMARK    6  A    between atoms: O_27  and  C_28 
ROOT
HETATM    1  C   UNK N   1      21.522  15.761   6.838  0.00  0.00     0.116 A 
HETATM    2  C   UNK N   1      20.148  15.793   6.525  0.00  0.00     0.053 A 
HETATM    3  C   UNK N   1      19.702  16.514   5.407  0.00  0.00     0.054 A 
HETATM    4  C   UNK N   1      20.664  17.181   4.661  0.00  0.00     0.127 A 
HETATM    5  N   UNK N   1      20.460  17.954   3.575  0.00  0.00    -0.349 N 
ATOM      6  HN  UNK N   1      19.573  18.154   3.113  1.00  0.00     0.167 HD
HETATM    7  C   UNK N   1      21.696  18.411   3.229  0.00  0.00     0.122 A 
HETATM    8  C   UNK N   1      22.621  17.881   4.125  0.00  0.00     0.084 A 
HETATM    9  N   UNK N   1      21.950  17.122   5.001  0.00  0.00    -0.236 N 
HETATM   10  N   UNK N   1      22.406  16.436   6.051  0.00  0.00    -0.277 N 
ATOM     11  HN  UNK N   1      23.403  16.416   6.261  1.00  0.00     0.189 HD
ENDROOT
BRANCH   8  12
HETATM   12  C   UNK N   1      24.077  18.106   4.153  0.00  0.00    -0.003 A 
HETATM   13  C   UNK N   1      24.985  17.114   3.758  0.00  0.00     0.014 A 
HETATM   14  C   UNK N   1      26.362  17.376   3.787  0.00  0.00     0.004 A 
HETATM   15  C   UNK N   1      26.832  18.620   4.232  0.00  0.00     0.037 A 
HETATM   16  C   UNK N   1      25.921  19.609   4.642  0.00  0.00     0.079 A 
HETATM   17  C   UNK N   1      24.561  19.341   4.587  0.00  0.00     0.051 A 
BRANCH  16  18
HETATM   18  O   UNK N   1      26.309  20.816   5.120  0.00  0.00    -0.255 OA
BRANCH  18  19
HETATM   19  C   UNK N   1      26.799  21.067   6.383  0.00  0.00     0.530 C 
HETATM   20  F   UNK N   1      25.904  21.846   7.093  0.00  0.00    -0.144 F 
HETATM   21  F   UNK N   1      26.964  19.860   7.036  0.00  0.00    -0.144 F 
HETATM   22  F   UNK N   1      28.024  21.704   6.305  0.00  0.00    -0.144 F 
ENDBRANCH  18  19
ENDBRANCH  16  18
ENDBRANCH   8  12
BRANCH   1  23
HETATM   23  N   UNK N   1      21.966  15.009   7.950  0.00  0.00    -0.375 N 
HETATM   24  H   UNK N   1      21.624  15.241   8.844  0.00  0.00     0.161 HD
BRANCH  23  25
HETATM   25  C   UNK N   1      22.899  13.917   7.827  0.00  0.00     0.126 C 
BRANCH  25  26
HETATM   26  C   UNK N   1      22.224  12.640   8.322  0.00  0.00     0.007 C 
HETATM   27  C   UNK N   1      21.175  12.927   9.410  0.00  0.00     0.036 C 
HETATM   28  C   UNK N   1      21.518  12.278  10.746  0.00  0.00     0.272 C 
HETATM   29  N   UNK N   1      22.921  12.516  11.069  0.00  0.00     0.084 N 
HETATM   30  C   UNK N   1      23.149  11.948  12.385  0.00  0.00     0.309 C 
HETATM   31  C   UNK N   1      23.827  11.822  10.139  0.00  0.00     0.272 C 
HETATM   32  C   UNK N   1      23.234  11.571   8.741  0.00  0.00     0.036 C 
ENDBRANCH  25  26
ENDBRANCH  23  25
ENDBRANCH   1  23
TORSDOF 6
ENDMDL
MODEL 9
REMARK VINA RESULT:      -7.1      9.826     12.825
REMARK  6 active torsions:
REMARK  status: ('A' for Active; 'I' for Inactive)
REMARK    1  A    between atoms: C_5  and  C_8 
REMARK    2  A    between atoms: C_8  and  N_9 
REMARK    3  A    between atoms: N_9  and  C_10 
REMARK    4  A    between atoms: C_17  and  C_21 
REMARK    5  A    between atoms: C_25  and  O_27 
REMARK    6  A    between atoms: O_27  and  C_28 
ROOT
HETATM    1  C   UNK N   1      23.760  18.030   4.937  0.00  0.00     0.116 A 
HETATM    2  C   UNK N   1      22.653  18.708   4.391  0.00  0.00     0.053 A 
HETATM    3  C   UNK N   1      21.356  18.213   4.601  0.00  0.00     0.054 A 
HETATM    4  C   UNK N   1      21.239  17.047   5.344  0.00  0.00     0.127 A 
HETATM    5  N   UNK N   1      20.104  16.381   5.640  0.00  0.00    -0.349 N 
ATOM      6  HN  UNK N   1      19.149  16.638   5.387  1.00  0.00     0.167 HD
HETATM    7  C   UNK N   1      20.508  15.291   6.349  0.00  0.00     0.122 A 
HETATM    8  C   UNK N   1      21.894  15.341   6.469  0.00  0.00     0.084 A 
HETATM    9  N   UNK N   1      22.319  16.442   5.836  0.00  0.00    -0.236 N 
HETATM   10  N   UNK N   1      23.562  16.895   5.664  0.00  0.00    -0.277 N 
ATOM     11  HN  UNK N   1      24.353  16.397   6.071  1.00  0.00     0.189 HD
ENDROOT
BRANCH   8  12
HETATM   12  C   UNK N   1      22.774  14.369   7.144  0.00  0.00    -0.003 A 
HETATM   13  C   UNK N   1      23.771  13.670   6.449  0.00  0.00     0.014 A 
HETATM   14  C   UNK N   1      24.595  12.765   7.133  0.00  0.00     0.004 A 
HETATM   15  C   UNK N   1      24.409  12.543   8.505  0.00  0.00     0.037 A 
HETATM   16  C   UNK N   1      23.398  13.233   9.197  0.00  0.00     0.079 A 
HETATM   17  C   UNK N   1      22.606  14.141   8.509  0.00  0.00     0.051 A 
BRANCH  16  18
HETATM   18  O   UNK N   1      23.139  13.036  10.512  0.00  0.00    -0.255 OA
BRANCH  18  19
HETATM   19  C   UNK N   1      22.351  12.036  11.040  0.00  0.00     0.530 C 
HETATM   20  F   UNK N   1      21.028  12.246  10.699  0.00  0.00    -0.144 F 
HETATM   21  F   UNK N   1      22.766  10.828  10.515  0.00  0.00    -0.144 F 
HETATM   22  F   UNK N   1      22.485  11.996  12.416  0.00  0.00    -0.144 F 
ENDBRANCH  18  19
ENDBRANCH  16  18
ENDBRANCH   8  12
BRANCH   1  23
HETATM   23  N   UNK N   1      25.061  18.551   4.745  0.00  0.00    -0.375 N 
HETATM   24  H   UNK N   1      25.832  17.948   4.846  0.00  0.00     0.161 HD
BRANCH  23  25
HETATM   25  C   UNK N   1      25.302  19.933   4.407  0.00  0.00     0.126 C 
BRANCH  25  26
HETATM   26  C   UNK N   1      26.809  20.158   4.324  0.00  0.00     0.007 C 
HETATM   27  C   UNK N   1      27.579  18.841   4.123  0.00  0.00     0.036 C 
HETATM   28  C   UNK N   1      28.524  18.529   5.278  0.00  0.00     0.272 C 
HETATM   29  N   UNK N   1      27.840  18.734   6.550  0.00  0.00     0.084 N 
HETATM   30  C   UNK N   1      28.769  18.336   7.593  0.00  0.00     0.309 C 
HETATM   31  C   UNK N   1      27.518  20.152   6.780  0.00  0.00     0.272 C 
HETATM   32  C   UNK N   1      27.342  20.982   5.496  0.00  0.00     0.036 C 
ENDBRANCH  25  26
ENDBRANCH  23  25
ENDBRANCH   1  23
TORSDOF 6
ENDMDL
