MODEL 1
REMARK VINA RESULT:      -7.0      0.000      0.000
REMARK  11 active torsions:
REMARK  status: ('A' for Active; 'I' for Inactive)
REMARK    1  A    between atoms: C_2  and  C_3 
REMARK    2  A    between atoms: C_5  and  C_17 
REMARK    3  A    between atoms: C_8  and  C_9 
REMARK    4  A    between atoms: C_9  and  N_10 
REMARK    5  A    between atoms: C_12  and  C_14 
REMARK    6  A    between atoms: C_14  and  O_16 
REMARK    7  A    between atoms: N_18  and  O_20 
REMARK    8  A    between atoms: O_20  and  C_21 
REMARK    9  A    between atoms: C_21  and  C_22 
REMARK   10  A    between atoms: C_25  and  C_32 
REMARK   11  A    between atoms: C_26  and  C_28 
ROOT
HETATM    1  C   UNK N   1      25.604  22.731  -7.609  0.00  0.00     0.038 C 
HETATM    2  N   UNK N   1      25.223  23.519  -8.555  0.00  0.00    -0.270 N 
ATOM      3  HN  UNK N   1      24.311  23.359  -8.984  1.00  0.00     0.194 HD
HETATM    4  C   UNK N   1      24.688  21.614  -7.226  0.00  0.00     0.071 C 
ENDROOT
BRANCH   2   5
HETATM    5  O   UNK N   1      25.960  24.527  -8.997  0.00  0.00    -0.276 OA
BRANCH   5   6
HETATM    6  C   UNK N   1      25.609  25.834  -8.731  0.00  0.00     0.239 C 
BRANCH   6   7
HETATM    7  C   UNK N   1      26.510  26.402  -7.700  0.00  0.00    -0.031 A 
HETATM    8  C   UNK N   1      27.883  26.203  -7.789  0.00  0.00     0.010 A 
HETATM    9  C   UNK N   1      28.718  26.663  -6.784  0.00  0.00     0.009 A 
HETATM   10  C   UNK N   1      28.206  27.338  -5.661  0.00  0.00    -0.039 A 
HETATM   11  C   UNK N   1      26.793  27.563  -5.587  0.00  0.00     0.055 A 
HETATM   12  C   UNK N   1      25.974  27.081  -6.616  0.00  0.00     0.026 A 
BRANCH  10  13
HETATM   13  C   UNK N   1      29.192  27.828  -4.608  0.00  0.00     0.019 C 
HETATM   14  C   UNK N   1      29.817  29.191  -4.981  0.00  0.00     0.009 C 
HETATM   15  C   UNK N   1      30.759  29.695  -3.893  0.00  0.00     0.001 C 
HETATM   16  C   UNK N   1      31.845  28.664  -3.601  0.00  0.00     0.000 C 
HETATM   17  C   UNK N   1      31.211  27.328  -3.229  0.00  0.00     0.001 C 
HETATM   18  C   UNK N   1      30.336  26.843  -4.380  0.00  0.00     0.009 C 
ENDBRANCH  10  13
BRANCH  11  19
HETATM   19  C   UNK N   1      26.114  28.308  -4.459  0.00  0.00     0.418 C 
HETATM   20  F   UNK N   1      26.345  29.663  -4.591  0.00  0.00    -0.166 F 
HETATM   21  F   UNK N   1      24.742  28.097  -4.489  0.00  0.00    -0.166 F 
HETATM   22  F   UNK N   1      26.564  27.871  -3.232  0.00  0.00    -0.166 F 
ENDBRANCH  11  19
ENDBRANCH   6   7
ENDBRANCH   5   6
ENDBRANCH   2   5
BRANCH   1  23
HETATM   23  C   UNK N   1      26.915  22.871  -6.916  0.00  0.00    -0.012 A 
HETATM   24  C   UNK N   1      26.995  23.482  -5.657  0.00  0.00     0.021 A 
HETATM   25  C   UNK N   1      28.200  23.524  -4.940  0.00  0.00    -0.050 A 
HETATM   26  C   UNK N   1      29.361  22.932  -5.519  0.00  0.00    -0.024 A 
HETATM   27  C   UNK N   1      29.274  22.400  -6.805  0.00  0.00     0.010 A 
HETATM   28  C   UNK N   1      28.077  22.357  -7.484  0.00  0.00     0.014 A 
BRANCH  25  29
HETATM   29  C   UNK N   1      28.142  24.200  -3.592  0.00  0.00     0.035 C 
HETATM   30  C   UNK N   1      26.795  24.732  -3.145  0.00  0.00     0.010 C 
ENDBRANCH  25  29
BRANCH  26  31
HETATM   31  C   UNK N   1      30.704  22.840  -4.836  0.00  0.00     0.311 C 
BRANCH  31  32
HETATM   32  N   UNK N   1      31.455  21.624  -5.217  0.00  0.00     0.094 N 
HETATM   33  C   UNK N   1      32.893  21.849  -5.057  0.00  0.00     0.289 C 
HETATM   34  C   UNK N   1      32.962  21.140  -3.739  0.00  0.00     0.140 C 
HETATM   35  C   UNK N   1      31.515  20.780  -4.025  0.00  0.00     0.289 C 
BRANCH  34  36
HETATM   36  C   UNK N   1      33.960  20.027  -3.814  0.00  0.00     0.147 C 
HETATM   37  O   UNK N   1      35.152  20.260  -3.928  0.00  0.00    -0.650 OA
BRANCH  36  38
HETATM   38  O   UNK N   1      33.527  18.751  -3.803  0.00  0.00    -0.776 OA
HETATM   39  H   UNK N   1      33.426  18.278  -3.000  0.00  0.00     0.167 HD
ENDBRANCH  36  38
ENDBRANCH  34  36
ENDBRANCH  31  32
ENDBRANCH  26  31
ENDBRANCH   1  23
TORSDOF 11
ENDMDL
MODEL 2
REMARK VINA RESULT:      -7.0      2.485      5.255
REMARK  11 active torsions:
REMARK  status: ('A' for Active; 'I' for Inactive)
REMARK    1  A    between atoms: C_2  and  C_3 
REMARK    2  A    between atoms: C_5  and  C_17 
REMARK    3  A    between atoms: C_8  and  C_9 
REMARK    4  A    between atoms: C_9  and  N_10 
REMARK    5  A    between atoms: C_12  and  C_14 
REMARK    6  A    between atoms: C_14  and  O_16 
REMARK    7  A    between atoms: N_18  and  O_20 
REMARK    8  A    between atoms: O_20  and  C_21 
REMARK    9  A    between atoms: C_21  and  C_22 
REMARK   10  A    between atoms: C_25  and  C_32 
REMARK   11  A    between atoms: C_26  and  C_28 
ROOT
HETATM    1  C   UNK N   1      30.565  29.282  -3.288  0.00  0.00     0.038 C 
HETATM    2  N   UNK N   1      30.322  30.358  -3.953  0.00  0.00    -0.270 N 
ATOM      3  HN  UNK N   1      30.275  31.244  -3.448  1.00  0.00     0.194 HD
HETATM    4  C   UNK N   1      30.733  29.405  -1.807  0.00  0.00     0.071 C 
ENDROOT
BRANCH   2   5
HETATM    5  O   UNK N   1      30.130  30.369  -5.265  0.00  0.00    -0.276 OA
BRANCH   5   6
HETATM    6  C   UNK N   1      28.892  30.661  -5.798  0.00  0.00     0.239 C 
BRANCH   6   7
HETATM    7  C   UNK N   1      28.217  29.413  -6.228  0.00  0.00    -0.031 A 
HETATM    8  C   UNK N   1      28.626  28.765  -7.389  0.00  0.00     0.010 A 
HETATM    9  C   UNK N   1      27.943  27.646  -7.836  0.00  0.00     0.009 A 
HETATM   10  C   UNK N   1      26.834  27.139  -7.135  0.00  0.00    -0.039 A 
HETATM   11  C   UNK N   1      26.433  27.795  -5.926  0.00  0.00     0.055 A 
HETATM   12  C   UNK N   1      27.140  28.928  -5.503  0.00  0.00     0.026 A 
BRANCH  10  13
HETATM   13  C   UNK N   1      26.149  25.893  -7.684  0.00  0.00     0.019 C 
HETATM   14  C   UNK N   1      26.909  24.598  -7.319  0.00  0.00     0.009 C 
HETATM   15  C   UNK N   1      26.182  23.357  -7.826  0.00  0.00     0.001 C 
HETATM   16  C   UNK N   1      25.954  23.445  -9.332  0.00  0.00     0.000 C 
HETATM   17  C   UNK N   1      25.198  24.724  -9.674  0.00  0.00     0.001 C 
HETATM   18  C   UNK N   1      26.002  25.931  -9.203  0.00  0.00     0.009 C 
ENDBRANCH  10  13
BRANCH  11  19
HETATM   19  C   UNK N   1      25.286  27.334  -5.055  0.00  0.00     0.418 C 
HETATM   20  F   UNK N   1      25.171  28.166  -3.959  0.00  0.00    -0.166 F 
HETATM   21  F   UNK N   1      24.090  27.373  -5.758  0.00  0.00    -0.166 F 
HETATM   22  F   UNK N   1      25.468  26.031  -4.640  0.00  0.00    -0.166 F 
ENDBRANCH  11  19
ENDBRANCH   6   7
ENDBRANCH   5   6
ENDBRANCH   2   5
BRANCH   1  23
HETATM   23  C   UNK N   1      30.653  27.937  -3.923  0.00  0.00    -0.012 A 
HETATM   24  C   UNK N   1      29.606  27.015  -3.790  0.00  0.00     0.021 A 
HETATM   25  C   UNK N   1      29.621  25.789  -4.472  0.00  0.00    -0.050 A 
HETATM   26  C   UNK N   1      30.734  25.487  -5.311  0.00  0.00    -0.024 A 
HETATM   27  C   UNK N   1      31.798  26.386  -5.366  0.00  0.00     0.010 A 
HETATM   28  C   UNK N   1      31.755  27.589  -4.699  0.00  0.00     0.014 A 
BRANCH  25  29
HETATM   29  C   UNK N   1      28.424  24.897  -4.250  0.00  0.00     0.035 C 
HETATM   30  C   UNK N   1      28.550  23.826  -3.183  0.00  0.00     0.010 C 
ENDBRANCH  25  29
BRANCH  26  31
HETATM   31  C   UNK N   1      30.853  24.242  -6.157  0.00  0.00     0.311 C 
BRANCH  31  32
HETATM   32  N   UNK N   1      32.020  23.413  -5.788  0.00  0.00     0.094 N 
HETATM   33  C   UNK N   1      32.200  23.415  -4.334  0.00  0.00     0.289 C 
HETATM   34  C   UNK N   1      31.547  22.080  -4.148  0.00  0.00     0.140 C 
HETATM   35  C   UNK N   1      31.536  22.039  -5.666  0.00  0.00     0.289 C 
BRANCH  34  36
HETATM   36  C   UNK N   1      32.490  21.145  -3.456  0.00  0.00     0.147 C 
HETATM   37  O   UNK N   1      33.096  20.290  -4.081  0.00  0.00    -0.650 OA
BRANCH  36  38
HETATM   38  O   UNK N   1      32.631  21.222  -2.118  0.00  0.00    -0.776 OA
HETATM   39  H   UNK N   1      32.892  20.477  -1.613  0.00  0.00     0.167 HD
ENDBRANCH  36  38
ENDBRANCH  34  36
ENDBRANCH  31  32
ENDBRANCH  26  31
ENDBRANCH   1  23
TORSDOF 11
ENDMDL
MODEL 3
REMARK VINA RESULT:      -6.9      1.762      2.419
REMARK  11 active torsions:
REMARK  status: ('A' for Active; 'I' for Inactive)
REMARK    1  A    between atoms: C_2  and  C_3 
REMARK    2  A    between atoms: C_5  and  C_17 
REMARK    3  A    between atoms: C_8  and  C_9 
REMARK    4  A    between atoms: C_9  and  N_10 
REMARK    5  A    between atoms: C_12  and  C_14 
REMARK    6  A    between atoms: C_14  and  O_16 
REMARK    7  A    between atoms: N_18  and  O_20 
REMARK    8  A    between atoms: O_20  and  C_21 
REMARK    9  A    between atoms: C_21  and  C_22 
REMARK   10  A    between atoms: C_25  and  C_32 
REMARK   11  A    between atoms: C_26  and  C_28 
ROOT
HETATM    1  C   UNK N   1      25.729  22.531  -7.632  0.00  0.00     0.038 C 
HETATM    2  N   UNK N   1      25.349  23.307  -8.588  0.00  0.00    -0.270 N 
ATOM      3  HN  UNK N   1      24.434  23.147  -9.011  1.00  0.00     0.194 HD
HETATM    4  C   UNK N   1      24.807  21.426  -7.227  0.00  0.00     0.071 C 
ENDROOT
BRANCH   2   5
HETATM    5  O   UNK N   1      26.092  24.303  -9.049  0.00  0.00    -0.276 OA
BRANCH   5   6
HETATM    6  C   UNK N   1      25.592  25.585  -9.124  0.00  0.00     0.239 C 
BRANCH   6   7
HETATM    7  C   UNK N   1      26.161  26.417  -8.037  0.00  0.00    -0.031 A 
HETATM    8  C   UNK N   1      25.497  26.522  -6.819  0.00  0.00     0.010 A 
HETATM    9  C   UNK N   1      25.984  27.362  -5.833  0.00  0.00     0.009 A 
HETATM   10  C   UNK N   1      27.152  28.121  -6.031  0.00  0.00    -0.039 A 
HETATM   11  C   UNK N   1      27.847  27.990  -7.278  0.00  0.00     0.055 A 
HETATM   12  C   UNK N   1      27.325  27.136  -8.259  0.00  0.00     0.026 A 
BRANCH  10  13
HETATM   13  C   UNK N   1      27.633  29.009  -4.889  0.00  0.00     0.019 C 
HETATM   14  C   UNK N   1      28.533  28.244  -3.894  0.00  0.00     0.009 C 
HETATM   15  C   UNK N   1      29.052  29.158  -2.788  0.00  0.00     0.001 C 
HETATM   16  C   UNK N   1      27.893  29.834  -2.061  0.00  0.00     0.000 C 
HETATM   17  C   UNK N   1      27.019  30.588  -3.057  0.00  0.00     0.001 C 
HETATM   18  C   UNK N   1      26.477  29.614  -4.097  0.00  0.00     0.009 C 
ENDBRANCH  10  13
BRANCH  11  19
HETATM   19  C   UNK N   1      29.133  28.714  -7.609  0.00  0.00     0.418 C 
HETATM   20  F   UNK N   1      29.428  28.549  -8.948  0.00  0.00    -0.166 F 
HETATM   21  F   UNK N   1      29.008  30.073  -7.356  0.00  0.00    -0.166 F 
HETATM   22  F   UNK N   1      30.177  28.253  -6.836  0.00  0.00    -0.166 F 
ENDBRANCH  11  19
ENDBRANCH   6   7
ENDBRANCH   5   6
ENDBRANCH   2   5
BRANCH   1  23
HETATM   23  C   UNK N   1      27.044  22.673  -6.947  0.00  0.00    -0.012 A 
HETATM   24  C   UNK N   1      27.187  23.530  -5.847  0.00  0.00     0.021 A 
HETATM   25  C   UNK N   1      28.386  23.593  -5.120  0.00  0.00    -0.050 A 
HETATM   26  C   UNK N   1      29.474  22.764  -5.524  0.00  0.00    -0.024 A 
HETATM   27  C   UNK N   1      29.333  21.979  -6.668  0.00  0.00     0.010 A 
HETATM   28  C   UNK N   1      28.143  21.923  -7.356  0.00  0.00     0.014 A 
BRANCH  25  29
HETATM   29  C   UNK N   1      28.398  24.547  -3.951  0.00  0.00     0.035 C 
HETATM   30  C   UNK N   1      27.060  24.900  -3.334  0.00  0.00     0.010 C 
ENDBRANCH  25  29
BRANCH  26  31
HETATM   31  C   UNK N   1      30.795  22.676  -4.798  0.00  0.00     0.311 C 
BRANCH  31  32
HETATM   32  N   UNK N   1      31.644  21.571  -5.294  0.00  0.00     0.094 N 
HETATM   33  C   UNK N   1      33.024  21.753  -4.839  0.00  0.00     0.289 C 
HETATM   34  C   UNK N   1      32.892  20.773  -3.714  0.00  0.00     0.140 C 
HETATM   35  C   UNK N   1      31.530  20.486  -4.321  0.00  0.00     0.289 C 
BRANCH  34  36
HETATM   36  C   UNK N   1      33.928  19.702  -3.850  0.00  0.00     0.147 C 
HETATM   37  O   UNK N   1      35.080  19.977  -4.144  0.00  0.00    -0.650 OA
BRANCH  36  38
HETATM   38  O   UNK N   1      33.568  18.413  -3.693  0.00  0.00    -0.776 OA
HETATM   39  H   UNK N   1      34.101  17.814  -3.206  0.00  0.00     0.167 HD
ENDBRANCH  36  38
ENDBRANCH  34  36
ENDBRANCH  31  32
ENDBRANCH  26  31
ENDBRANCH   1  23
TORSDOF 11
ENDMDL
MODEL 4
REMARK VINA RESULT:      -6.8      2.268      6.364
REMARK  11 active torsions:
REMARK  status: ('A' for Active; 'I' for Inactive)
REMARK    1  A    between atoms: C_2  and  C_3 
REMARK    2  A    between atoms: C_5  and  C_17 
REMARK    3  A    between atoms: C_8  and  C_9 
REMARK    4  A    between atoms: C_9  and  N_10 
REMARK    5  A    between atoms: C_12  and  C_14 
REMARK    6  A    between atoms: C_14  and  O_16 
REMARK    7  A    between atoms: N_18  and  O_20 
REMARK    8  A    between atoms: O_20  and  C_21 
REMARK    9  A    between atoms: C_21  and  C_22 
REMARK   10  A    between atoms: C_25  and  C_32 
REMARK   11  A    between atoms: C_26  and  C_28 
ROOT
HETATM    1  C   UNK N   1      32.106  20.362  -4.917  0.00  0.00     0.038 C 
HETATM    2  N   UNK N   1      31.994  20.585  -3.653  0.00  0.00    -0.270 N 
ATOM      3  HN  UNK N   1      32.720  20.231  -3.030  1.00  0.00     0.194 HD
HETATM    4  C   UNK N   1      33.287  19.570  -5.380  0.00  0.00     0.071 C 
ENDROOT
BRANCH   2   5
HETATM    5  O   UNK N   1      30.977  21.251  -3.125  0.00  0.00    -0.276 OA
BRANCH   5   6
HETATM    6  C   UNK N   1      31.169  22.477  -2.524  0.00  0.00     0.239 C 
BRANCH   6   7
HETATM    7  C   UNK N   1      30.216  23.469  -3.078  0.00  0.00    -0.031 A 
HETATM    8  C   UNK N   1      28.941  23.070  -3.464  0.00  0.00     0.010 A 
HETATM    9  C   UNK N   1      28.080  23.977  -4.058  0.00  0.00     0.009 A 
HETATM   10  C   UNK N   1      28.466  25.312  -4.281  0.00  0.00    -0.039 A 
HETATM   11  C   UNK N   1      29.771  25.724  -3.859  0.00  0.00     0.055 A 
HETATM   12  C   UNK N   1      30.622  24.781  -3.267  0.00  0.00     0.026 A 
BRANCH  10  13
HETATM   13  C   UNK N   1      27.453  26.252  -4.924  0.00  0.00     0.019 C 
HETATM   14  C   UNK N   1      26.476  26.855  -3.890  0.00  0.00     0.009 C 
HETATM   15  C   UNK N   1      25.505  27.836  -4.538  0.00  0.00     0.001 C 
HETATM   16  C   UNK N   1      24.742  27.165  -5.677  0.00  0.00     0.000 C 
HETATM   17  C   UNK N   1      25.721  26.582  -6.690  0.00  0.00     0.001 C 
HETATM   18  C   UNK N   1      26.619  25.561  -6.000  0.00  0.00     0.009 C 
ENDBRANCH  10  13
BRANCH  11  19
HETATM   19  C   UNK N   1      30.299  27.134  -4.001  0.00  0.00     0.418 C 
HETATM   20  F   UNK N   1      31.638  27.165  -3.665  0.00  0.00    -0.166 F 
HETATM   21  F   UNK N   1      30.169  27.576  -5.310  0.00  0.00    -0.166 F 
HETATM   22  F   UNK N   1      29.593  28.012  -3.206  0.00  0.00    -0.166 F 
ENDBRANCH  11  19
ENDBRANCH   6   7
ENDBRANCH   5   6
ENDBRANCH   2   5
BRANCH   1  23
HETATM   23  C   UNK N   1      31.104  20.829  -5.916  0.00  0.00    -0.012 A 
HETATM   24  C   UNK N   1      30.985  22.191  -6.224  0.00  0.00     0.021 A 
HETATM   25  C   UNK N   1      30.127  22.638  -7.240  0.00  0.00    -0.050 A 
HETATM   26  C   UNK N   1      29.363  21.675  -7.963  0.00  0.00    -0.024 A 
HETATM   27  C   UNK N   1      29.441  20.335  -7.586  0.00  0.00     0.010 A 
HETATM   28  C   UNK N   1      30.301  19.918  -6.595  0.00  0.00     0.014 A 
BRANCH  25  29
HETATM   29  C   UNK N   1      30.106  24.129  -7.476  0.00  0.00     0.035 C 
HETATM   30  C   UNK N   1      31.303  24.921  -6.989  0.00  0.00     0.010 C 
ENDBRANCH  25  29
BRANCH  26  31
HETATM   31  C   UNK N   1      28.456  22.002  -9.124  0.00  0.00     0.311 C 
BRANCH  31  32
HETATM   32  N   UNK N   1      27.192  22.639  -8.696  0.00  0.00     0.094 N 
HETATM   33  C   UNK N   1      26.047  21.876  -9.198  0.00  0.00     0.289 C 
HETATM   34  C   UNK N   1      25.810  21.177  -7.895  0.00  0.00     0.140 C 
HETATM   35  C   UNK N   1      26.885  22.111  -7.368  0.00  0.00     0.289 C 
BRANCH  34  36
HETATM   36  C   UNK N   1      24.410  21.433  -7.430  0.00  0.00     0.147 C 
HETATM   37  O   UNK N   1      23.989  20.928  -6.402  0.00  0.00    -0.650 OA
BRANCH  36  38
HETATM   38  O   UNK N   1      23.593  22.192  -8.186  0.00  0.00    -0.776 OA
HETATM   39  H   UNK N   1      23.859  22.503  -9.029  0.00  0.00     0.167 HD
ENDBRANCH  36  38
ENDBRANCH  34  36
ENDBRANCH  31  32
ENDBRANCH  26  31
ENDBRANCH   1  23
TORSDOF 11
ENDMDL
MODEL 5
REMARK VINA RESULT:      -6.7      3.157      6.932
REMARK  11 active torsions:
REMARK  status: ('A' for Active; 'I' for Inactive)
REMARK    1  A    between atoms: C_2  and  C_3 
REMARK    2  A    between atoms: C_5  and  C_17 
REMARK    3  A    between atoms: C_8  and  C_9 
REMARK    4  A    between atoms: C_9  and  N_10 
REMARK    5  A    between atoms: C_12  and  C_14 
REMARK    6  A    between atoms: C_14  and  O_16 
REMARK    7  A    between atoms: N_18  and  O_20 
REMARK    8  A    between atoms: O_20  and  C_21 
REMARK    9  A    between atoms: C_21  and  C_22 
REMARK   10  A    between atoms: C_25  and  C_32 
REMARK   11  A    between atoms: C_26  and  C_28 
ROOT
HETATM    1  C   UNK N   1      27.507  30.001  -4.469  0.00  0.00     0.038 C 
HETATM    2  N   UNK N   1      28.656  30.178  -3.913  0.00  0.00    -0.270 N 
ATOM      3  HN  UNK N   1      28.740  30.885  -3.182  1.00  0.00     0.194 HD
HETATM    4  C   UNK N   1      26.378  30.872  -4.020  0.00  0.00     0.071 C 
ENDROOT
BRANCH   2   5
HETATM    5  O   UNK N   1      29.734  29.484  -4.247  0.00  0.00    -0.276 OA
BRANCH   5   6
HETATM    6  C   UNK N   1      30.413  28.733  -3.310  0.00  0.00     0.239 C 
BRANCH   6   7
HETATM    7  C   UNK N   1      30.225  27.288  -3.584  0.00  0.00    -0.031 A 
HETATM    8  C   UNK N   1      31.289  26.525  -4.053  0.00  0.00     0.010 A 
HETATM    9  C   UNK N   1      31.094  25.195  -4.387  0.00  0.00     0.009 A 
HETATM   10  C   UNK N   1      29.832  24.587  -4.260  0.00  0.00    -0.039 A 
HETATM   11  C   UNK N   1      28.745  25.372  -3.753  0.00  0.00     0.055 A 
HETATM   12  C   UNK N   1      28.972  26.716  -3.429  0.00  0.00     0.026 A 
BRANCH  10  13
HETATM   13  C   UNK N   1      29.705  23.115  -4.633  0.00  0.00     0.019 C 
HETATM   14  C   UNK N   1      30.790  22.246  -3.960  0.00  0.00     0.009 C 
HETATM   15  C   UNK N   1      30.617  20.768  -4.297  0.00  0.00     0.001 C 
HETATM   16  C   UNK N   1      30.614  20.558  -5.807  0.00  0.00     0.000 C 
HETATM   17  C   UNK N   1      29.533  21.417  -6.454  0.00  0.00     0.001 C 
HETATM   18  C   UNK N   1      29.796  22.886  -6.139  0.00  0.00     0.009 C 
ENDBRANCH  10  13
BRANCH  11  19
HETATM   19  C   UNK N   1      27.348  24.836  -3.529  0.00  0.00     0.418 C 
HETATM   20  F   UNK N   1      26.834  24.367  -4.721  0.00  0.00    -0.166 F 
HETATM   21  F   UNK N   1      27.366  23.788  -2.620  0.00  0.00    -0.166 F 
HETATM   22  F   UNK N   1      26.521  25.808  -3.009  0.00  0.00    -0.166 F 
ENDBRANCH  11  19
ENDBRANCH   6   7
ENDBRANCH   5   6
ENDBRANCH   2   5
BRANCH   1  23
HETATM   23  C   UNK N   1      27.272  28.999  -5.546  0.00  0.00    -0.012 A 
HETATM   24  C   UNK N   1      28.110  28.947  -6.667  0.00  0.00     0.021 A 
HETATM   25  C   UNK N   1      27.973  27.941  -7.636  0.00  0.00    -0.050 A 
HETATM   26  C   UNK N   1      26.954  26.959  -7.463  0.00  0.00    -0.024 A 
HETATM   27  C   UNK N   1      26.084  27.078  -6.380  0.00  0.00     0.010 A 
HETATM   28  C   UNK N   1      26.245  28.065  -5.435  0.00  0.00     0.014 A 
BRANCH  25  29
HETATM   29  C   UNK N   1      28.950  27.996  -8.785  0.00  0.00     0.035 C 
HETATM   30  C   UNK N   1      29.726  29.285  -8.970  0.00  0.00     0.010 C 
ENDBRANCH  25  29
BRANCH  26  31
HETATM   31  C   UNK N   1      26.736  25.783  -8.384  0.00  0.00     0.311 C 
BRANCH  31  32
HETATM   32  N   UNK N   1      25.686  24.864  -7.894  0.00  0.00     0.094 N 
HETATM   33  C   UNK N   1      25.171  24.052  -8.999  0.00  0.00     0.289 C 
HETATM   34  C   UNK N   1      25.996  22.854  -8.640  0.00  0.00     0.140 C 
HETATM   35  C   UNK N   1      26.371  23.666  -7.412  0.00  0.00     0.289 C 
BRANCH  34  36
HETATM   36  C   UNK N   1      25.104  21.673  -8.418  0.00  0.00     0.147 C 
HETATM   37  O   UNK N   1      25.511  20.537  -8.598  0.00  0.00    -0.650 OA
BRANCH  36  38
HETATM   38  O   UNK N   1      23.819  21.874  -8.062  0.00  0.00    -0.776 OA
HETATM   39  H   UNK N   1      23.184  22.174  -8.683  0.00  0.00     0.167 HD
ENDBRANCH  36  38
ENDBRANCH  34  36
ENDBRANCH  31  32
ENDBRANCH  26  31
ENDBRANCH   1  23
TORSDOF 11
ENDMDL
MODEL 6
REMARK VINA RESULT:      -6.7      2.401      3.734
REMARK  11 active torsions:
REMARK  status: ('A' for Active; 'I' for Inactive)
REMARK    1  A    between atoms: C_2  and  C_3 
REMARK    2  A    between atoms: C_5  and  C_17 
REMARK    3  A    between atoms: C_8  and  C_9 
REMARK    4  A    between atoms: C_9  and  N_10 
REMARK    5  A    between atoms: C_12  and  C_14 
REMARK    6  A    between atoms: C_14  and  O_16 
REMARK    7  A    between atoms: N_18  and  O_20 
REMARK    8  A    between atoms: O_20  and  C_21 
REMARK    9  A    between atoms: C_21  and  C_22 
REMARK   10  A    between atoms: C_25  and  C_32 
REMARK   11  A    between atoms: C_26  and  C_28 
ROOT
HETATM    1  C   UNK N   1      27.544  21.219 -10.930  0.00  0.00     0.038 C 
HETATM    2  N   UNK N   1      26.385  21.663 -11.276  0.00  0.00    -0.270 N 
ATOM      3  HN  UNK N   1      26.008  21.386 -12.183  1.00  0.00     0.194 HD
HETATM    4  C   UNK N   1      28.271  20.346 -11.901  0.00  0.00     0.071 C 
ENDROOT
BRANCH   2   5
HETATM    5  O   UNK N   1      25.660  22.464 -10.509  0.00  0.00    -0.276 OA
BRANCH   5   6
HETATM    6  C   UNK N   1      25.543  23.808 -10.797  0.00  0.00     0.239 C 
BRANCH   6   7
HETATM    7  C   UNK N   1      25.756  24.610  -9.569  0.00  0.00    -0.031 A 
HETATM    8  C   UNK N   1      26.028  25.971  -9.665  0.00  0.00     0.010 A 
HETATM    9  C   UNK N   1      26.308  26.705  -8.525  0.00  0.00     0.009 A 
HETATM   10  C   UNK N   1      26.323  26.102  -7.253  0.00  0.00    -0.039 A 
HETATM   11  C   UNK N   1      26.017  24.705  -7.157  0.00  0.00     0.055 A 
HETATM   12  C   UNK N   1      25.744  23.989  -8.330  0.00  0.00     0.026 A 
BRANCH  10  13
HETATM   13  C   UNK N   1      26.622  26.983  -6.046  0.00  0.00     0.019 C 
HETATM   14  C   UNK N   1      25.336  27.451  -5.330  0.00  0.00     0.009 C 
HETATM   15  C   UNK N   1      25.653  28.284  -4.092  0.00  0.00     0.001 C 
HETATM   16  C   UNK N   1      26.534  29.475  -4.457  0.00  0.00     0.000 C 
HETATM   17  C   UNK N   1      27.801  28.995  -5.156  0.00  0.00     0.001 C 
HETATM   18  C   UNK N   1      27.424  28.227  -6.419  0.00  0.00     0.009 C 
ENDBRANCH  10  13
BRANCH  11  19
HETATM   19  C   UNK N   1      25.958  23.940  -5.854  0.00  0.00     0.418 C 
HETATM   20  F   UNK N   1      25.853  22.588  -6.113  0.00  0.00    -0.166 F 
HETATM   21  F   UNK N   1      27.109  24.153  -5.109  0.00  0.00    -0.166 F 
HETATM   22  F   UNK N   1      24.894  24.356  -5.081  0.00  0.00    -0.166 F 
ENDBRANCH  11  19
ENDBRANCH   6   7
ENDBRANCH   5   6
ENDBRANCH   2   5
BRANCH   1  23
HETATM   23  C   UNK N   1      28.190  21.562  -9.632  0.00  0.00    -0.012 A 
HETATM   24  C   UNK N   1      28.899  22.761  -9.482  0.00  0.00     0.021 A 
HETATM   25  C   UNK N   1      29.418  23.153  -8.239  0.00  0.00    -0.050 A 
HETATM   26  C   UNK N   1      29.214  22.301  -7.114  0.00  0.00    -0.024 A 
HETATM   27  C   UNK N   1      28.574  21.078  -7.305  0.00  0.00     0.010 A 
HETATM   28  C   UNK N   1      28.061  20.720  -8.530  0.00  0.00     0.014 A 
BRANCH  25  29
HETATM   29  C   UNK N   1      30.148  24.474  -8.217  0.00  0.00     0.035 C 
HETATM   30  C   UNK N   1      29.634  25.562  -9.138  0.00  0.00     0.010 C 
ENDBRANCH  25  29
BRANCH  26  31
HETATM   31  C   UNK N   1      29.653  22.626  -5.706  0.00  0.00     0.311 C 
BRANCH  31  32
HETATM   32  N   UNK N   1      30.186  21.447  -4.990  0.00  0.00     0.094 N 
HETATM   33  C   UNK N   1      31.628  21.328  -5.218  0.00  0.00     0.289 C 
HETATM   34  C   UNK N   1      31.991  21.943  -3.901  0.00  0.00     0.140 C 
HETATM   35  C   UNK N   1      30.498  21.888  -3.632  0.00  0.00     0.289 C 
BRANCH  34  36
HETATM   36  C   UNK N   1      32.851  20.998  -3.120  0.00  0.00     0.147 C 
HETATM   37  O   UNK N   1      33.114  21.212  -1.949  0.00  0.00    -0.650 OA
BRANCH  36  38
HETATM   38  O   UNK N   1      33.379  19.923  -3.739  0.00  0.00    -0.776 OA
HETATM   39  H   UNK N   1      32.833  19.281  -4.149  0.00  0.00     0.167 HD
ENDBRANCH  36  38
ENDBRANCH  34  36
ENDBRANCH  31  32
ENDBRANCH  26  31
ENDBRANCH   1  23
TORSDOF 11
ENDMDL
MODEL 7
REMARK VINA RESULT:      -6.7      2.240      6.453
REMARK  11 active torsions:
REMARK  status: ('A' for Active; 'I' for Inactive)
REMARK    1  A    between atoms: C_2  and  C_3 
REMARK    2  A    between atoms: C_5  and  C_17 
REMARK    3  A    between atoms: C_8  and  C_9 
REMARK    4  A    between atoms: C_9  and  N_10 
REMARK    5  A    between atoms: C_12  and  C_14 
REMARK    6  A    between atoms: C_14  and  O_16 
REMARK    7  A    between atoms: N_18  and  O_20 
REMARK    8  A    between atoms: O_20  and  C_21 
REMARK    9  A    between atoms: C_21  and  C_22 
REMARK   10  A    between atoms: C_25  and  C_32 
REMARK   11  A    between atoms: C_26  and  C_28 
ROOT
HETATM    1  C   UNK N   1      30.872  21.008  -5.857  0.00  0.00     0.038 C 
HETATM    2  N   UNK N   1      30.941  20.871  -4.578  0.00  0.00    -0.270 N 
ATOM      3  HN  UNK N   1      31.572  20.165  -4.197  1.00  0.00     0.194 HD
HETATM    4  C   UNK N   1      31.707  20.098  -6.699  0.00  0.00     0.071 C 
ENDROOT
BRANCH   2   5
HETATM    5  O   UNK N   1      30.229  21.603  -3.733  0.00  0.00    -0.276 OA
BRANCH   5   6
HETATM    6  C   UNK N   1      30.767  22.723  -3.137  0.00  0.00     0.239 C 
BRANCH   6   7
HETATM    7  C   UNK N   1      30.109  23.944  -3.661  0.00  0.00    -0.031 A 
HETATM    8  C   UNK N   1      30.878  24.997  -4.143  0.00  0.00     0.010 A 
HETATM    9  C   UNK N   1      30.268  26.169  -4.557  0.00  0.00     0.009 A 
HETATM   10  C   UNK N   1      28.870  26.323  -4.504  0.00  0.00    -0.039 A 
HETATM   11  C   UNK N   1      28.081  25.225  -4.030  0.00  0.00     0.055 A 
HETATM   12  C   UNK N   1      28.728  24.055  -3.613  0.00  0.00     0.026 A 
BRANCH  10  13
HETATM   13  C   UNK N   1      28.275  27.638  -4.994  0.00  0.00     0.019 C 
HETATM   14  C   UNK N   1      29.109  28.270  -6.131  0.00  0.00     0.009 C 
HETATM   15  C   UNK N   1      28.471  29.555  -6.649  0.00  0.00     0.001 C 
HETATM   16  C   UNK N   1      28.265  30.550  -5.511  0.00  0.00     0.000 C 
HETATM   17  C   UNK N   1      27.435  29.913  -4.402  0.00  0.00     0.001 C 
HETATM   18  C   UNK N   1      28.153  28.673  -3.878  0.00  0.00     0.009 C 
ENDBRANCH  10  13
BRANCH  11  19
HETATM   19  C   UNK N   1      26.570  25.240  -3.958  0.00  0.00     0.418 C 
HETATM   20  F   UNK N   1      26.048  25.556  -5.197  0.00  0.00    -0.166 F 
HETATM   21  F   UNK N   1      26.086  23.993  -3.587  0.00  0.00    -0.166 F 
HETATM   22  F   UNK N   1      26.125  26.143  -3.015  0.00  0.00    -0.166 F 
ENDBRANCH  11  19
ENDBRANCH   6   7
ENDBRANCH   5   6
ENDBRANCH   2   5
BRANCH   1  23
HETATM   23  C   UNK N   1      29.983  22.004  -6.519  0.00  0.00    -0.012 A 
HETATM   24  C   UNK N   1      28.589  21.888  -6.428  0.00  0.00     0.021 A 
HETATM   25  C   UNK N   1      27.738  22.875  -6.949  0.00  0.00    -0.050 A 
HETATM   26  C   UNK N   1      28.318  24.012  -7.585  0.00  0.00    -0.024 A 
HETATM   27  C   UNK N   1      29.704  24.065  -7.732  0.00  0.00     0.010 A 
HETATM   28  C   UNK N   1      30.519  23.092  -7.201  0.00  0.00     0.014 A 
BRANCH  25  29
HETATM   29  C   UNK N   1      26.260  22.632  -6.769  0.00  0.00     0.035 C 
HETATM   30  C   UNK N   1      25.617  21.595  -7.670  0.00  0.00     0.010 C 
ENDBRANCH  25  29
BRANCH  26  31
HETATM   31  C   UNK N   1      27.532  25.180  -8.128  0.00  0.00     0.311 C 
BRANCH  31  32
HETATM   32  N   UNK N   1      27.046  24.949  -9.505  0.00  0.00     0.094 N 
HETATM   33  C   UNK N   1      25.591  24.781  -9.504  0.00  0.00     0.289 C 
HETATM   34  C   UNK N   1      25.325  26.187  -9.946  0.00  0.00     0.140 C 
HETATM   35  C   UNK N   1      26.833  26.267 -10.101  0.00  0.00     0.289 C 
BRANCH  34  36
HETATM   36  C   UNK N   1      24.519  26.179 -11.207  0.00  0.00     0.147 C 
HETATM   37  O   UNK N   1      24.094  27.217 -11.687  0.00  0.00    -0.650 OA
BRANCH  36  38
HETATM   38  O   UNK N   1      24.219  25.001 -11.790  0.00  0.00    -0.776 OA
HETATM   39  H   UNK N   1      24.760  24.641 -12.466  0.00  0.00     0.167 HD
ENDBRANCH  36  38
ENDBRANCH  34  36
ENDBRANCH  31  32
ENDBRANCH  26  31
ENDBRANCH   1  23
TORSDOF 11
ENDMDL
MODEL 8
REMARK VINA RESULT:      -6.7      3.771      7.578
REMARK  11 active torsions:
REMARK  status: ('A' for Active; 'I' for Inactive)
REMARK    1  A    between atoms: C_2  and  C_3 
REMARK    2  A    between atoms: C_5  and  C_17 
REMARK    3  A    between atoms: C_8  and  C_9 
REMARK    4  A    between atoms: C_9  and  N_10 
REMARK    5  A    between atoms: C_12  and  C_14 
REMARK    6  A    between atoms: C_14  and  O_16 
REMARK    7  A    between atoms: N_18  and  O_20 
REMARK    8  A    between atoms: O_20  and  C_21 
REMARK    9  A    between atoms: C_21  and  C_22 
REMARK   10  A    between atoms: C_25  and  C_32 
REMARK   11  A    between atoms: C_26  and  C_28 
ROOT
HETATM    1  C   UNK N   1      28.539  28.891  -3.133  0.00  0.00     0.038 C 
HETATM    2  N   UNK N   1      29.820  28.986  -3.030  0.00  0.00    -0.270 N 
ATOM      3  HN  UNK N   1      30.208  29.532  -2.260  1.00  0.00     0.194 HD
HETATM    4  C   UNK N   1      27.706  29.616  -2.125  0.00  0.00     0.071 C 
ENDROOT
BRANCH   2   5
HETATM    5  O   UNK N   1      30.658  28.409  -3.879  0.00  0.00    -0.276 OA
BRANCH   5   6
HETATM    6  C   UNK N   1      31.477  27.375  -3.475  0.00  0.00     0.239 C 
BRANCH   6   7
HETATM    7  C   UNK N   1      31.003  26.096  -4.056  0.00  0.00    -0.031 A 
HETATM    8  C   UNK N   1      30.621  26.037  -5.392  0.00  0.00     0.010 A 
HETATM    9  C   UNK N   1      30.101  24.864  -5.913  0.00  0.00     0.009 A 
HETATM   10  C   UNK N   1      29.950  23.714  -5.117  0.00  0.00    -0.039 A 
HETATM   11  C   UNK N   1      30.370  23.773  -3.748  0.00  0.00     0.055 A 
HETATM   12  C   UNK N   1      30.886  24.976  -3.248  0.00  0.00     0.026 A 
BRANCH  10  13
HETATM   13  C   UNK N   1      29.387  22.458  -5.771  0.00  0.00     0.019 C 
HETATM   14  C   UNK N   1      30.499  21.498  -6.249  0.00  0.00     0.009 C 
HETATM   15  C   UNK N   1      29.921  20.222  -6.851  0.00  0.00     0.001 C 
HETATM   16  C   UNK N   1      28.962  20.551  -7.991  0.00  0.00     0.000 C 
HETATM   17  C   UNK N   1      27.868  21.493  -7.501  0.00  0.00     0.001 C 
HETATM   18  C   UNK N   1      28.502  22.776  -6.973  0.00  0.00     0.009 C 
ENDBRANCH  10  13
BRANCH  11  19
HETATM   19  C   UNK N   1      30.302  22.602  -2.792  0.00  0.00     0.418 C 
HETATM   20  F   UNK N   1      29.238  21.789  -3.128  0.00  0.00    -0.166 F 
HETATM   21  F   UNK N   1      31.465  21.848  -2.859  0.00  0.00    -0.166 F 
HETATM   22  F   UNK N   1      30.173  23.032  -1.488  0.00  0.00    -0.166 F 
ENDBRANCH  11  19
ENDBRANCH   6   7
ENDBRANCH   5   6
ENDBRANCH   2   5
BRANCH   1  23
HETATM   23  C   UNK N   1      27.868  28.122  -4.218  0.00  0.00    -0.012 A 
HETATM   24  C   UNK N   1      27.427  26.811  -3.996  0.00  0.00     0.021 A 
HETATM   25  C   UNK N   1      26.695  26.111  -4.968  0.00  0.00    -0.050 A 
HETATM   26  C   UNK N   1      26.404  26.761  -6.204  0.00  0.00    -0.024 A 
HETATM   27  C   UNK N   1      26.920  28.036  -6.430  0.00  0.00     0.010 A 
HETATM   28  C   UNK N   1      27.624  28.708  -5.457  0.00  0.00     0.014 A 
BRANCH  25  29
HETATM   29  C   UNK N   1      26.271  24.712  -4.593  0.00  0.00     0.035 C 
HETATM   30  C   UNK N   1      26.812  24.152  -3.293  0.00  0.00     0.010 C 
ENDBRANCH  25  29
BRANCH  26  31
HETATM   31  C   UNK N   1      25.570  26.160  -7.309  0.00  0.00     0.311 C 
BRANCH  31  32
HETATM   32  N   UNK N   1      26.372  25.349  -8.251  0.00  0.00     0.094 N 
HETATM   33  C   UNK N   1      25.545  24.292  -8.837  0.00  0.00     0.289 C 
HETATM   34  C   UNK N   1      25.314  25.039 -10.114  0.00  0.00     0.140 C 
HETATM   35  C   UNK N   1      26.314  26.029  -9.543  0.00  0.00     0.289 C 
BRANCH  34  36
HETATM   36  C   UNK N   1      25.773  24.213 -11.275  0.00  0.00     0.147 C 
HETATM   37  O   UNK N   1      26.934  23.849 -11.365  0.00  0.00    -0.650 OA
BRANCH  36  38
HETATM   38  O   UNK N   1      24.900  23.911 -12.256  0.00  0.00    -0.776 OA
HETATM   39  H   UNK N   1      24.486  24.582 -12.763  0.00  0.00     0.167 HD
ENDBRANCH  36  38
ENDBRANCH  34  36
ENDBRANCH  31  32
ENDBRANCH  26  31
ENDBRANCH   1  23
TORSDOF 11
ENDMDL
MODEL 9
REMARK VINA RESULT:      -6.5      1.963      3.141
REMARK  11 active torsions:
REMARK  status: ('A' for Active; 'I' for Inactive)
REMARK    1  A    between atoms: C_2  and  C_3 
REMARK    2  A    between atoms: C_5  and  C_17 
REMARK    3  A    between atoms: C_8  and  C_9 
REMARK    4  A    between atoms: C_9  and  N_10 
REMARK    5  A    between atoms: C_12  and  C_14 
REMARK    6  A    between atoms: C_14  and  O_16 
REMARK    7  A    between atoms: N_18  and  O_20 
REMARK    8  A    between atoms: O_20  and  C_21 
REMARK    9  A    between atoms: C_21  and  C_22 
REMARK   10  A    between atoms: C_25  and  C_32 
REMARK   11  A    between atoms: C_26  and  C_28 
ROOT
HETATM    1  C   UNK N   1      25.406  22.386  -7.533  0.00  0.00     0.038 C 
HETATM    2  N   UNK N   1      24.942  23.176  -8.439  0.00  0.00    -0.270 N 
ATOM      3  HN  UNK N   1      23.948  23.129  -8.664  1.00  0.00     0.194 HD
HETATM    4  C   UNK N   1      24.452  21.430  -6.892  0.00  0.00     0.071 C 
ENDROOT
BRANCH   2   5
HETATM    5  O   UNK N   1      25.697  24.047  -9.093  0.00  0.00    -0.276 OA
BRANCH   5   6
HETATM    6  C   UNK N   1      25.307  25.363  -9.229  0.00  0.00     0.239 C 
BRANCH   6   7
HETATM    7  C   UNK N   1      25.919  26.187  -8.159  0.00  0.00    -0.031 A 
HETATM    8  C   UNK N   1      25.293  26.299  -6.922  0.00  0.00     0.010 A 
HETATM    9  C   UNK N   1      25.819  27.134  -5.951  0.00  0.00     0.009 A 
HETATM   10  C   UNK N   1      26.989  27.880  -6.185  0.00  0.00    -0.039 A 
HETATM   11  C   UNK N   1      27.644  27.742  -7.452  0.00  0.00     0.055 A 
HETATM   12  C   UNK N   1      27.083  26.894  -8.417  0.00  0.00     0.026 A 
BRANCH  10  13
HETATM   13  C   UNK N   1      27.514  28.761  -5.058  0.00  0.00     0.019 C 
HETATM   14  C   UNK N   1      28.462  27.995  -4.109  0.00  0.00     0.009 C 
HETATM   15  C   UNK N   1      29.023  28.903  -3.020  0.00  0.00     0.001 C 
HETATM   16  C   UNK N   1      27.894  29.566  -2.238  0.00  0.00     0.000 C 
HETATM   17  C   UNK N   1      26.972  30.323  -3.188  0.00  0.00     0.001 C 
HETATM   18  C   UNK N   1      26.390  29.353  -4.211  0.00  0.00     0.009 C 
ENDBRANCH  10  13
BRANCH  11  19
HETATM   19  C   UNK N   1      28.927  28.452  -7.823  0.00  0.00     0.418 C 
HETATM   20  F   UNK N   1      29.983  27.897  -7.128  0.00  0.00    -0.166 F 
HETATM   21  F   UNK N   1      29.183  28.323  -9.180  0.00  0.00    -0.166 F 
HETATM   22  F   UNK N   1      28.843  29.802  -7.553  0.00  0.00    -0.166 F 
ENDBRANCH  11  19
ENDBRANCH   6   7
ENDBRANCH   5   6
ENDBRANCH   2   5
BRANCH   1  23
HETATM   23  C   UNK N   1      26.839  22.369  -7.128  0.00  0.00    -0.012 A 
HETATM   24  C   UNK N   1      27.717  21.410  -7.650  0.00  0.00     0.021 A 
HETATM   25  C   UNK N   1      29.091  21.446  -7.368  0.00  0.00    -0.050 A 
HETATM   26  C   UNK N   1      29.589  22.484  -6.526  0.00  0.00    -0.024 A 
HETATM   27  C   UNK N   1      28.685  23.379  -5.956  0.00  0.00     0.010 A 
HETATM   28  C   UNK N   1      27.343  23.333  -6.259  0.00  0.00     0.014 A 
BRANCH  25  29
HETATM   29  C   UNK N   1      29.924  20.362  -8.007  0.00  0.00     0.035 C 
HETATM   30  C   UNK N   1      29.443  18.934  -7.841  0.00  0.00     0.010 C 
ENDBRANCH  25  29
BRANCH  26  31
HETATM   31  C   UNK N   1      31.047  22.688  -6.194  0.00  0.00     0.311 C 
BRANCH  31  32
HETATM   32  N   UNK N   1      31.388  22.236  -4.828  0.00  0.00     0.094 N 
HETATM   33  C   UNK N   1      31.804  20.832  -4.850  0.00  0.00     0.289 C 
HETATM   34  C   UNK N   1      33.266  21.157  -4.806  0.00  0.00     0.140 C 
HETATM   35  C   UNK N   1      32.791  22.585  -4.609  0.00  0.00     0.289 C 
BRANCH  34  36
HETATM   36  C   UNK N   1      33.898  20.489  -3.624  0.00  0.00     0.147 C 
HETATM   37  O   UNK N   1      34.803  19.685  -3.768  0.00  0.00    -0.650 OA
BRANCH  36  38
HETATM   38  O   UNK N   1      33.423  20.747  -2.389  0.00  0.00    -0.776 OA
HETATM   39  H   UNK N   1      33.487  20.114  -1.701  0.00  0.00     0.167 HD
ENDBRANCH  36  38
ENDBRANCH  34  36
ENDBRANCH  31  32
ENDBRANCH  26  31
ENDBRANCH   1  23
TORSDOF 11
ENDMDL
