MODEL 1
REMARK VINA RESULT:      -8.4      0.000      0.000
REMARK  4 active torsions:
REMARK  status: ('A' for Active; 'I' for Inactive)
REMARK    1  A    between atoms: C_6  and  S_11 
REMARK    2  A    between atoms: S_11  and  N_14 
REMARK       I    between atoms: N_17  and  C_20 
REMARK    3  A    between atoms: C_24  and  C_28 
REMARK       I    between atoms: C_28  and  N_30 
REMARK    4  A    between atoms: N_30  and  O_31 
ROOT
HETATM    1  N   UNK N   1      32.604  16.251   5.963  0.00  0.00    -0.203 NA
HETATM    2  C   UNK N   1      33.761  16.974   6.547  0.00  0.00     0.128 C 
HETATM    3  C   UNK N   1      33.358  17.779   7.782  0.00  0.00     0.157 C 
HETATM    4  N   UNK N   1      32.777  16.844   8.695  0.00  0.00    -0.215 N 
HETATM    5  C   UNK N   1      31.599  16.133   8.256  0.00  0.00     0.157 C 
HETATM    6  C   UNK N   1      31.919  15.397   6.947  0.00  0.00     0.128 C 
HETATM    7  C   UNK N   1      33.585  16.339   9.741  0.00  0.00     0.679 A 
HETATM    8  N   UNK N   1      34.739  16.984  10.074  0.00  0.00    -0.201 N 
ATOM      9  HN  UNK N   1      34.951  17.885   9.646  1.00  0.00     0.183 HD
HETATM   10  C   UNK N   1      35.607  16.449  10.965  0.00  0.00     0.124 A 
HETATM   11  C   UNK N   1      35.346  15.201  11.535  0.00  0.00     0.066 A 
HETATM   12  C   UNK N   1      34.144  14.570  11.199  0.00  0.00     0.124 A 
HETATM   13  N   UNK N   1      33.287  15.148  10.320  0.00  0.00    -0.201 N 
ATOM     14  HN  UNK N   1      32.408  14.682  10.092  1.00  0.00     0.183 HD
ENDROOT
BRANCH   1  15
HETATM   15  S   UNK N   1      31.446  17.326   5.116  0.00  0.00     0.243 S 
HETATM   16  O   UNK N   1      31.005  15.919   4.668  0.00  0.00    -0.206 OA
HETATM   17  O   UNK N   1      32.200  17.551   3.797  0.00  0.00    -0.206 OA
BRANCH  15  18
HETATM   18  C   UNK N   1      29.755  17.512   4.495  0.00  0.00     0.075 A 
HETATM   19  C   UNK N   1      29.042  18.683   4.822  0.00  0.00     0.037 A 
HETATM   20  C   UNK N   1      27.720  18.839   4.455  0.00  0.00    -0.025 A 
HETATM   21  C   UNK N   1      27.052  20.020   4.778  0.00  0.00     0.012 A 
HETATM   22  C   UNK N   1      27.058  17.804   3.768  0.00  0.00    -0.026 A 
HETATM   23  C   UNK N   1      25.712  20.177   4.424  0.00  0.00     0.001 A 
HETATM   24  C   UNK N   1      25.042  19.150   3.748  0.00  0.00     0.001 A 
HETATM   25  C   UNK N   1      25.714  17.964   3.418  0.00  0.00     0.012 A 
HETATM   26  C   UNK N   1      27.750  16.624   3.449  0.00  0.00     0.014 A 
HETATM   27  C   UNK N   1      29.099  16.475   3.818  0.00  0.00     0.026 A 
ENDBRANCH  15  18
ENDBRANCH   1  15
BRANCH  11  28
HETATM   28  C   UNK N   1      36.348  14.577  12.439  0.00  0.00     0.277 C 
HETATM   29  O   UNK N   1      36.356  14.894  13.618  0.00  0.00    -0.265 OA
HETATM   30  N   UNK N   1      37.280  13.692  11.998  0.00  0.00    -0.233 N 
HETATM   31  H   UNK N   1      37.903  13.298  12.650  0.00  0.00     0.197 HD
BRANCH  30  32
HETATM   32  O   UNK N   1      37.385  13.337  10.711  0.00  0.00    -0.287 OA
HETATM   33  H   UNK N   1      38.053  12.692  10.431  0.00  0.00     0.244 HD
ENDBRANCH  30  32
ENDBRANCH  11  28
TORSDOF 4
ENDMDL
MODEL 2
REMARK VINA RESULT:      -8.1      5.554     11.381
REMARK  4 active torsions:
REMARK  status: ('A' for Active; 'I' for Inactive)
REMARK    1  A    between atoms: C_6  and  S_11 
REMARK    2  A    between atoms: S_11  and  N_14 
REMARK       I    between atoms: N_17  and  C_20 
REMARK    3  A    between atoms: C_24  and  C_28 
REMARK       I    between atoms: C_28  and  N_30 
REMARK    4  A    between atoms: N_30  and  O_31 
ROOT
HETATM    1  N   UNK N   1      27.314  17.104   3.479  0.00  0.00    -0.203 NA
HETATM    2  C   UNK N   1      26.036  16.368   3.632  0.00  0.00     0.128 C 
HETATM    3  C   UNK N   1      25.260  16.832   4.865  0.00  0.00     0.157 C 
HETATM    4  N   UNK N   1      25.067  18.240   4.706  0.00  0.00    -0.215 N 
HETATM    5  C   UNK N   1      26.249  19.067   4.619  0.00  0.00     0.157 C 
HETATM    6  C   UNK N   1      27.124  18.564   3.462  0.00  0.00     0.128 C 
HETATM    7  C   UNK N   1      23.823  18.694   4.207  0.00  0.00     0.679 A 
HETATM    8  N   UNK N   1      22.745  17.860   4.222  0.00  0.00    -0.201 N 
ATOM      9  HN  UNK N   1      22.815  16.959   4.695  1.00  0.00     0.183 HD
HETATM   10  C   UNK N   1      21.584  18.207   3.618  0.00  0.00     0.124 A 
HETATM   11  C   UNK N   1      21.484  19.423   2.939  0.00  0.00     0.066 A 
HETATM   12  C   UNK N   1      22.593  20.275   2.959  0.00  0.00     0.124 A 
HETATM   13  N   UNK N   1      23.733  19.902   3.594  0.00  0.00    -0.201 N 
ATOM     14  HN  UNK N   1      24.531  20.537   3.610  1.00  0.00     0.183 HD
ENDROOT
BRANCH   1  15
HETATM   15  S   UNK N   1      28.560  16.625   4.677  0.00  0.00     0.243 S 
HETATM   16  O   UNK N   1      29.379  16.836   3.388  0.00  0.00    -0.206 OA
HETATM   17  O   UNK N   1      28.560  15.102   4.471  0.00  0.00    -0.206 OA
BRANCH  15  18
HETATM   18  C   UNK N   1      30.278  16.825   5.211  0.00  0.00     0.075 A 
HETATM   19  C   UNK N   1      30.552  16.889   6.592  0.00  0.00     0.037 A 
HETATM   20  C   UNK N   1      31.829  17.132   7.056  0.00  0.00    -0.025 A 
HETATM   21  C   UNK N   1      32.066  17.169   8.429  0.00  0.00     0.012 A 
HETATM   22  C   UNK N   1      32.876  17.351   6.140  0.00  0.00    -0.026 A 
HETATM   23  C   UNK N   1      33.352  17.431   8.905  0.00  0.00     0.001 A 
HETATM   24  C   UNK N   1      34.397  17.658   8.002  0.00  0.00     0.001 A 
HETATM   25  C   UNK N   1      34.162  17.617   6.620  0.00  0.00     0.012 A 
HETATM   26  C   UNK N   1      32.616  17.307   4.760  0.00  0.00     0.014 A 
HETATM   27  C   UNK N   1      31.315  17.049   4.295  0.00  0.00     0.026 A 
ENDBRANCH  15  18
ENDBRANCH   1  15
BRANCH  11  28
HETATM   28  C   UNK N   1      20.237  19.756   2.200  0.00  0.00     0.277 C 
HETATM   29  O   UNK N   1      19.161  19.445   2.688  0.00  0.00    -0.265 OA
HETATM   30  N   UNK N   1      20.247  20.362   0.984  0.00  0.00    -0.233 N 
HETATM   31  H   UNK N   1      19.387  20.574   0.555  0.00  0.00     0.197 HD
BRANCH  30  32
HETATM   32  O   UNK N   1      21.382  20.679   0.346  0.00  0.00    -0.287 OA
HETATM   33  H   UNK N   1      21.614  21.607   0.186  0.00  0.00     0.244 HD
ENDBRANCH  30  32
ENDBRANCH  11  28
TORSDOF 4
ENDMDL
MODEL 3
REMARK VINA RESULT:      -8.0      4.865     11.715
REMARK  4 active torsions:
REMARK  status: ('A' for Active; 'I' for Inactive)
REMARK    1  A    between atoms: C_6  and  S_11 
REMARK    2  A    between atoms: S_11  and  N_14 
REMARK       I    between atoms: N_17  and  C_20 
REMARK    3  A    between atoms: C_24  and  C_28 
REMARK       I    between atoms: C_28  and  N_30 
REMARK    4  A    between atoms: N_30  and  O_31 
ROOT
HETATM    1  N   UNK N   1      36.887  12.595  11.845  0.00  0.00    -0.203 NA
HETATM    2  C   UNK N   1      36.267  12.204  10.555  0.00  0.00     0.128 C 
HETATM    3  C   UNK N   1      34.742  12.282  10.615  0.00  0.00     0.157 C 
HETATM    4  N   UNK N   1      34.428  13.626  10.990  0.00  0.00    -0.215 N 
HETATM    5  C   UNK N   1      34.921  14.092  12.266  0.00  0.00     0.157 C 
HETATM    6  C   UNK N   1      36.447  13.924  12.301  0.00  0.00     0.128 C 
HETATM    7  C   UNK N   1      34.067  14.540   9.972  0.00  0.00     0.679 A 
HETATM    8  N   UNK N   1      33.689  14.072   8.749  0.00  0.00    -0.201 N 
ATOM      9  HN  UNK N   1      33.559  13.070   8.614  1.00  0.00     0.183 HD
HETATM   10  C   UNK N   1      33.483  14.916   7.710  0.00  0.00     0.124 A 
HETATM   11  C   UNK N   1      33.688  16.288   7.872  0.00  0.00     0.066 A 
HETATM   12  C   UNK N   1      34.050  16.749   9.142  0.00  0.00     0.124 A 
HETATM   13  N   UNK N   1      34.225  15.875  10.165  0.00  0.00    -0.201 N 
ATOM     14  HN  UNK N   1      34.479  16.224  11.089  1.00  0.00     0.183 HD
ENDROOT
BRANCH   1  15
HETATM   15  S   UNK N   1      36.686  11.364  13.134  0.00  0.00     0.243 S 
HETATM   16  O   UNK N   1      37.276  12.570  13.893  0.00  0.00    -0.206 OA
HETATM   17  O   UNK N   1      38.062  10.682  13.073  0.00  0.00    -0.206 OA
BRANCH  15  18
HETATM   18  C   UNK N   1      36.319  11.075  14.883  0.00  0.00     0.075 A 
HETATM   19  C   UNK N   1      35.903  12.164  15.674  0.00  0.00     0.037 A 
HETATM   20  C   UNK N   1      35.697  12.023  17.031  0.00  0.00    -0.025 A 
HETATM   21  C   UNK N   1      35.266  13.119  17.779  0.00  0.00     0.012 A 
HETATM   22  C   UNK N   1      35.935  10.780  17.649  0.00  0.00    -0.026 A 
HETATM   23  C   UNK N   1      35.072  12.987  19.154  0.00  0.00     0.001 A 
HETATM   24  C   UNK N   1      35.313  11.758  19.779  0.00  0.00     0.001 A 
HETATM   25  C   UNK N   1      35.743  10.654  19.029  0.00  0.00     0.012 A 
HETATM   26  C   UNK N   1      36.366   9.689  16.878  0.00  0.00     0.014 A 
HETATM   27  C   UNK N   1      36.564   9.837  15.494  0.00  0.00     0.026 A 
ENDBRANCH  15  18
ENDBRANCH   1  15
BRANCH  11  28
HETATM   28  C   UNK N   1      33.551  17.198   6.704  0.00  0.00     0.277 C 
HETATM   29  O   UNK N   1      34.530  17.826   6.327  0.00  0.00    -0.265 OA
HETATM   30  N   UNK N   1      32.372  17.387   6.058  0.00  0.00    -0.233 N 
HETATM   31  H   UNK N   1      32.351  17.988   5.278  0.00  0.00     0.197 HD
BRANCH  30  32
HETATM   32  O   UNK N   1      31.235  16.790   6.442  0.00  0.00    -0.287 OA
HETATM   33  H   UNK N   1      31.075  16.591   7.377  0.00  0.00     0.244 HD
ENDBRANCH  30  32
ENDBRANCH  11  28
TORSDOF 4
ENDMDL
MODEL 4
REMARK VINA RESULT:      -8.0      5.589     11.416
REMARK  4 active torsions:
REMARK  status: ('A' for Active; 'I' for Inactive)
REMARK    1  A    between atoms: C_6  and  S_11 
REMARK    2  A    between atoms: S_11  and  N_14 
REMARK       I    between atoms: N_17  and  C_20 
REMARK    3  A    between atoms: C_24  and  C_28 
REMARK       I    between atoms: C_28  and  N_30 
REMARK    4  A    between atoms: N_30  and  O_31 
ROOT
HETATM    1  N   UNK N   1      27.152  16.877   3.784  0.00  0.00    -0.203 NA
HETATM    2  C   UNK N   1      25.850  16.174   3.891  0.00  0.00     0.128 C 
HETATM    3  C   UNK N   1      25.034  16.675   5.083  0.00  0.00     0.157 C 
HETATM    4  N   UNK N   1      24.884  18.085   4.897  0.00  0.00    -0.215 N 
HETATM    5  C   UNK N   1      26.089  18.880   4.851  0.00  0.00     0.157 C 
HETATM    6  C   UNK N   1      27.000  18.341   3.739  0.00  0.00     0.128 C 
HETATM    7  C   UNK N   1      23.674  18.562   4.338  0.00  0.00     0.679 A 
HETATM    8  N   UNK N   1      22.576  17.755   4.317  0.00  0.00    -0.201 N 
ATOM      9  HN  UNK N   1      22.603  16.860   4.805  1.00  0.00     0.183 HD
HETATM   10  C   UNK N   1      21.451  18.122   3.660  0.00  0.00     0.124 A 
HETATM   11  C   UNK N   1      21.411  19.330   2.961  0.00  0.00     0.066 A 
HETATM   12  C   UNK N   1      22.539  20.155   3.018  0.00  0.00     0.124 A 
HETATM   13  N   UNK N   1      23.641  19.764   3.707  0.00  0.00    -0.201 N 
ATOM     14  HN  UNK N   1      24.454  20.379   3.749  1.00  0.00     0.183 HD
ENDROOT
BRANCH   1  15
HETATM   15  S   UNK N   1      28.333  16.383   5.041  0.00  0.00     0.243 S 
HETATM   16  O   UNK N   1      29.095  17.468   4.254  0.00  0.00    -0.206 OA
HETATM   17  O   UNK N   1      29.074  15.266   4.291  0.00  0.00    -0.206 OA
BRANCH  15  18
HETATM   18  C   UNK N   1      29.681  16.923   6.122  0.00  0.00     0.075 A 
HETATM   19  C   UNK N   1      31.004  16.832   5.647  0.00  0.00     0.037 A 
HETATM   20  C   UNK N   1      32.077  17.142   6.459  0.00  0.00    -0.025 A 
HETATM   21  C   UNK N   1      33.372  17.060   5.948  0.00  0.00     0.012 A 
HETATM   22  C   UNK N   1      31.855  17.526   7.795  0.00  0.00    -0.026 A 
HETATM   23  C   UNK N   1      34.461  17.356   6.768  0.00  0.00     0.001 A 
HETATM   24  C   UNK N   1      34.251  17.731   8.100  0.00  0.00     0.001 A 
HETATM   25  C   UNK N   1      32.950  17.818   8.615  0.00  0.00     0.012 A 
HETATM   26  C   UNK N   1      30.543  17.605   8.289  0.00  0.00     0.014 A 
HETATM   27  C   UNK N   1      29.454  17.298   7.454  0.00  0.00     0.026 A 
ENDBRANCH  15  18
ENDBRANCH   1  15
BRANCH  11  28
HETATM   28  C   UNK N   1      20.206  19.684   2.164  0.00  0.00     0.277 C 
HETATM   29  O   UNK N   1      19.105  19.363   2.585  0.00  0.00    -0.265 OA
HETATM   30  N   UNK N   1      20.282  20.319   0.966  0.00  0.00    -0.233 N 
HETATM   31  H   UNK N   1      19.447  20.544   0.496  0.00  0.00     0.197 HD
BRANCH  30  32
HETATM   32  O   UNK N   1      21.449  20.651   0.398  0.00  0.00    -0.287 OA
HETATM   33  H   UNK N   1      22.212  20.054   0.454  0.00  0.00     0.244 HD
ENDBRANCH  30  32
ENDBRANCH  11  28
TORSDOF 4
ENDMDL
MODEL 5
REMARK VINA RESULT:      -7.9      1.706      2.478
REMARK  4 active torsions:
REMARK  status: ('A' for Active; 'I' for Inactive)
REMARK    1  A    between atoms: C_6  and  S_11 
REMARK    2  A    between atoms: S_11  and  N_14 
REMARK       I    between atoms: N_17  and  C_20 
REMARK    3  A    between atoms: C_24  and  C_28 
REMARK       I    between atoms: C_28  and  N_30 
REMARK    4  A    between atoms: N_30  and  O_31 
ROOT
HETATM    1  N   UNK N   1      30.140  16.435   6.959  0.00  0.00    -0.203 NA
HETATM    2  C   UNK N   1      31.206  15.536   6.451  0.00  0.00     0.128 C 
HETATM    3  C   UNK N   1      32.508  16.294   6.193  0.00  0.00     0.157 C 
HETATM    4  N   UNK N   1      32.858  16.916   7.433  0.00  0.00    -0.215 N 
HETATM    5  C   UNK N   1      31.923  17.868   7.985  0.00  0.00     0.157 C 
HETATM    6  C   UNK N   1      30.558  17.184   8.155  0.00  0.00     0.128 C 
HETATM    7  C   UNK N   1      33.820  16.280   8.253  0.00  0.00     0.679 A 
HETATM    8  N   UNK N   1      34.632  15.322   7.723  0.00  0.00    -0.201 N 
ATOM      9  HN  UNK N   1      34.616  15.152   6.717  1.00  0.00     0.183 HD
HETATM   10  C   UNK N   1      35.457  14.591   8.509  0.00  0.00     0.124 A 
HETATM   11  C   UNK N   1      35.465  14.789   9.891  0.00  0.00     0.066 A 
HETATM   12  C   UNK N   1      34.645  15.796  10.410  0.00  0.00     0.124 A 
HETATM   13  N   UNK N   1      33.848  16.524   9.588  0.00  0.00    -0.201 N 
ATOM     14  HN  UNK N   1      33.262  17.262   9.978  1.00  0.00     0.183 HD
ENDROOT
BRANCH   1  15
HETATM   15  S   UNK N   1      29.475  17.531   5.705  0.00  0.00     0.243 S 
HETATM   16  O   UNK N   1      28.260  16.663   6.088  0.00  0.00    -0.206 OA
HETATM   17  O   UNK N   1      29.728  16.686   4.446  0.00  0.00    -0.206 OA
BRANCH  15  18
HETATM   18  C   UNK N   1      28.018  18.439   5.131  0.00  0.00     0.075 A 
HETATM   19  C   UNK N   1      26.778  17.770   5.090  0.00  0.00     0.037 A 
HETATM   20  C   UNK N   1      25.653  18.382   4.576  0.00  0.00    -0.025 A 
HETATM   21  C   UNK N   1      24.439  17.695   4.570  0.00  0.00     0.012 A 
HETATM   22  C   UNK N   1      25.743  19.686   4.054  0.00  0.00    -0.026 A 
HETATM   23  C   UNK N   1      23.302  18.303   4.037  0.00  0.00     0.001 A 
HETATM   24  C   UNK N   1      23.383  19.596   3.509  0.00  0.00     0.001 A 
HETATM   25  C   UNK N   1      24.601  20.290   3.517  0.00  0.00     0.012 A 
HETATM   26  C   UNK N   1      26.975  20.361   4.072  0.00  0.00     0.014 A 
HETATM   27  C   UNK N   1      28.115  19.735   4.606  0.00  0.00     0.026 A 
ENDBRANCH  15  18
ENDBRANCH   1  15
BRANCH  11  28
HETATM   28  C   UNK N   1      36.304  13.919  10.758  0.00  0.00     0.277 C 
HETATM   29  O   UNK N   1      35.756  13.082  11.459  0.00  0.00    -0.265 OA
HETATM   30  N   UNK N   1      37.654  14.042  10.828  0.00  0.00    -0.233 N 
HETATM   31  H   UNK N   1      38.156  13.422  11.406  0.00  0.00     0.197 HD
BRANCH  30  32
HETATM   32  O   UNK N   1      38.331  14.974  10.143  0.00  0.00    -0.287 OA
HETATM   33  H   UNK N   1      38.009  15.284   9.283  0.00  0.00     0.244 HD
ENDBRANCH  30  32
ENDBRANCH  11  28
TORSDOF 4
ENDMDL
MODEL 6
REMARK VINA RESULT:      -7.9      3.853      5.648
REMARK  4 active torsions:
REMARK  status: ('A' for Active; 'I' for Inactive)
REMARK    1  A    between atoms: C_6  and  S_11 
REMARK    2  A    between atoms: S_11  and  N_14 
REMARK       I    between atoms: N_17  and  C_20 
REMARK    3  A    between atoms: C_24  and  C_28 
REMARK       I    between atoms: C_28  and  N_30 
REMARK    4  A    between atoms: N_30  and  O_31 
ROOT
HETATM    1  N   UNK N   1      27.537  19.261   4.408  0.00  0.00    -0.203 NA
HETATM    2  C   UNK N   1      28.150  19.930   5.582  0.00  0.00     0.128 C 
HETATM    3  C   UNK N   1      27.771  19.236   6.890  0.00  0.00     0.157 C 
HETATM    4  N   UNK N   1      28.189  17.875   6.753  0.00  0.00    -0.215 N 
HETATM    5  C   UNK N   1      27.600  17.104   5.684  0.00  0.00     0.157 C 
HETATM    6  C   UNK N   1      27.853  17.824   4.351  0.00  0.00     0.128 C 
HETATM    7  C   UNK N   1      29.420  17.491   7.335  0.00  0.00     0.679 A 
HETATM    8  N   UNK N   1      29.997  18.286   8.281  0.00  0.00    -0.201 N 
ATOM      9  HN  UNK N   1      29.482  19.089   8.642  1.00  0.00     0.183 HD
HETATM   10  C   UNK N   1      31.241  18.027   8.748  0.00  0.00     0.124 A 
HETATM   11  C   UNK N   1      31.970  16.951   8.239  0.00  0.00     0.066 A 
HETATM   12  C   UNK N   1      31.350  16.133   7.289  0.00  0.00     0.124 A 
HETATM   13  N   UNK N   1      30.092  16.410   6.862  0.00  0.00    -0.201 N 
ATOM     14  HN  UNK N   1      29.647  15.800   6.176  1.00  0.00     0.183 HD
ENDROOT
BRANCH   1  15
HETATM   15  S   UNK N   1      25.772  19.545   4.267  0.00  0.00     0.243 S 
HETATM   16  O   UNK N   1      26.042  18.487   3.178  0.00  0.00    -0.206 OA
HETATM   17  O   UNK N   1      25.763  20.672   3.222  0.00  0.00    -0.206 OA
BRANCH  15  18
HETATM   18  C   UNK N   1      24.163  18.809   3.884  0.00  0.00     0.075 A 
HETATM   19  C   UNK N   1      23.119  19.654   3.457  0.00  0.00     0.037 A 
HETATM   20  C   UNK N   1      21.848  19.163   3.239  0.00  0.00    -0.025 A 
HETATM   21  C   UNK N   1      20.844  20.026   2.798  0.00  0.00     0.012 A 
HETATM   22  C   UNK N   1      21.573  17.802   3.474  0.00  0.00    -0.026 A 
HETATM   23  C   UNK N   1      19.553  19.539   2.591  0.00  0.00     0.001 A 
HETATM   24  C   UNK N   1      19.269  18.190   2.830  0.00  0.00     0.001 A 
HETATM   25  C   UNK N   1      20.277  17.320   3.269  0.00  0.00     0.012 A 
HETATM   26  C   UNK N   1      22.599  16.950   3.915  0.00  0.00     0.014 A 
HETATM   27  C   UNK N   1      23.894  17.454   4.126  0.00  0.00     0.026 A 
ENDBRANCH  15  18
ENDBRANCH   1  15
BRANCH  11  28
HETATM   28  C   UNK N   1      33.371  16.729   8.687  0.00  0.00     0.277 C 
HETATM   29  O   UNK N   1      34.281  17.247   8.058  0.00  0.00    -0.265 OA
HETATM   30  N   UNK N   1      33.682  15.943   9.750  0.00  0.00    -0.233 N 
HETATM   31  H   UNK N   1      34.627  15.852  10.010  0.00  0.00     0.197 HD
BRANCH  30  32
HETATM   32  O   UNK N   1      32.754  15.285  10.458  0.00  0.00    -0.287 OA
HETATM   33  H   UNK N   1      31.924  15.721  10.708  0.00  0.00     0.244 HD
ENDBRANCH  30  32
ENDBRANCH  11  28
TORSDOF 4
ENDMDL
MODEL 7
REMARK VINA RESULT:      -7.8      3.745      5.596
REMARK  4 active torsions:
REMARK  status: ('A' for Active; 'I' for Inactive)
REMARK    1  A    between atoms: C_6  and  S_11 
REMARK    2  A    between atoms: S_11  and  N_14 
REMARK       I    between atoms: N_17  and  C_20 
REMARK    3  A    between atoms: C_24  and  C_28 
REMARK       I    between atoms: C_28  and  N_30 
REMARK    4  A    between atoms: N_30  and  O_31 
ROOT
HETATM    1  N   UNK N   1      27.398  18.575   4.987  0.00  0.00    -0.203 NA
HETATM    2  C   UNK N   1      27.773  19.027   6.349  0.00  0.00     0.128 C 
HETATM    3  C   UNK N   1      27.952  17.849   7.307  0.00  0.00     0.157 C 
HETATM    4  N   UNK N   1      28.944  17.004   6.716  0.00  0.00    -0.215 N 
HETATM    5  C   UNK N   1      28.651  16.447   5.415  0.00  0.00     0.157 C 
HETATM    6  C   UNK N   1      28.347  17.592   4.439  0.00  0.00     0.128 C 
HETATM    7  C   UNK N   1      30.276  17.109   7.180  0.00  0.00     0.679 A 
HETATM    8  N   UNK N   1      30.529  17.719   8.372  0.00  0.00    -0.201 N 
ATOM      9  HN  UNK N   1      29.750  17.992   8.971  1.00  0.00     0.183 HD
HETATM   10  C   UNK N   1      31.798  17.969   8.775  0.00  0.00     0.124 A 
HETATM   11  C   UNK N   1      32.873  17.629   7.952  0.00  0.00     0.066 A 
HETATM   12  C   UNK N   1      32.592  16.979   6.746  0.00  0.00     0.124 A 
HETATM   13  N   UNK N   1      31.308  16.725   6.386  0.00  0.00    -0.201 N 
ATOM     14  HN  UNK N   1      31.117  16.242   5.508  1.00  0.00     0.183 HD
ENDROOT
BRANCH   1  15
HETATM   15  S   UNK N   1      25.709  17.982   4.873  0.00  0.00     0.243 S 
HETATM   16  O   UNK N   1      26.199  17.920   3.413  0.00  0.00    -0.206 OA
HETATM   17  O   UNK N   1      24.976  19.306   4.610  0.00  0.00    -0.206 OA
BRANCH  15  18
HETATM   18  C   UNK N   1      24.569  16.867   4.017  0.00  0.00     0.075 A 
HETATM   19  C   UNK N   1      25.074  16.045   2.990  0.00  0.00     0.037 A 
HETATM   20  C   UNK N   1      24.236  15.242   2.241  0.00  0.00    -0.025 A 
HETATM   21  C   UNK N   1      24.774  14.426   1.246  0.00  0.00     0.012 A 
HETATM   22  C   UNK N   1      22.849  15.263   2.481  0.00  0.00    -0.026 A 
HETATM   23  C   UNK N   1      23.931  13.625   0.475  0.00  0.00     0.001 A 
HETATM   24  C   UNK N   1      22.550  13.645   0.700  0.00  0.00     0.001 A 
HETATM   25  C   UNK N   1      22.007  14.462   1.703  0.00  0.00     0.012 A 
HETATM   26  C   UNK N   1      22.328  16.090   3.490  0.00  0.00     0.014 A 
HETATM   27  C   UNK N   1      23.188  16.897   4.255  0.00  0.00     0.026 A 
ENDBRANCH  15  18
ENDBRANCH   1  15
BRANCH  11  28
HETATM   28  C   UNK N   1      34.257  17.991   8.358  0.00  0.00     0.277 C 
HETATM   29  O   UNK N   1      34.892  18.768   7.661  0.00  0.00    -0.265 OA
HETATM   30  N   UNK N   1      34.859  17.464   9.455  0.00  0.00    -0.233 N 
HETATM   31  H   UNK N   1      35.770  17.759   9.682  0.00  0.00     0.197 HD
BRANCH  30  32
HETATM   32  O   UNK N   1      34.262  16.557  10.240  0.00  0.00    -0.287 OA
HETATM   33  H   UNK N   1      34.532  15.626  10.211  0.00  0.00     0.244 HD
ENDBRANCH  30  32
ENDBRANCH  11  28
TORSDOF 4
ENDMDL
MODEL 8
REMARK VINA RESULT:      -7.7      2.793      4.303
REMARK  4 active torsions:
REMARK  status: ('A' for Active; 'I' for Inactive)
REMARK    1  A    between atoms: C_6  and  S_11 
REMARK    2  A    between atoms: S_11  and  N_14 
REMARK       I    between atoms: N_17  and  C_20 
REMARK    3  A    between atoms: C_24  and  C_28 
REMARK       I    between atoms: C_28  and  N_30 
REMARK    4  A    between atoms: N_30  and  O_31 
ROOT
HETATM    1  N   UNK N   1      35.425  14.413   8.304  0.00  0.00    -0.203 NA
HETATM    2  C   UNK N   1      36.460  14.837   9.278  0.00  0.00     0.128 C 
HETATM    3  C   UNK N   1      35.858  15.655  10.422  0.00  0.00     0.157 C 
HETATM    4  N   UNK N   1      34.852  14.829  11.013  0.00  0.00    -0.215 N 
HETATM    5  C   UNK N   1      33.753  14.414  10.171  0.00  0.00     0.157 C 
HETATM    6  C   UNK N   1      34.315  13.686   8.942  0.00  0.00     0.128 C 
HETATM    7  C   UNK N   1      35.179  14.112  12.188  0.00  0.00     0.679 A 
HETATM    8  N   UNK N   1      36.274  14.472  12.916  0.00  0.00    -0.201 N 
ATOM      9  HN  UNK N   1      36.780  15.323  12.671  1.00  0.00     0.183 HD
HETATM   10  C   UNK N   1      36.701  13.719  13.957  0.00  0.00     0.124 A 
HETATM   11  C   UNK N   1      36.037  12.535  14.283  0.00  0.00     0.066 A 
HETATM   12  C   UNK N   1      34.900  12.198  13.541  0.00  0.00     0.124 A 
HETATM   13  N   UNK N   1      34.489  12.990  12.519  0.00  0.00    -0.201 N 
ATOM     14  HN  UNK N   1      33.653  12.739  11.992  1.00  0.00     0.183 HD
ENDROOT
BRANCH   1  15
HETATM   15  S   UNK N   1      34.821  15.754   7.278  0.00  0.00     0.243 S 
HETATM   16  O   UNK N   1      33.941  14.563   6.847  0.00  0.00    -0.206 OA
HETATM   17  O   UNK N   1      35.723  15.580   6.047  0.00  0.00    -0.206 OA
BRANCH  15  18
HETATM   18  C   UNK N   1      33.379  16.476   6.455  0.00  0.00     0.075 A 
HETATM   19  C   UNK N   1      32.166  16.559   7.169  0.00  0.00     0.037 A 
HETATM   20  C   UNK N   1      31.012  17.015   6.565  0.00  0.00    -0.025 A 
HETATM   21  C   UNK N   1      29.835  17.103   7.308  0.00  0.00     0.012 A 
HETATM   22  C   UNK N   1      31.031  17.377   5.204  0.00  0.00    -0.026 A 
HETATM   23  C   UNK N   1      28.662  17.547   6.699  0.00  0.00     0.001 A 
HETATM   24  C   UNK N   1      28.668  17.901   5.345  0.00  0.00     0.001 A 
HETATM   25  C   UNK N   1      29.851  17.818   4.596  0.00  0.00     0.012 A 
HETATM   26  C   UNK N   1      32.227  17.284   4.474  0.00  0.00     0.014 A 
HETATM   27  C   UNK N   1      33.401  16.828   5.098  0.00  0.00     0.026 A 
ENDBRANCH  15  18
ENDBRANCH   1  15
BRANCH  11  28
HETATM   28  C   UNK N   1      36.566  11.666  15.368  0.00  0.00     0.277 C 
HETATM   29  O   UNK N   1      37.464  10.878  15.107  0.00  0.00    -0.265 OA
HETATM   30  N   UNK N   1      36.068  11.686  16.631  0.00  0.00    -0.233 N 
HETATM   31  H   UNK N   1      36.475  11.100  17.309  0.00  0.00     0.197 HD
BRANCH  30  32
HETATM   32  O   UNK N   1      35.042  12.470  16.989  0.00  0.00    -0.287 OA
HETATM   33  H   UNK N   1      34.508  12.257  17.770  0.00  0.00     0.244 HD
ENDBRANCH  30  32
ENDBRANCH  11  28
TORSDOF 4
ENDMDL
MODEL 9
REMARK VINA RESULT:      -7.7      1.767      2.451
REMARK  4 active torsions:
REMARK  status: ('A' for Active; 'I' for Inactive)
REMARK    1  A    between atoms: C_6  and  S_11 
REMARK    2  A    between atoms: S_11  and  N_14 
REMARK       I    between atoms: N_17  and  C_20 
REMARK    3  A    between atoms: C_24  and  C_28 
REMARK       I    between atoms: C_28  and  N_30 
REMARK    4  A    between atoms: N_30  and  O_31 
ROOT
HETATM    1  N   UNK N   1      32.624  15.134   6.878  0.00  0.00    -0.203 NA
HETATM    2  C   UNK N   1      34.088  15.353   6.982  0.00  0.00     0.128 C 
HETATM    3  C   UNK N   1      34.442  16.258   8.162  0.00  0.00     0.157 C 
HETATM    4  N   UNK N   1      33.897  15.627   9.324  0.00  0.00    -0.215 N 
HETATM    5  C   UNK N   1      32.466  15.429   9.363  0.00  0.00     0.157 C 
HETATM    6  C   UNK N   1      32.042  14.619   8.129  0.00  0.00     0.128 C 
HETATM    7  C   UNK N   1      34.761  14.853  10.134  0.00  0.00     0.679 A 
HETATM    8  N   UNK N   1      36.111  15.000  10.012  0.00  0.00    -0.201 N 
ATOM      9  HN  UNK N   1      36.483  15.745   9.423  1.00  0.00     0.183 HD
HETATM   10  C   UNK N   1      36.966  14.173  10.660  0.00  0.00     0.124 A 
HETATM   11  C   UNK N   1      36.471  13.129  11.444  0.00  0.00     0.066 A 
HETATM   12  C   UNK N   1      35.083  13.014  11.576  0.00  0.00     0.124 A 
HETATM   13  N   UNK N   1      34.258  13.875  10.930  0.00  0.00    -0.201 N 
ATOM     14  HN  UNK N   1      33.248  13.786  11.043  1.00  0.00     0.183 HD
ENDROOT
BRANCH   1  15
HETATM   15  S   UNK N   1      31.729  16.572   6.287  0.00  0.00     0.243 S 
HETATM   16  O   UNK N   1      30.612  15.530   6.501  0.00  0.00    -0.206 OA
HETATM   17  O   UNK N   1      31.746  16.297   4.776  0.00  0.00    -0.206 OA
BRANCH  15  18
HETATM   18  C   UNK N   1      30.185  17.513   6.373  0.00  0.00     0.075 A 
HETATM   19  C   UNK N   1      29.591  17.946   5.171  0.00  0.00     0.037 A 
HETATM   20  C   UNK N   1      28.465  18.744   5.177  0.00  0.00    -0.025 A 
HETATM   21  C   UNK N   1      27.893  19.137   3.967  0.00  0.00     0.012 A 
HETATM   22  C   UNK N   1      27.912  19.163   6.403  0.00  0.00    -0.026 A 
HETATM   23  C   UNK N   1      26.765  19.957   3.967  0.00  0.00     0.001 A 
HETATM   24  C   UNK N   1      26.213  20.385   5.180  0.00  0.00     0.001 A 
HETATM   25  C   UNK N   1      26.784  19.989   6.398  0.00  0.00     0.012 A 
HETATM   26  C   UNK N   1      28.502  18.755   7.610  0.00  0.00     0.014 A 
HETATM   27  C   UNK N   1      29.643  17.933   7.596  0.00  0.00     0.026 A 
ENDBRANCH  15  18
ENDBRANCH   1  15
BRANCH  11  28
HETATM   28  C   UNK N   1      37.414  12.169  12.076  0.00  0.00     0.277 C 
HETATM   29  O   UNK N   1      37.839  11.236  11.412  0.00  0.00    -0.265 OA
HETATM   30  N   UNK N   1      37.795  12.266  13.376  0.00  0.00    -0.233 N 
HETATM   31  H   UNK N   1      38.438  11.611  13.730  0.00  0.00     0.197 HD
BRANCH  30  32
HETATM   32  O   UNK N   1      37.329  13.219  14.195  0.00  0.00    -0.287 OA
HETATM   33  H   UNK N   1      37.940  13.817  14.653  0.00  0.00     0.244 HD
ENDBRANCH  30  32
ENDBRANCH  11  28
TORSDOF 4
ENDMDL
