REMARK  2 active torsions:
REMARK  status: ('A' for Active; 'I' for Inactive)
REMARK    1  A    between atoms: C_6  and  O_8 
REMARK    2  A    between atoms: O_8  and  C_9 
ROOT
HETATM    1  C   UNK N   1       6.717   0.294  -0.138  0.00  0.00     0.048 C 
HETATM    2  C   UNK N   1       5.233   0.358  -0.089  0.00  0.00    -0.057 A 
HETATM    3  C   UNK N   1       4.484  -0.816  -0.117  0.00  0.00     0.044 A 
HETATM    4  C   UNK N   1       3.090  -0.766  -0.058  0.00  0.00     0.084 A 
HETATM    5  C   UNK N   1       2.427   0.470   0.037  0.00  0.00     0.038 A 
HETATM    6  C   UNK N   1       3.190   1.670   0.043  0.00  0.00     0.093 A 
HETATM    7  C   UNK N   1       4.591   1.592  -0.017  0.00  0.00     0.045 A 
HETATM    8  C   UNK N   1       0.939   0.461   0.118  0.00  0.00    -0.037 A 
HETATM    9  C   UNK N   1       0.265  -0.719   0.078  0.00  0.00    -0.039 A 
HETATM   10  C   UNK N   1      -1.258  -0.762   0.137  0.00  0.00     0.038 C 
HETATM   11  C   UNK N   1      -1.953   0.590   0.328  0.00  0.00     0.009 C 
HETATM   12  C   UNK N   1      -1.187   1.692  -0.374  0.00  0.00    -0.014 C 
HETATM   13  C   UNK N   1       0.179   1.757   0.266  0.00  0.00     0.044 C 
HETATM   14  C   UNK N   1      -1.885   3.019  -0.168  0.00  0.00     0.010 C 
HETATM   15  C   UNK N   1       1.009  -2.044  -0.049  0.00  0.00     0.084 A 
HETATM   16  O   UNK N   1       2.391  -1.925  -0.097  0.00  0.00    -0.335 OA
HETATM   17  C   UNK N   1       0.554  -2.749  -1.316  0.00  0.00     0.051 C 
HETATM   18  C   UNK N   1       0.661  -2.924   1.138  0.00  0.00     0.051 C 
ENDROOT
BRANCH   6  19
HETATM   19  O   UNK N   1       2.550   2.871   0.095  0.00  0.00    -0.278 OA
BRANCH  19  20
HETATM   20  C   UNK N   1       3.077   4.123   0.051  0.00  0.00     0.260 C 
HETATM   21  O   UNK N   1       4.280   4.311  -0.015  0.00  0.00    -0.265 OA
HETATM   22  C   UNK N   1       2.152   5.291   0.067  0.00  0.00     0.126 C 
ENDBRANCH  19  20
ENDBRANCH   6  19
TORSDOF 2
