MODEL 1
REMARK VINA RESULT:      -6.5      0.000      0.000
REMARK  17 active torsions:
REMARK  status: ('A' for Active; 'I' for Inactive)
REMARK    1  A    between atoms: C_6  and  C_7 
REMARK    2  A    between atoms: C_7  and  N_8 
REMARK    3  A    between atoms: N_8  and  C_9 
REMARK    4  A    between atoms: C_9  and  C_10 
REMARK    5  A    between atoms: C_10  and  C_11 
REMARK    6  A    between atoms: C_11  and  C_12 
REMARK    7  A    between atoms: C_12  and  C_13 
REMARK    8  A    between atoms: C_13  and  C_14 
REMARK    9  A    between atoms: C_13  and  N_17 
REMARK   10  A    between atoms: C_14  and  O_16 
REMARK       I    between atoms: N_17  and  C_18 
REMARK       I    between atoms: C_18  and  N_20 
REMARK   11  A    between atoms: C_21  and  N_20 
REMARK   12  A    between atoms: C_21  and  C_22 
REMARK   13  A    between atoms: C_21  and  C_27 
REMARK   14  A    between atoms: C_22  and  C_23 
REMARK   15  A    between atoms: C_23  and  C_24 
REMARK   16  A    between atoms: C_24  and  O_26 
REMARK   17  A    between atoms: C_27  and  O_29 
ROOT
HETATM    1  C   UNK N   1      20.177  16.303   7.426  0.00  0.00     0.184 C 
ENDROOT
BRANCH   1   2
HETATM    2  C   UNK N   1      21.347  15.367   7.780  0.00  0.00     0.036 C 
BRANCH   2   3
HETATM    3  C   UNK N   1      20.940  14.013   8.345  0.00  0.00     0.004 C 
BRANCH   3   4
HETATM    4  C   UNK N   1      20.802  14.065   9.858  0.00  0.00     0.019 C 
BRANCH   4   5
HETATM    5  C   UNK N   1      20.939  12.679  10.477  0.00  0.00     0.114 C 
BRANCH   5   6
HETATM    6  N   UNK N   1      22.253  12.542  11.097  0.00  0.00    -0.417 N 
HETATM    7  H   UNK N   1      22.600  13.109  11.871  0.00  0.00     0.153 HD
BRANCH   6   8
HETATM    8  C   UNK N   1      22.996  11.470  10.442  0.00  0.00     0.152 C 
BRANCH   8   9
HETATM    9  C   UNK N   1      23.733  11.979   9.248  0.00  0.00    -0.041 A 
HETATM   10  C   UNK N   1      23.577  11.364   7.999  0.00  0.00     0.010 A 
HETATM   11  C   UNK N   1      24.223  11.890   6.877  0.00  0.00     0.019 A 
HETATM   12  C   UNK N   1      25.025  13.029   7.005  0.00  0.00     0.006 A 
HETATM   13  C   UNK N   1      25.186  13.637   8.253  0.00  0.00     0.019 A 
HETATM   14  I   UNK N   1      25.985  13.836   5.319  0.00  0.00    -0.045 I 
HETATM   15  C   UNK N   1      24.537  13.114   9.373  0.00  0.00     0.010 A 
ENDBRANCH   8   9
ENDBRANCH   6   8
ENDBRANCH   5   6
ENDBRANCH   4   5
ENDBRANCH   3   4
ENDBRANCH   2   3
ENDBRANCH   1   2
BRANCH   1  16
HETATM   16  C   UNK N   1      19.916  17.494   8.307  0.00  0.00     0.163 C 
HETATM   17  O   UNK N   1      19.154  17.380   9.253  0.00  0.00    -0.648 OA
BRANCH  16  18
HETATM   18  O   UNK N   1      20.443  18.698   8.027  0.00  0.00    -0.775 OA
HETATM   19  H   UNK N   1      20.664  19.283   7.329  0.00  0.00     0.167 HD
ENDBRANCH  16  18
ENDBRANCH   1  16
BRANCH   1  20
HETATM   20  N   UNK N   1      20.060  16.666   6.029  0.00  0.00    -0.329 N 
HETATM   21  C   UNK N   1      19.073  16.243   5.192  0.00  0.00     0.317 C 
HETATM   22  O   UNK N   1      18.119  15.613   5.615  0.00  0.00    -0.247 OA
HETATM   23  N   UNK N   1      19.180  16.455   3.863  0.00  0.00    -0.329 N 
HETATM   24  H   UNK N   1      18.438  16.193   3.270  0.00  0.00     0.165 HD
HETATM   25  H   UNK N   1      20.747  17.265   5.656  0.00  0.00     0.165 HD
BRANCH  23  26
HETATM   26  C   UNK N   1      20.360  17.059   3.294  0.00  0.00     0.184 C 
BRANCH  26  27
HETATM   27  C   UNK N   1      20.186  18.568   3.126  0.00  0.00     0.046 C 
BRANCH  27  28
HETATM   28  C   UNK N   1      21.513  19.316   3.085  0.00  0.00     0.112 C 
BRANCH  28  29
HETATM   29  C   UNK N   1      21.448  20.452   2.118  0.00  0.00     0.139 C 
HETATM   30  O   UNK N   1      21.234  20.243   0.935  0.00  0.00    -0.650 OA
BRANCH  29  31
HETATM   31  O   UNK N   1      21.608  21.713   2.557  0.00  0.00    -0.776 OA
HETATM   32  H   UNK N   1      21.235  21.995   3.370  0.00  0.00     0.167 HD
ENDBRANCH  29  31
ENDBRANCH  28  29
ENDBRANCH  27  28
ENDBRANCH  26  27
BRANCH  26  33
HETATM   33  C   UNK N   1      20.730  16.345   2.027  0.00  0.00     0.163 C 
HETATM   34  O   UNK N   1      20.260  16.695   0.955  0.00  0.00    -0.648 OA
BRANCH  33  35
HETATM   35  O   UNK N   1      21.541  15.273   2.082  0.00  0.00    -0.775 OA
HETATM   36  H   UNK N   1      21.931  14.633   2.645  0.00  0.00     0.167 HD
ENDBRANCH  33  35
ENDBRANCH  26  33
ENDBRANCH  23  26
ENDBRANCH   1  20
TORSDOF 17
ENDMDL
MODEL 2
REMARK VINA RESULT:      -6.3     10.418     13.477
REMARK  17 active torsions:
REMARK  status: ('A' for Active; 'I' for Inactive)
REMARK    1  A    between atoms: C_6  and  C_7 
REMARK    2  A    between atoms: C_7  and  N_8 
REMARK    3  A    between atoms: N_8  and  C_9 
REMARK    4  A    between atoms: C_9  and  C_10 
REMARK    5  A    between atoms: C_10  and  C_11 
REMARK    6  A    between atoms: C_11  and  C_12 
REMARK    7  A    between atoms: C_12  and  C_13 
REMARK    8  A    between atoms: C_13  and  C_14 
REMARK    9  A    between atoms: C_13  and  N_17 
REMARK   10  A    between atoms: C_14  and  O_16 
REMARK       I    between atoms: N_17  and  C_18 
REMARK       I    between atoms: C_18  and  N_20 
REMARK   11  A    between atoms: C_21  and  N_20 
REMARK   12  A    between atoms: C_21  and  C_22 
REMARK   13  A    between atoms: C_21  and  C_27 
REMARK   14  A    between atoms: C_22  and  C_23 
REMARK   15  A    between atoms: C_23  and  C_24 
REMARK   16  A    between atoms: C_24  and  O_26 
REMARK   17  A    between atoms: C_27  and  O_29 
ROOT
HETATM    1  C   UNK N   1      34.173  17.112   7.929  0.00  0.00     0.184 C 
ENDROOT
BRANCH   1   2
HETATM    2  C   UNK N   1      32.723  17.466   7.556  0.00  0.00     0.036 C 
BRANCH   2   3
HETATM    3  C   UNK N   1      31.680  17.094   8.602  0.00  0.00     0.004 C 
BRANCH   3   4
HETATM    4  C   UNK N   1      30.646  18.198   8.768  0.00  0.00     0.019 C 
BRANCH   4   5
HETATM    5  C   UNK N   1      29.236  17.681   8.509  0.00  0.00     0.114 C 
BRANCH   5   6
HETATM    6  N   UNK N   1      28.719  18.255   7.270  0.00  0.00    -0.417 N 
HETATM    7  H   UNK N   1      28.609  19.253   7.086  0.00  0.00     0.153 HD
BRANCH   6   8
HETATM    8  C   UNK N   1      28.383  17.186   6.335  0.00  0.00     0.152 C 
BRANCH   8   9
HETATM    9  C   UNK N   1      29.600  16.688   5.630  0.00  0.00    -0.041 A 
HETATM   10  C   UNK N   1      30.000  15.351   5.756  0.00  0.00     0.010 A 
HETATM   11  C   UNK N   1      31.105  14.883   5.039  0.00  0.00     0.019 A 
HETATM   12  C   UNK N   1      31.809  15.751   4.199  0.00  0.00     0.006 A 
HETATM   13  C   UNK N   1      31.414  17.086   4.079  0.00  0.00     0.019 A 
HETATM   14  I   UNK N   1      33.459  15.049   3.104  0.00  0.00    -0.045 I 
HETATM   15  C   UNK N   1      30.308  17.553   4.792  0.00  0.00     0.010 A 
ENDBRANCH   8   9
ENDBRANCH   6   8
ENDBRANCH   5   6
ENDBRANCH   4   5
ENDBRANCH   3   4
ENDBRANCH   2   3
ENDBRANCH   1   2
BRANCH   1  16
HETATM   16  C   UNK N   1      34.925  18.035   8.849  0.00  0.00     0.163 C 
HETATM   17  O   UNK N   1      35.206  19.159   8.466  0.00  0.00    -0.648 OA
BRANCH  16  18
HETATM   18  O   UNK N   1      35.361  17.620  10.051  0.00  0.00    -0.775 OA
HETATM   19  H   UNK N   1      35.448  16.871  10.606  0.00  0.00     0.167 HD
ENDBRANCH  16  18
ENDBRANCH   1  16
BRANCH   1  20
HETATM   20  N   UNK N   1      34.413  15.729   8.287  0.00  0.00    -0.329 N 
HETATM   21  C   UNK N   1      34.999  14.803   7.479  0.00  0.00     0.317 C 
HETATM   22  O   UNK N   1      35.495  15.126   6.413  0.00  0.00    -0.247 OA
HETATM   23  N   UNK N   1      34.971  13.497   7.820  0.00  0.00    -0.329 N 
HETATM   24  H   UNK N   1      35.443  12.841   7.257  0.00  0.00     0.165 HD
HETATM   25  H   UNK N   1      34.130  15.436   9.183  0.00  0.00     0.165 HD
BRANCH  23  26
HETATM   26  C   UNK N   1      34.265  13.045   8.993  0.00  0.00     0.184 C 
BRANCH  26  27
HETATM   27  C   UNK N   1      35.229  12.523  10.057  0.00  0.00     0.046 C 
BRANCH  27  28
HETATM   28  C   UNK N   1      34.903  13.035  11.454  0.00  0.00     0.112 C 
BRANCH  28  29
HETATM   29  C   UNK N   1      34.799  14.524  11.458  0.00  0.00     0.139 C 
HETATM   30  O   UNK N   1      35.793  15.211  11.627  0.00  0.00    -0.650 OA
BRANCH  29  31
HETATM   31  O   UNK N   1      33.606  15.112  11.256  0.00  0.00    -0.776 OA
HETATM   32  H   UNK N   1      32.817  14.737  11.597  0.00  0.00     0.167 HD
ENDBRANCH  29  31
ENDBRANCH  28  29
ENDBRANCH  27  28
ENDBRANCH  26  27
BRANCH  26  33
HETATM   33  C   UNK N   1      33.208  12.057   8.594  0.00  0.00     0.163 C 
HETATM   34  O   UNK N   1      33.062  11.739   7.424  0.00  0.00    -0.648 OA
BRANCH  33  35
HETATM   35  O   UNK N   1      32.376  11.562   9.529  0.00  0.00    -0.775 OA
HETATM   36  H   UNK N   1      31.901  11.754  10.313  0.00  0.00     0.167 HD
ENDBRANCH  33  35
ENDBRANCH  26  33
ENDBRANCH  23  26
ENDBRANCH   1  20
TORSDOF 17
ENDMDL
MODEL 3
REMARK VINA RESULT:      -6.3      2.251      3.368
REMARK  17 active torsions:
REMARK  status: ('A' for Active; 'I' for Inactive)
REMARK    1  A    between atoms: C_6  and  C_7 
REMARK    2  A    between atoms: C_7  and  N_8 
REMARK    3  A    between atoms: N_8  and  C_9 
REMARK    4  A    between atoms: C_9  and  C_10 
REMARK    5  A    between atoms: C_10  and  C_11 
REMARK    6  A    between atoms: C_11  and  C_12 
REMARK    7  A    between atoms: C_12  and  C_13 
REMARK    8  A    between atoms: C_13  and  C_14 
REMARK    9  A    between atoms: C_13  and  N_17 
REMARK   10  A    between atoms: C_14  and  O_16 
REMARK       I    between atoms: N_17  and  C_18 
REMARK       I    between atoms: C_18  and  N_20 
REMARK   11  A    between atoms: C_21  and  N_20 
REMARK   12  A    between atoms: C_21  and  C_22 
REMARK   13  A    between atoms: C_21  and  C_27 
REMARK   14  A    between atoms: C_22  and  C_23 
REMARK   15  A    between atoms: C_23  and  C_24 
REMARK   16  A    between atoms: C_24  and  O_26 
REMARK   17  A    between atoms: C_27  and  O_29 
ROOT
HETATM    1  C   UNK N   1      20.987  16.232   6.308  0.00  0.00     0.184 C 
ENDROOT
BRANCH   1   2
HETATM    2  C   UNK N   1      22.251  15.355   6.311  0.00  0.00     0.036 C 
BRANCH   2   3
HETATM    3  C   UNK N   1      22.673  14.829   4.945  0.00  0.00     0.004 C 
BRANCH   3   4
HETATM    4  C   UNK N   1      24.008  15.416   4.516  0.00  0.00     0.019 C 
BRANCH   4   5
HETATM    5  C   UNK N   1      24.861  14.384   3.787  0.00  0.00     0.114 C 
BRANCH   5   6
HETATM    6  N   UNK N   1      24.865  13.130   4.535  0.00  0.00    -0.417 N 
HETATM    7  H   UNK N   1      24.316  12.303   4.298  0.00  0.00     0.153 HD
BRANCH   6   8
HETATM    8  C   UNK N   1      25.773  13.238   5.672  0.00  0.00     0.152 C 
BRANCH   8   9
HETATM    9  C   UNK N   1      25.070  12.929   6.952  0.00  0.00    -0.041 A 
HETATM   10  C   UNK N   1      25.279  13.720   8.090  0.00  0.00     0.010 A 
HETATM   11  C   UNK N   1      24.567  13.456   9.262  0.00  0.00     0.019 A 
HETATM   12  C   UNK N   1      23.647  12.403   9.297  0.00  0.00     0.006 A 
HETATM   13  C   UNK N   1      23.444  11.610   8.165  0.00  0.00     0.019 A 
HETATM   14  I   UNK N   1      22.558  12.014  11.052  0.00  0.00    -0.045 I 
HETATM   15  C   UNK N   1      24.154  11.876   6.992  0.00  0.00     0.010 A 
ENDBRANCH   8   9
ENDBRANCH   6   8
ENDBRANCH   5   6
ENDBRANCH   4   5
ENDBRANCH   3   4
ENDBRANCH   2   3
ENDBRANCH   1   2
BRANCH   1  16
HETATM   16  C   UNK N   1      20.869  17.328   7.331  0.00  0.00     0.163 C 
HETATM   17  O   UNK N   1      21.116  18.477   7.005  0.00  0.00    -0.648 OA
BRANCH  16  18
HETATM   18  O   UNK N   1      20.573  17.057   8.615  0.00  0.00    -0.775 OA
HETATM   19  H   UNK N   1      20.916  17.060   9.486  0.00  0.00     0.167 HD
ENDBRANCH  16  18
ENDBRANCH   1  16
BRANCH   1  20
HETATM   20  N   UNK N   1      20.545  16.698   5.009  0.00  0.00    -0.329 N 
HETATM   21  C   UNK N   1      19.528  16.150   4.287  0.00  0.00     0.317 C 
HETATM   22  O   UNK N   1      18.815  15.285   4.766  0.00  0.00    -0.247 OA
HETATM   23  N   UNK N   1      19.346  16.512   3.000  0.00  0.00    -0.329 N 
HETATM   24  H   UNK N   1      18.577  16.152   2.501  0.00  0.00     0.165 HD
HETATM   25  H   UNK N   1      21.017  17.468   4.617  0.00  0.00     0.165 HD
BRANCH  23  26
HETATM   26  C   UNK N   1      20.255  17.417   2.340  0.00  0.00     0.184 C 
BRANCH  26  27
HETATM   27  C   UNK N   1      19.791  18.867   2.472  0.00  0.00     0.046 C 
BRANCH  27  28
HETATM   28  C   UNK N   1      20.809  19.752   3.180  0.00  0.00     0.112 C 
BRANCH  28  29
HETATM   29  C   UNK N   1      21.440  20.701   2.216  0.00  0.00     0.139 C 
HETATM   30  O   UNK N   1      21.406  20.476   1.017  0.00  0.00    -0.650 OA
BRANCH  29  31
HETATM   31  O   UNK N   1      22.034  21.819   2.670  0.00  0.00    -0.776 OA
HETATM   32  H   UNK N   1      22.298  21.898   3.566  0.00  0.00     0.167 HD
ENDBRANCH  29  31
ENDBRANCH  28  29
ENDBRANCH  27  28
ENDBRANCH  26  27
BRANCH  26  33
HETATM   33  C   UNK N   1      20.465  16.974   0.922  0.00  0.00     0.163 C 
HETATM   34  O   UNK N   1      20.837  15.837   0.673  0.00  0.00    -0.648 OA
BRANCH  33  35
HETATM   35  O   UNK N   1      20.299  17.856  -0.081  0.00  0.00    -0.775 OA
HETATM   36  H   UNK N   1      19.696  18.198  -0.711  0.00  0.00     0.167 HD
ENDBRANCH  33  35
ENDBRANCH  26  33
ENDBRANCH  23  26
ENDBRANCH   1  20
TORSDOF 17
ENDMDL
MODEL 4
REMARK VINA RESULT:      -6.3      8.394     11.217
REMARK  17 active torsions:
REMARK  status: ('A' for Active; 'I' for Inactive)
REMARK    1  A    between atoms: C_6  and  C_7 
REMARK    2  A    between atoms: C_7  and  N_8 
REMARK    3  A    between atoms: N_8  and  C_9 
REMARK    4  A    between atoms: C_9  and  C_10 
REMARK    5  A    between atoms: C_10  and  C_11 
REMARK    6  A    between atoms: C_11  and  C_12 
REMARK    7  A    between atoms: C_12  and  C_13 
REMARK    8  A    between atoms: C_13  and  C_14 
REMARK    9  A    between atoms: C_13  and  N_17 
REMARK   10  A    between atoms: C_14  and  O_16 
REMARK       I    between atoms: N_17  and  C_18 
REMARK       I    between atoms: C_18  and  N_20 
REMARK   11  A    between atoms: C_21  and  N_20 
REMARK   12  A    between atoms: C_21  and  C_22 
REMARK   13  A    between atoms: C_21  and  C_27 
REMARK   14  A    between atoms: C_22  and  C_23 
REMARK   15  A    between atoms: C_23  and  C_24 
REMARK   16  A    between atoms: C_24  and  O_26 
REMARK   17  A    between atoms: C_27  and  O_29 
ROOT
HETATM    1  C   UNK N   1      28.835  17.982   7.253  0.00  0.00     0.184 C 
ENDROOT
BRANCH   1   2
HETATM    2  C   UNK N   1      28.540  17.862   5.747  0.00  0.00     0.036 C 
BRANCH   2   3
HETATM    3  C   UNK N   1      28.408  19.188   5.009  0.00  0.00     0.004 C 
BRANCH   3   4
HETATM    4  C   UNK N   1      27.589  20.187   5.812  0.00  0.00     0.019 C 
BRANCH   4   5
HETATM    5  C   UNK N   1      26.219  20.413   5.184  0.00  0.00     0.114 C 
BRANCH   5   6
HETATM    6  N   UNK N   1      25.284  19.397   5.658  0.00  0.00    -0.417 N 
HETATM    7  H   UNK N   1      25.095  19.184   6.638  0.00  0.00     0.153 HD
BRANCH   6   8
HETATM    8  C   UNK N   1      24.660  18.732   4.518  0.00  0.00     0.152 C 
BRANCH   8   9
HETATM    9  C   UNK N   1      25.250  17.380   4.296  0.00  0.00    -0.041 A 
HETATM   10  C   UNK N   1      25.118  16.376   5.265  0.00  0.00     0.010 A 
HETATM   11  C   UNK N   1      25.621  15.096   5.015  0.00  0.00     0.019 A 
HETATM   12  C   UNK N   1      26.255  14.821   3.800  0.00  0.00     0.006 A 
HETATM   13  C   UNK N   1      26.392  15.824   2.837  0.00  0.00     0.019 A 
HETATM   14  I   UNK N   1      26.996  12.893   3.411  0.00  0.00    -0.045 I 
HETATM   15  C   UNK N   1      25.887  17.102   3.084  0.00  0.00     0.010 A 
ENDBRANCH   8   9
ENDBRANCH   6   8
ENDBRANCH   5   6
ENDBRANCH   4   5
ENDBRANCH   3   4
ENDBRANCH   2   3
ENDBRANCH   1   2
BRANCH   1  16
HETATM   16  C   UNK N   1      27.810  17.476   8.230  0.00  0.00     0.163 C 
HETATM   17  O   UNK N   1      27.261  16.408   8.017  0.00  0.00    -0.648 OA
BRANCH  16  18
HETATM   18  O   UNK N   1      27.431  18.212   9.289  0.00  0.00    -0.775 OA
HETATM   19  H   UNK N   1      27.636  18.417  10.180  0.00  0.00     0.167 HD
ENDBRANCH  16  18
ENDBRANCH   1  16
BRANCH   1  20
HETATM   20  N   UNK N   1      30.169  17.597   7.667  0.00  0.00    -0.329 N 
HETATM   21  C   UNK N   1      30.840  18.123   8.729  0.00  0.00     0.317 C 
HETATM   22  O   UNK N   1      30.288  18.886   9.503  0.00  0.00    -0.247 OA
HETATM   23  N   UNK N   1      32.153  17.859   8.893  0.00  0.00    -0.329 N 
HETATM   24  H   UNK N   1      32.618  18.200   9.692  0.00  0.00     0.165 HD
HETATM   25  H   UNK N   1      30.625  16.901   7.141  0.00  0.00     0.165 HD
BRANCH  23  26
HETATM   26  C   UNK N   1      32.889  17.087   7.922  0.00  0.00     0.184 C 
BRANCH  26  27
HETATM   27  C   UNK N   1      33.230  15.698   8.459  0.00  0.00     0.046 C 
BRANCH  27  28
HETATM   28  C   UNK N   1      34.607  15.636   9.109  0.00  0.00     0.112 C 
BRANCH  28  29
HETATM   29  C   UNK N   1      34.491  15.725  10.595  0.00  0.00     0.139 C 
HETATM   30  O   UNK N   1      35.234  16.458  11.228  0.00  0.00    -0.650 OA
BRANCH  29  31
HETATM   31  O   UNK N   1      33.553  15.006  11.236  0.00  0.00    -0.776 OA
HETATM   32  H   UNK N   1      32.644  15.099  11.027  0.00  0.00     0.167 HD
ENDBRANCH  29  31
ENDBRANCH  28  29
ENDBRANCH  27  28
ENDBRANCH  26  27
BRANCH  26  33
HETATM   33  C   UNK N   1      34.083  17.869   7.458  0.00  0.00     0.163 C 
HETATM   34  O   UNK N   1      34.595  17.638   6.374  0.00  0.00    -0.648 OA
BRANCH  33  35
HETATM   35  O   UNK N   1      34.628  18.793   8.270  0.00  0.00    -0.775 OA
HETATM   36  H   UNK N   1      35.226  19.512   8.322  0.00  0.00     0.167 HD
ENDBRANCH  33  35
ENDBRANCH  26  33
ENDBRANCH  23  26
ENDBRANCH   1  20
TORSDOF 17
ENDMDL
MODEL 5
REMARK VINA RESULT:      -6.2      3.071      4.626
REMARK  17 active torsions:
REMARK  status: ('A' for Active; 'I' for Inactive)
REMARK    1  A    between atoms: C_6  and  C_7 
REMARK    2  A    between atoms: C_7  and  N_8 
REMARK    3  A    between atoms: N_8  and  C_9 
REMARK    4  A    between atoms: C_9  and  C_10 
REMARK    5  A    between atoms: C_10  and  C_11 
REMARK    6  A    between atoms: C_11  and  C_12 
REMARK    7  A    between atoms: C_12  and  C_13 
REMARK    8  A    between atoms: C_13  and  C_14 
REMARK    9  A    between atoms: C_13  and  N_17 
REMARK   10  A    between atoms: C_14  and  O_16 
REMARK       I    between atoms: N_17  and  C_18 
REMARK       I    between atoms: C_18  and  N_20 
REMARK   11  A    between atoms: C_21  and  N_20 
REMARK   12  A    between atoms: C_21  and  C_22 
REMARK   13  A    between atoms: C_21  and  C_27 
REMARK   14  A    between atoms: C_22  and  C_23 
REMARK   15  A    between atoms: C_23  and  C_24 
REMARK   16  A    between atoms: C_24  and  O_26 
REMARK   17  A    between atoms: C_27  and  O_29 
ROOT
HETATM    1  C   UNK N   1      21.248  16.131   6.618  0.00  0.00     0.184 C 
ENDROOT
BRANCH   1   2
HETATM    2  C   UNK N   1      22.677  15.559   6.619  0.00  0.00     0.036 C 
BRANCH   2   3
HETATM    3  C   UNK N   1      22.792  14.114   6.152  0.00  0.00     0.004 C 
BRANCH   3   4
HETATM    4  C   UNK N   1      23.719  13.994   4.952  0.00  0.00     0.019 C 
BRANCH   4   5
HETATM    5  C   UNK N   1      22.967  14.208   3.645  0.00  0.00     0.114 C 
BRANCH   5   6
HETATM    6  N   UNK N   1      23.331  15.501   3.072  0.00  0.00    -0.417 N 
HETATM    7  H   UNK N   1      22.669  16.221   2.779  0.00  0.00     0.153 HD
BRANCH   6   8
HETATM    8  C   UNK N   1      24.783  15.608   2.980  0.00  0.00     0.152 C 
BRANCH   8   9
HETATM    9  C   UNK N   1      25.280  16.814   3.705  0.00  0.00    -0.041 A 
HETATM   10  C   UNK N   1      26.648  16.979   3.961  0.00  0.00     0.010 A 
HETATM   11  C   UNK N   1      27.104  18.143   4.584  0.00  0.00     0.019 A 
HETATM   12  C   UNK N   1      26.195  19.140   4.951  0.00  0.00     0.006 A 
HETATM   13  C   UNK N   1      24.831  18.972   4.701  0.00  0.00     0.019 A 
HETATM   14  I   UNK N   1      26.878  20.901   5.871  0.00  0.00    -0.045 I 
HETATM   15  C   UNK N   1      24.374  17.810   4.075  0.00  0.00     0.010 A 
ENDBRANCH   8   9
ENDBRANCH   6   8
ENDBRANCH   5   6
ENDBRANCH   4   5
ENDBRANCH   3   4
ENDBRANCH   2   3
ENDBRANCH   1   2
BRANCH   1  16
HETATM   16  C   UNK N   1      20.895  17.186   7.630  0.00  0.00     0.163 C 
HETATM   17  O   UNK N   1      20.503  16.847   8.734  0.00  0.00    -0.648 OA
BRANCH  16  18
HETATM   18  O   UNK N   1      20.927  18.493   7.316  0.00  0.00    -0.775 OA
HETATM   19  H   UNK N   1      21.073  19.351   7.663  0.00  0.00     0.167 HD
ENDBRANCH  16  18
ENDBRANCH   1  16
BRANCH   1  20
HETATM   20  N   UNK N   1      20.704  16.467   5.319  0.00  0.00    -0.329 N 
HETATM   21  C   UNK N   1      19.446  16.161   4.895  0.00  0.00     0.317 C 
HETATM   22  O   UNK N   1      18.627  15.681   5.659  0.00  0.00    -0.247 OA
HETATM   23  N   UNK N   1      19.117  16.319   3.595  0.00  0.00    -0.329 N 
HETATM   24  H   UNK N   1      18.191  16.145   3.307  0.00  0.00     0.165 HD
HETATM   25  H   UNK N   1      21.288  16.955   4.694  0.00  0.00     0.165 HD
BRANCH  23  26
HETATM   26  C   UNK N   1      20.093  16.738   2.621  0.00  0.00     0.184 C 
BRANCH  26  27
HETATM   27  C   UNK N   1      19.846  18.176   2.168  0.00  0.00     0.046 C 
BRANCH  27  28
HETATM   28  C   UNK N   1      21.033  19.093   2.437  0.00  0.00     0.112 C 
BRANCH  28  29
HETATM   29  C   UNK N   1      20.838  19.845   3.712  0.00  0.00     0.139 C 
HETATM   30  O   UNK N   1      21.219  19.373   4.771  0.00  0.00    -0.650 OA
BRANCH  29  31
HETATM   31  O   UNK N   1      20.256  21.057   3.691  0.00  0.00    -0.776 OA
HETATM   32  H   UNK N   1      20.768  21.842   3.719  0.00  0.00     0.167 HD
ENDBRANCH  29  31
ENDBRANCH  28  29
ENDBRANCH  27  28
ENDBRANCH  26  27
BRANCH  26  33
HETATM   33  C   UNK N   1      20.139  15.746   1.495  0.00  0.00     0.163 C 
HETATM   34  O   UNK N   1      21.135  15.641   0.798  0.00  0.00    -0.648 OA
BRANCH  33  35
HETATM   35  O   UNK N   1      19.048  15.008   1.216  0.00  0.00    -0.775 OA
HETATM   36  H   UNK N   1      18.708  14.305   0.699  0.00  0.00     0.167 HD
ENDBRANCH  33  35
ENDBRANCH  26  33
ENDBRANCH  23  26
ENDBRANCH   1  20
TORSDOF 17
ENDMDL
MODEL 6
REMARK VINA RESULT:      -6.2      3.314      4.981
REMARK  17 active torsions:
REMARK  status: ('A' for Active; 'I' for Inactive)
REMARK    1  A    between atoms: C_6  and  C_7 
REMARK    2  A    between atoms: C_7  and  N_8 
REMARK    3  A    between atoms: N_8  and  C_9 
REMARK    4  A    between atoms: C_9  and  C_10 
REMARK    5  A    between atoms: C_10  and  C_11 
REMARK    6  A    between atoms: C_11  and  C_12 
REMARK    7  A    between atoms: C_12  and  C_13 
REMARK    8  A    between atoms: C_13  and  C_14 
REMARK    9  A    between atoms: C_13  and  N_17 
REMARK   10  A    between atoms: C_14  and  O_16 
REMARK       I    between atoms: N_17  and  C_18 
REMARK       I    between atoms: C_18  and  N_20 
REMARK   11  A    between atoms: C_21  and  N_20 
REMARK   12  A    between atoms: C_21  and  C_22 
REMARK   13  A    between atoms: C_21  and  C_27 
REMARK   14  A    between atoms: C_22  and  C_23 
REMARK   15  A    between atoms: C_23  and  C_24 
REMARK   16  A    between atoms: C_24  and  O_26 
REMARK   17  A    between atoms: C_27  and  O_29 
ROOT
HETATM    1  C   UNK N   1      20.861  16.451   6.638  0.00  0.00     0.184 C 
ENDROOT
BRANCH   1   2
HETATM    2  C   UNK N   1      22.175  15.660   6.765  0.00  0.00     0.036 C 
BRANCH   2   3
HETATM    3  C   UNK N   1      22.726  15.114   5.453  0.00  0.00     0.004 C 
BRANCH   3   4
HETATM    4  C   UNK N   1      23.981  15.862   5.028  0.00  0.00     0.019 C 
BRANCH   4   5
HETATM    5  C   UNK N   1      23.816  16.483   3.646  0.00  0.00     0.114 C 
BRANCH   5   6
HETATM    6  N   UNK N   1      23.568  15.435   2.660  0.00  0.00    -0.417 N 
HETATM    7  H   UNK N   1      22.657  15.213   2.255  0.00  0.00     0.153 HD
BRANCH   6   8
HETATM    8  C   UNK N   1      24.818  14.753   2.341  0.00  0.00     0.152 C 
BRANCH   8   9
HETATM    9  C   UNK N   1      24.570  13.540   1.508  0.00  0.00    -0.041 A 
HETATM   10  C   UNK N   1      25.213  12.330   1.801  0.00  0.00     0.010 A 
HETATM   11  C   UNK N   1      24.923  11.188   1.051  0.00  0.00     0.019 A 
HETATM   12  C   UNK N   1      23.993  11.255   0.009  0.00  0.00     0.006 A 
HETATM   13  C   UNK N   1      23.358  12.464  -0.288  0.00  0.00     0.019 A 
HETATM   14  I   UNK N   1      23.539   9.535  -1.111  0.00  0.00    -0.045 I 
HETATM   15  C   UNK N   1      23.645  13.605   0.463  0.00  0.00     0.010 A 
ENDBRANCH   8   9
ENDBRANCH   6   8
ENDBRANCH   5   6
ENDBRANCH   4   5
ENDBRANCH   3   4
ENDBRANCH   2   3
ENDBRANCH   1   2
BRANCH   1  16
HETATM   16  C   UNK N   1      20.643  17.632   7.543  0.00  0.00     0.163 C 
HETATM   17  O   UNK N   1      20.865  18.755   7.121  0.00  0.00    -0.648 OA
BRANCH  16  18
HETATM   18  O   UNK N   1      20.284  17.471   8.829  0.00  0.00    -0.775 OA
HETATM   19  H   UNK N   1      19.550  17.366   9.401  0.00  0.00     0.167 HD
ENDBRANCH  16  18
ENDBRANCH   1  16
BRANCH   1  20
HETATM   20  N   UNK N   1      20.437  16.758   5.287  0.00  0.00    -0.329 N 
HETATM   21  C   UNK N   1      19.418  16.138   4.629  0.00  0.00     0.317 C 
HETATM   22  O   UNK N   1      18.690  15.347   5.203  0.00  0.00    -0.247 OA
HETATM   23  N   UNK N   1      19.252  16.340   3.305  0.00  0.00    -0.329 N 
HETATM   24  H   UNK N   1      18.482  15.930   2.847  0.00  0.00     0.165 HD
HETATM   25  H   UNK N   1      20.922  17.468   4.809  0.00  0.00     0.165 HD
BRANCH  23  26
HETATM   26  C   UNK N   1      20.178  17.145   2.548  0.00  0.00     0.184 C 
BRANCH  26  27
HETATM   27  C   UNK N   1      19.820  18.628   2.628  0.00  0.00     0.046 C 
BRANCH  27  28
HETATM   28  C   UNK N   1      21.025  19.539   2.426  0.00  0.00     0.112 C 
BRANCH  28  29
HETATM   29  C   UNK N   1      20.825  20.420   1.237  0.00  0.00     0.139 C 
HETATM   30  O   UNK N   1      20.825  21.634   1.362  0.00  0.00    -0.650 OA
BRANCH  29  31
HETATM   31  O   UNK N   1      20.660  19.873   0.020  0.00  0.00    -0.776 OA
HETATM   32  H   UNK N   1      20.405  18.976  -0.078  0.00  0.00     0.167 HD
ENDBRANCH  29  31
ENDBRANCH  28  29
ENDBRANCH  27  28
ENDBRANCH  26  27
BRANCH  26  33
HETATM   33  C   UNK N   1      20.273  16.618   1.145  0.00  0.00     0.163 C 
HETATM   34  O   UNK N   1      21.048  15.715   0.871  0.00  0.00    -0.648 OA
BRANCH  33  35
HETATM   35  O   UNK N   1      19.540  17.188   0.171  0.00  0.00    -0.775 OA
HETATM   36  H   UNK N   1      19.571  17.685  -0.622  0.00  0.00     0.167 HD
ENDBRANCH  33  35
ENDBRANCH  26  33
ENDBRANCH  23  26
ENDBRANCH   1  20
TORSDOF 17
ENDMDL
MODEL 7
REMARK VINA RESULT:      -6.2      4.800      6.935
REMARK  17 active torsions:
REMARK  status: ('A' for Active; 'I' for Inactive)
REMARK    1  A    between atoms: C_6  and  C_7 
REMARK    2  A    between atoms: C_7  and  N_8 
REMARK    3  A    between atoms: N_8  and  C_9 
REMARK    4  A    between atoms: C_9  and  C_10 
REMARK    5  A    between atoms: C_10  and  C_11 
REMARK    6  A    between atoms: C_11  and  C_12 
REMARK    7  A    between atoms: C_12  and  C_13 
REMARK    8  A    between atoms: C_13  and  C_14 
REMARK    9  A    between atoms: C_13  and  N_17 
REMARK   10  A    between atoms: C_14  and  O_16 
REMARK       I    between atoms: N_17  and  C_18 
REMARK       I    between atoms: C_18  and  N_20 
REMARK   11  A    between atoms: C_21  and  N_20 
REMARK   12  A    between atoms: C_21  and  C_22 
REMARK   13  A    between atoms: C_21  and  C_27 
REMARK   14  A    between atoms: C_22  and  C_23 
REMARK   15  A    between atoms: C_23  and  C_24 
REMARK   16  A    between atoms: C_24  and  O_26 
REMARK   17  A    between atoms: C_27  and  O_29 
ROOT
HETATM    1  C   UNK N   1      23.971  19.538   3.746  0.00  0.00     0.184 C 
ENDROOT
BRANCH   1   2
HETATM    2  C   UNK N   1      25.323  18.929   4.160  0.00  0.00     0.036 C 
BRANCH   2   3
HETATM    3  C   UNK N   1      26.419  19.943   4.462  0.00  0.00     0.004 C 
BRANCH   3   4
HETATM    4  C   UNK N   1      26.276  20.509   5.866  0.00  0.00     0.019 C 
BRANCH   4   5
HETATM    5  C   UNK N   1      27.478  20.154   6.734  0.00  0.00     0.114 C 
BRANCH   5   6
HETATM    6  N   UNK N   1      27.431  18.738   7.087  0.00  0.00    -0.417 N 
HETATM    7  H   UNK N   1      26.918  18.021   6.573  0.00  0.00     0.153 HD
BRANCH   6   8
HETATM    8  C   UNK N   1      28.231  18.504   8.284  0.00  0.00     0.152 C 
BRANCH   8   9
HETATM    9  C   UNK N   1      29.615  18.071   7.931  0.00  0.00    -0.041 A 
HETATM   10  C   UNK N   1      30.679  18.295   8.814  0.00  0.00     0.010 A 
HETATM   11  C   UNK N   1      31.957  17.828   8.497  0.00  0.00     0.019 A 
HETATM   12  C   UNK N   1      32.171  17.140   7.298  0.00  0.00     0.006 A 
HETATM   13  C   UNK N   1      31.110  16.924   6.415  0.00  0.00     0.019 A 
HETATM   14  I   UNK N   1      34.087  16.419   6.825  0.00  0.00    -0.045 I 
HETATM   15  C   UNK N   1      29.832  17.387   6.733  0.00  0.00     0.010 A 
ENDBRANCH   8   9
ENDBRANCH   6   8
ENDBRANCH   5   6
ENDBRANCH   4   5
ENDBRANCH   3   4
ENDBRANCH   2   3
ENDBRANCH   1   2
BRANCH   1  16
HETATM   16  C   UNK N   1      23.968  20.696   2.786  0.00  0.00     0.163 C 
HETATM   17  O   UNK N   1      24.823  20.755   1.919  0.00  0.00    -0.648 OA
BRANCH  16  18
HETATM   18  O   UNK N   1      23.090  21.707   2.915  0.00  0.00    -0.775 OA
HETATM   19  H   UNK N   1      22.878  22.463   3.426  0.00  0.00     0.167 HD
ENDBRANCH  16  18
ENDBRANCH   1  16
BRANCH   1  20
HETATM   20  N   UNK N   1      22.931  18.590   3.404  0.00  0.00    -0.329 N 
HETATM   21  C   UNK N   1      21.608  18.744   3.691  0.00  0.00     0.317 C 
HETATM   22  O   UNK N   1      21.186  19.789   4.154  0.00  0.00    -0.247 OA
HETATM   23  N   UNK N   1      20.759  17.706   3.531  0.00  0.00    -0.329 N 
HETATM   24  H   UNK N   1      19.797  17.841   3.690  0.00  0.00     0.165 HD
HETATM   25  H   UNK N   1      23.200  17.771   2.928  0.00  0.00     0.165 HD
BRANCH  23  26
HETATM   26  C   UNK N   1      21.234  16.405   3.131  0.00  0.00     0.184 C 
BRANCH  26  27
HETATM   27  C   UNK N   1      20.140  15.605   2.426  0.00  0.00     0.046 C 
BRANCH  27  28
HETATM   28  C   UNK N   1      20.359  15.500   0.922  0.00  0.00     0.112 C 
BRANCH  28  29
HETATM   29  C   UNK N   1      19.713  16.646   0.216  0.00  0.00     0.139 C 
HETATM   30  O   UNK N   1      20.372  17.622  -0.105  0.00  0.00    -0.650 OA
BRANCH  29  31
HETATM   31  O   UNK N   1      18.403  16.594  -0.084  0.00  0.00    -0.776 OA
HETATM   32  H   UNK N   1      17.886  15.842   0.130  0.00  0.00     0.167 HD
ENDBRANCH  29  31
ENDBRANCH  28  29
ENDBRANCH  27  28
ENDBRANCH  26  27
BRANCH  26  33
HETATM   33  C   UNK N   1      21.834  15.703   4.315  0.00  0.00     0.163 C 
HETATM   34  O   UNK N   1      21.122  15.128   5.123  0.00  0.00    -0.648 OA
BRANCH  33  35
HETATM   35  O   UNK N   1      23.164  15.758   4.516  0.00  0.00    -0.775 OA
HETATM   36  H   UNK N   1      23.874  16.293   4.810  0.00  0.00     0.167 HD
ENDBRANCH  33  35
ENDBRANCH  26  33
ENDBRANCH  23  26
ENDBRANCH   1  20
TORSDOF 17
ENDMDL
MODEL 8
REMARK VINA RESULT:      -6.1     14.899     16.675
REMARK  17 active torsions:
REMARK  status: ('A' for Active; 'I' for Inactive)
REMARK    1  A    between atoms: C_6  and  C_7 
REMARK    2  A    between atoms: C_7  and  N_8 
REMARK    3  A    between atoms: N_8  and  C_9 
REMARK    4  A    between atoms: C_9  and  C_10 
REMARK    5  A    between atoms: C_10  and  C_11 
REMARK    6  A    between atoms: C_11  and  C_12 
REMARK    7  A    between atoms: C_12  and  C_13 
REMARK    8  A    between atoms: C_13  and  C_14 
REMARK    9  A    between atoms: C_13  and  N_17 
REMARK   10  A    between atoms: C_14  and  O_16 
REMARK       I    between atoms: N_17  and  C_18 
REMARK       I    between atoms: C_18  and  N_20 
REMARK   11  A    between atoms: C_21  and  N_20 
REMARK   12  A    between atoms: C_21  and  C_22 
REMARK   13  A    between atoms: C_21  and  C_27 
REMARK   14  A    between atoms: C_22  and  C_23 
REMARK   15  A    between atoms: C_23  and  C_24 
REMARK   16  A    between atoms: C_24  and  O_26 
REMARK   17  A    between atoms: C_27  and  O_29 
ROOT
HETATM    1  C   UNK N   1      29.390  23.078  -3.768  0.00  0.00     0.184 C 
ENDROOT
BRANCH   1   2
HETATM    2  C   UNK N   1      30.056  22.184  -4.831  0.00  0.00     0.036 C 
BRANCH   2   3
HETATM    3  C   UNK N   1      30.840  22.933  -5.900  0.00  0.00     0.004 C 
BRANCH   3   4
HETATM    4  C   UNK N   1      32.330  22.645  -5.795  0.00  0.00     0.019 C 
BRANCH   4   5
HETATM    5  C   UNK N   1      32.606  21.146  -5.783  0.00  0.00     0.114 C 
BRANCH   5   6
HETATM    6  N   UNK N   1      33.125  20.728  -7.081  0.00  0.00    -0.417 N 
HETATM    7  H   UNK N   1      33.899  21.174  -7.576  0.00  0.00     0.153 HD
BRANCH   6   8
HETATM    8  C   UNK N   1      32.371  19.576  -7.565  0.00  0.00     0.152 C 
BRANCH   8   9
HETATM    9  C   UNK N   1      31.005  19.977  -8.011  0.00  0.00    -0.041 A 
HETATM   10  C   UNK N   1      29.867  19.425  -7.408  0.00  0.00     0.010 A 
HETATM   11  C   UNK N   1      28.595  19.857  -7.793  0.00  0.00     0.019 A 
HETATM   12  C   UNK N   1      28.462  20.839  -8.780  0.00  0.00     0.006 A 
HETATM   13  C   UNK N   1      29.596  21.384  -9.386  0.00  0.00     0.019 A 
HETATM   14  I   UNK N   1      26.552  21.507  -9.350  0.00  0.00    -0.045 I 
HETATM   15  C   UNK N   1      30.868  20.955  -8.999  0.00  0.00     0.010 A 
ENDBRANCH   8   9
ENDBRANCH   6   8
ENDBRANCH   5   6
ENDBRANCH   4   5
ENDBRANCH   3   4
ENDBRANCH   2   3
ENDBRANCH   1   2
BRANCH   1  16
HETATM   16  C   UNK N   1      30.252  23.678  -2.691  0.00  0.00     0.163 C 
HETATM   17  O   UNK N   1      30.393  23.080  -1.637  0.00  0.00    -0.648 OA
BRANCH  16  18
HETATM   18  O   UNK N   1      30.806  24.895  -2.837  0.00  0.00    -0.775 OA
HETATM   19  H   UNK N   1      31.538  25.426  -2.594  0.00  0.00     0.167 HD
ENDBRANCH  16  18
ENDBRANCH   1  16
BRANCH   1  20
HETATM   20  N   UNK N   1      28.444  24.054  -4.267  0.00  0.00    -0.329 N 
HETATM   21  C   UNK N   1      27.216  24.297  -3.730  0.00  0.00     0.317 C 
HETATM   22  O   UNK N   1      26.879  23.780  -2.679  0.00  0.00    -0.247 OA
HETATM   23  N   UNK N   1      26.327  25.061  -4.400  0.00  0.00    -0.329 N 
HETATM   24  H   UNK N   1      25.462  25.275  -3.981  0.00  0.00     0.165 HD
HETATM   25  H   UNK N   1      28.708  24.582  -5.055  0.00  0.00     0.165 HD
BRANCH  23  26
HETATM   26  C   UNK N   1      26.621  25.569  -5.717  0.00  0.00     0.184 C 
BRANCH  26  27
HETATM   27  C   UNK N   1      26.371  27.075  -5.801  0.00  0.00     0.046 C 
BRANCH  27  28
HETATM   28  C   UNK N   1      25.207  27.531  -4.931  0.00  0.00     0.112 C 
BRANCH  28  29
HETATM   29  C   UNK N   1      25.706  28.220  -3.704  0.00  0.00     0.139 C 
HETATM   30  O   UNK N   1      25.918  27.585  -2.683  0.00  0.00    -0.650 OA
BRANCH  29  31
HETATM   31  O   UNK N   1      25.939  29.545  -3.729  0.00  0.00    -0.776 OA
HETATM   32  H   UNK N   1      25.961  30.018  -4.538  0.00  0.00     0.167 HD
ENDBRANCH  29  31
ENDBRANCH  28  29
ENDBRANCH  27  28
ENDBRANCH  26  27
BRANCH  26  33
HETATM   33  C   UNK N   1      25.870  24.772  -6.743  0.00  0.00     0.163 C 
HETATM   34  O   UNK N   1      25.155  23.841  -6.408  0.00  0.00    -0.648 OA
BRANCH  33  35
HETATM   35  O   UNK N   1      26.035  25.050  -8.050  0.00  0.00    -0.775 OA
HETATM   36  H   UNK N   1      26.105  24.684  -8.910  0.00  0.00     0.167 HD
ENDBRANCH  33  35
ENDBRANCH  26  33
ENDBRANCH  23  26
ENDBRANCH   1  20
TORSDOF 17
ENDMDL
MODEL 9
REMARK VINA RESULT:      -6.0      4.658      6.086
REMARK  17 active torsions:
REMARK  status: ('A' for Active; 'I' for Inactive)
REMARK    1  A    between atoms: C_6  and  C_7 
REMARK    2  A    between atoms: C_7  and  N_8 
REMARK    3  A    between atoms: N_8  and  C_9 
REMARK    4  A    between atoms: C_9  and  C_10 
REMARK    5  A    between atoms: C_10  and  C_11 
REMARK    6  A    between atoms: C_11  and  C_12 
REMARK    7  A    between atoms: C_12  and  C_13 
REMARK    8  A    between atoms: C_13  and  C_14 
REMARK    9  A    between atoms: C_13  and  N_17 
REMARK   10  A    between atoms: C_14  and  O_16 
REMARK       I    between atoms: N_17  and  C_18 
REMARK       I    between atoms: C_18  and  N_20 
REMARK   11  A    between atoms: C_21  and  N_20 
REMARK   12  A    between atoms: C_21  and  C_22 
REMARK   13  A    between atoms: C_21  and  C_27 
REMARK   14  A    between atoms: C_22  and  C_23 
REMARK   15  A    between atoms: C_23  and  C_24 
REMARK   16  A    between atoms: C_24  and  O_26 
REMARK   17  A    between atoms: C_27  and  O_29 
ROOT
HETATM    1  C   UNK N   1      24.453  18.236   3.981  0.00  0.00     0.184 C 
ENDROOT
BRANCH   1   2
HETATM    2  C   UNK N   1      25.453  17.354   3.211  0.00  0.00     0.036 C 
BRANCH   2   3
HETATM    3  C   UNK N   1      26.688  16.941   4.002  0.00  0.00     0.004 C 
BRANCH   3   4
HETATM    4  C   UNK N   1      26.348  15.886   5.043  0.00  0.00     0.019 C 
BRANCH   4   5
HETATM    5  C   UNK N   1      26.706  16.356   6.448  0.00  0.00     0.114 C 
BRANCH   5   6
HETATM    6  N   UNK N   1      27.164  17.742   6.404  0.00  0.00    -0.417 N 
HETATM    7  H   UNK N   1      26.830  18.451   5.750  0.00  0.00     0.153 HD
BRANCH   6   8
HETATM    8  C   UNK N   1      28.173  17.959   7.435  0.00  0.00     0.152 C 
BRANCH   8   9
HETATM    9  C   UNK N   1      29.521  17.518   6.971  0.00  0.00    -0.041 A 
HETATM   10  C   UNK N   1      30.425  16.929   7.863  0.00  0.00     0.010 A 
HETATM   11  C   UNK N   1      31.659  16.464   7.400  0.00  0.00     0.019 A 
HETATM   12  C   UNK N   1      31.987  16.588   6.047  0.00  0.00     0.006 A 
HETATM   13  C   UNK N   1      31.087  17.183   5.158  0.00  0.00     0.019 A 
HETATM   14  I   UNK N   1      33.833  15.873   5.340  0.00  0.00    -0.045 I 
HETATM   15  C   UNK N   1      29.853  17.645   5.620  0.00  0.00     0.010 A 
ENDBRANCH   8   9
ENDBRANCH   6   8
ENDBRANCH   5   6
ENDBRANCH   4   5
ENDBRANCH   3   4
ENDBRANCH   2   3
ENDBRANCH   1   2
BRANCH   1  16
HETATM   16  C   UNK N   1      24.816  19.672   4.246  0.00  0.00     0.163 C 
HETATM   17  O   UNK N   1      25.609  19.932   5.136  0.00  0.00    -0.648 OA
BRANCH  16  18
HETATM   18  O   UNK N   1      24.226  20.676   3.575  0.00  0.00    -0.775 OA
HETATM   19  H   UNK N   1      23.960  20.963   2.724  0.00  0.00     0.167 HD
ENDBRANCH  16  18
ENDBRANCH   1  16
BRANCH   1  20
HETATM   20  N   UNK N   1      23.069  18.128   3.570  0.00  0.00    -0.329 N 
HETATM   21  C   UNK N   1      22.208  17.153   3.975  0.00  0.00     0.317 C 
HETATM   22  O   UNK N   1      22.525  16.357   4.842  0.00  0.00    -0.247 OA
HETATM   23  N   UNK N   1      21.013  17.013   3.361  0.00  0.00    -0.329 N 
HETATM   24  H   UNK N   1      20.376  16.340   3.694  0.00  0.00     0.165 HD
HETATM   25  H   UNK N   1      22.724  18.810   2.950  0.00  0.00     0.165 HD
BRANCH  23  26
HETATM   26  C   UNK N   1      20.653  17.829   2.229  0.00  0.00     0.184 C 
BRANCH  26  27
HETATM   27  C   UNK N   1      19.626  18.893   2.614  0.00  0.00     0.046 C 
BRANCH  27  28
HETATM   28  C   UNK N   1      20.200  20.305   2.592  0.00  0.00     0.112 C 
BRANCH  28  29
HETATM   29  C   UNK N   1      21.086  20.494   1.406  0.00  0.00     0.139 C 
HETATM   30  O   UNK N   1      22.286  20.659   1.554  0.00  0.00    -0.650 OA
BRANCH  29  31
HETATM   31  O   UNK N   1      20.562  20.464   0.168  0.00  0.00    -0.776 OA
HETATM   32  H   UNK N   1      21.110  20.392  -0.589  0.00  0.00     0.167 HD
ENDBRANCH  29  31
ENDBRANCH  28  29
ENDBRANCH  27  28
ENDBRANCH  26  27
BRANCH  26  33
HETATM   33  C   UNK N   1      20.219  16.950   1.092  0.00  0.00     0.163 C 
HETATM   34  O   UNK N   1      19.923  15.782   1.287  0.00  0.00    -0.648 OA
BRANCH  33  35
HETATM   35  O   UNK N   1      20.214  17.441  -0.161  0.00  0.00    -0.775 OA
HETATM   36  H   UNK N   1      20.528  18.124  -0.719  0.00  0.00     0.167 HD
ENDBRANCH  33  35
ENDBRANCH  26  33
ENDBRANCH  23  26
ENDBRANCH   1  20
TORSDOF 17
ENDMDL
