MODEL 1
REMARK VINA RESULT:      -7.5      0.000      0.000
REMARK  5 active torsions:
REMARK  status: ('A' for Active; 'I' for Inactive)
REMARK    1  A    between atoms: N_5  and  C_17 
REMARK    2  A    between atoms: C_8  and  C_9 
REMARK    3  A    between atoms: C_8  and  C_11 
REMARK    4  A    between atoms: C_9  and  O_10 
REMARK    5  A    between atoms: C_21  and  C_23 
ROOT
HETATM    1  C   UNK N   1      35.599  13.856  12.972  0.00  0.00     0.048 A 
HETATM    2  C   UNK N   1      36.417  14.196  14.062  0.00  0.00     0.032 A 
HETATM    3  C   UNK N   1      36.350  13.435  15.247  0.00  0.00     0.026 A 
HETATM    4  C   UNK N   1      35.556  12.259  15.296  0.00  0.00     0.059 A 
HETATM    5  C   UNK N   1      34.826  11.874  14.157  0.00  0.00     0.070 A 
HETATM    6  C   UNK N   1      34.842  12.692  13.058  0.00  0.00     0.048 A 
HETATM    7  C   UNK N   1      35.530  11.476  16.500  0.00  0.00     0.100 C 
HETATM    8  N   UNK N   1      35.498  10.863  17.482  0.00  0.00    -0.191 NA
ENDROOT
BRANCH   5   9
HETATM    9  C   UNK N   1      34.050  10.586  13.975  0.00  0.00     0.419 C 
HETATM   10  F   UNK N   1      33.615  10.513  12.659  0.00  0.00    -0.166 F 
HETATM   11  F   UNK N   1      32.936  10.612  14.796  0.00  0.00    -0.166 F 
HETATM   12  F   UNK N   1      34.784   9.450  14.239  0.00  0.00    -0.166 F 
ENDBRANCH   5   9
BRANCH   1  13
HETATM   13  N   UNK N   1      35.838  14.285  11.637  0.00  0.00    -0.231 N 
HETATM   14  C   UNK N   1      36.790  13.755  10.864  0.00  0.00     0.333 C 
HETATM   15  N   UNK N   1      36.421  13.724   9.574  0.00  0.00    -0.313 N 
HETATM   16  O   UNK N   1      37.795  13.203  11.289  0.00  0.00    -0.246 OA
HETATM   17  C   UNK N   1      37.158  13.034   8.542  0.00  0.00     0.156 C 
HETATM   18  C   UNK N   1      35.060  14.238   9.421  0.00  0.00     0.167 C 
HETATM   19  C   UNK N   1      34.851  14.739  10.829  0.00  0.00     0.268 C 
HETATM   20  O   UNK N   1      33.808  15.229  11.248  0.00  0.00    -0.269 OA
BRANCH  18  21
HETATM   21  C   UNK N   1      34.102  13.029   9.282  0.00  0.00     0.210 C 
BRANCH  21  22
HETATM   22  O   UNK N   1      32.764  13.404   9.462  0.00  0.00    -0.398 OA
HETATM   23  H   UNK N   1      32.410  13.764  10.290  0.00  0.00     0.209 HD
ENDBRANCH  21  22
ENDBRANCH  18  21
BRANCH  18  24
HETATM   24  C   UNK N   1      34.974  15.155   8.214  0.00  0.00    -0.018 A 
HETATM   25  C   UNK N   1      34.760  16.532   8.425  0.00  0.00     0.010 A 
HETATM   26  C   UNK N   1      34.243  17.344   7.421  0.00  0.00     0.001 A 
HETATM   27  C   UNK N   1      33.885  16.785   6.196  0.00  0.00     0.000 A 
HETATM   28  C   UNK N   1      34.097  15.425   5.960  0.00  0.00     0.001 A 
HETATM   29  C   UNK N   1      34.625  14.613   6.966  0.00  0.00     0.010 A 
ENDBRANCH  18  24
ENDBRANCH   1  13
TORSDOF 5
ENDMDL
MODEL 2
REMARK VINA RESULT:      -7.3      9.395     12.889
REMARK  5 active torsions:
REMARK  status: ('A' for Active; 'I' for Inactive)
REMARK    1  A    between atoms: N_5  and  C_17 
REMARK    2  A    between atoms: C_8  and  C_9 
REMARK    3  A    between atoms: C_8  and  C_11 
REMARK    4  A    between atoms: C_9  and  O_10 
REMARK    5  A    between atoms: C_21  and  C_23 
ROOT
HETATM    1  C   UNK N   1      26.365  19.152   3.964  0.00  0.00     0.048 A 
HETATM    2  C   UNK N   1      26.062  20.299   3.210  0.00  0.00     0.032 A 
HETATM    3  C   UNK N   1      24.722  20.574   2.870  0.00  0.00     0.026 A 
HETATM    4  C   UNK N   1      23.674  19.770   3.390  0.00  0.00     0.059 A 
HETATM    5  C   UNK N   1      23.990  18.687   4.231  0.00  0.00     0.070 A 
HETATM    6  C   UNK N   1      25.309  18.396   4.460  0.00  0.00     0.048 A 
HETATM    7  C   UNK N   1      22.312  20.088   3.062  0.00  0.00     0.100 C 
HETATM    8  N   UNK N   1      21.219  20.339   2.776  0.00  0.00    -0.191 NA
ENDROOT
BRANCH   5   9
HETATM    9  C   UNK N   1      23.009  17.818   4.991  0.00  0.00     0.419 C 
HETATM   10  F   UNK N   1      23.721  16.852   5.688  0.00  0.00    -0.166 F 
HETATM   11  F   UNK N   1      22.183  17.175   4.085  0.00  0.00    -0.166 F 
HETATM   12  F   UNK N   1      22.238  18.509   5.900  0.00  0.00    -0.166 F 
ENDBRANCH   5   9
BRANCH   1  13
HETATM   13  N   UNK N   1      27.583  18.971   4.676  0.00  0.00    -0.231 N 
HETATM   14  C   UNK N   1      27.759  19.393   5.931  0.00  0.00     0.333 C 
HETATM   15  N   UNK N   1      28.562  18.569   6.623  0.00  0.00    -0.313 N 
HETATM   16  O   UNK N   1      27.132  20.309   6.445  0.00  0.00    -0.246 OA
HETATM   17  C   UNK N   1      28.775  18.662   8.048  0.00  0.00     0.156 C 
HETATM   18  C   UNK N   1      28.958  17.429   5.796  0.00  0.00     0.167 C 
HETATM   19  C   UNK N   1      28.391  17.902   4.480  0.00  0.00     0.268 C 
HETATM   20  O   UNK N   1      28.412  17.255   3.438  0.00  0.00    -0.269 OA
BRANCH  18  21
HETATM   21  C   UNK N   1      28.081  16.218   6.196  0.00  0.00     0.210 C 
BRANCH  21  22
HETATM   22  O   UNK N   1      28.064  15.236   5.197  0.00  0.00    -0.398 OA
HETATM   23  H   UNK N   1      27.985  15.431   4.250  0.00  0.00     0.209 HD
ENDBRANCH  21  22
ENDBRANCH  18  21
BRANCH  18  24
HETATM   24  C   UNK N   1      30.435  17.130   5.980  0.00  0.00    -0.018 A 
HETATM   25  C   UNK N   1      31.341  17.562   4.990  0.00  0.00     0.010 A 
HETATM   26  C   UNK N   1      32.594  16.973   4.852  0.00  0.00     0.001 A 
HETATM   27  C   UNK N   1      32.949  15.906   5.675  0.00  0.00     0.000 A 
HETATM   28  C   UNK N   1      32.072  15.467   6.669  0.00  0.00     0.001 A 
HETATM   29  C   UNK N   1      30.819  16.066   6.812  0.00  0.00     0.010 A 
ENDBRANCH  18  24
ENDBRANCH   1  13
TORSDOF 5
ENDMDL
MODEL 3
REMARK VINA RESULT:      -7.2      3.272      7.385
REMARK  5 active torsions:
REMARK  status: ('A' for Active; 'I' for Inactive)
REMARK    1  A    between atoms: N_5  and  C_17 
REMARK    2  A    between atoms: C_8  and  C_9 
REMARK    3  A    between atoms: C_8  and  C_11 
REMARK    4  A    between atoms: C_9  and  O_10 
REMARK    5  A    between atoms: C_21  and  C_23 
ROOT
HETATM    1  C   UNK N   1      34.279  13.934   9.121  0.00  0.00     0.048 A 
HETATM    2  C   UNK N   1      35.348  14.226   8.258  0.00  0.00     0.032 A 
HETATM    3  C   UNK N   1      35.196  15.226   7.276  0.00  0.00     0.026 A 
HETATM    4  C   UNK N   1      34.019  16.019   7.241  0.00  0.00     0.059 A 
HETATM    5  C   UNK N   1      33.002  15.782   8.183  0.00  0.00     0.070 A 
HETATM    6  C   UNK N   1      33.147  14.738   9.059  0.00  0.00     0.048 A 
HETATM    7  C   UNK N   1      33.897  17.058   6.256  0.00  0.00     0.100 C 
HETATM    8  N   UNK N   1      33.800  17.879   5.446  0.00  0.00    -0.191 NA
ENDROOT
BRANCH   5   9
HETATM    9  C   UNK N   1      31.753  16.614   8.392  0.00  0.00     0.419 C 
HETATM   10  F   UNK N   1      31.061  16.108   9.483  0.00  0.00    -0.166 F 
HETATM   11  F   UNK N   1      30.942  16.497   7.276  0.00  0.00    -0.166 F 
HETATM   12  F   UNK N   1      32.004  17.947   8.634  0.00  0.00    -0.166 F 
ENDBRANCH   5   9
BRANCH   1  13
HETATM   13  N   UNK N   1      34.424  13.246  10.358  0.00  0.00    -0.231 N 
HETATM   14  C   UNK N   1      34.603  11.924  10.436  0.00  0.00     0.333 C 
HETATM   15  N   UNK N   1      35.394  11.591  11.468  0.00  0.00    -0.313 N 
HETATM   16  O   UNK N   1      34.246  11.128   9.579  0.00  0.00    -0.246 OA
HETATM   17  C   UNK N   1      35.918  10.264  11.685  0.00  0.00     0.156 C 
HETATM   18  C   UNK N   1      35.859  12.792  12.162  0.00  0.00     0.167 C 
HETATM   19  C   UNK N   1      35.008  13.809  11.442  0.00  0.00     0.268 C 
HETATM   20  O   UNK N   1      35.062  15.020  11.625  0.00  0.00    -0.269 OA
BRANCH  18  21
HETATM   21  C   UNK N   1      37.307  13.084  11.700  0.00  0.00     0.210 C 
BRANCH  21  22
HETATM   22  O   UNK N   1      37.421  14.356  11.123  0.00  0.00    -0.398 OA
HETATM   23  H   UNK N   1      38.132  14.613  10.516  0.00  0.00     0.209 HD
ENDBRANCH  21  22
ENDBRANCH  18  21
BRANCH  18  24
HETATM   24  C   UNK N   1      35.785  12.595  13.667  0.00  0.00    -0.018 A 
HETATM   25  C   UNK N   1      34.585  12.115  14.227  0.00  0.00     0.010 A 
HETATM   26  C   UNK N   1      34.285  12.319  15.571  0.00  0.00     0.001 A 
HETATM   27  C   UNK N   1      35.161  13.050  16.371  0.00  0.00     0.000 A 
HETATM   28  C   UNK N   1      36.360  13.526  15.839  0.00  0.00     0.001 A 
HETATM   29  C   UNK N   1      36.665  13.313  14.494  0.00  0.00     0.010 A 
ENDBRANCH  18  24
ENDBRANCH   1  13
TORSDOF 5
ENDMDL
MODEL 4
REMARK VINA RESULT:      -7.1     21.392     22.928
REMARK  5 active torsions:
REMARK  status: ('A' for Active; 'I' for Inactive)
REMARK    1  A    between atoms: N_5  and  C_17 
REMARK    2  A    between atoms: C_8  and  C_9 
REMARK    3  A    between atoms: C_8  and  C_11 
REMARK    4  A    between atoms: C_9  and  O_10 
REMARK    5  A    between atoms: C_21  and  C_23 
ROOT
HETATM    1  C   UNK N   1      27.454  23.911  -5.493  0.00  0.00     0.048 A 
HETATM    2  C   UNK N   1      27.365  23.912  -4.091  0.00  0.00     0.032 A 
HETATM    3  C   UNK N   1      27.011  25.098  -3.417  0.00  0.00     0.026 A 
HETATM    4  C   UNK N   1      26.624  26.249  -4.153  0.00  0.00     0.059 A 
HETATM    5  C   UNK N   1      26.617  26.196  -5.558  0.00  0.00     0.070 A 
HETATM    6  C   UNK N   1      27.059  25.056  -6.176  0.00  0.00     0.048 A 
HETATM    7  C   UNK N   1      26.231  27.438  -3.448  0.00  0.00     0.100 C 
HETATM    8  N   UNK N   1      25.936  28.398  -2.872  0.00  0.00    -0.191 NA
ENDROOT
BRANCH   5   9
HETATM    9  C   UNK N   1      26.098  27.265  -6.499  0.00  0.00     0.419 C 
HETATM   10  F   UNK N   1      24.765  27.508  -6.199  0.00  0.00    -0.166 F 
HETATM   11  F   UNK N   1      26.168  26.793  -7.799  0.00  0.00    -0.166 F 
HETATM   12  F   UNK N   1      26.774  28.462  -6.411  0.00  0.00    -0.166 F 
ENDBRANCH   5   9
BRANCH   1  13
HETATM   13  N   UNK N   1      27.424  22.732  -6.288  0.00  0.00    -0.231 N 
HETATM   14  C   UNK N   1      26.333  22.327  -6.946  0.00  0.00     0.333 C 
HETATM   15  N   UNK N   1      26.647  21.727  -8.104  0.00  0.00    -0.313 N 
HETATM   16  O   UNK N   1      25.189  22.622  -6.629  0.00  0.00    -0.246 OA
HETATM   17  C   UNK N   1      25.678  21.364  -9.111  0.00  0.00     0.156 C 
HETATM   18  C   UNK N   1      28.095  21.746  -8.312  0.00  0.00     0.167 C 
HETATM   19  C   UNK N   1      28.507  22.278  -6.962  0.00  0.00     0.268 C 
HETATM   20  O   UNK N   1      29.661  22.537  -6.636  0.00  0.00    -0.269 OA
BRANCH  18  21
HETATM   21  C   UNK N   1      28.422  22.886  -9.307  0.00  0.00     0.210 C 
BRANCH  21  22
HETATM   22  O   UNK N   1      29.762  23.287  -9.214  0.00  0.00    -0.398 OA
HETATM   23  H   UNK N   1      30.041  24.188  -8.986  0.00  0.00     0.209 HD
ENDBRANCH  21  22
ENDBRANCH  18  21
BRANCH  18  24
HETATM   24  C   UNK N   1      28.572  20.401  -8.832  0.00  0.00    -0.018 A 
HETATM   25  C   UNK N   1      28.971  19.420  -7.902  0.00  0.00     0.010 A 
HETATM   26  C   UNK N   1      29.806  18.371  -8.275  0.00  0.00     0.001 A 
HETATM   27  C   UNK N   1      30.299  18.309  -9.577  0.00  0.00     0.000 A 
HETATM   28  C   UNK N   1      29.909  19.264 -10.517  0.00  0.00     0.001 A 
HETATM   29  C   UNK N   1      29.063  20.310 -10.145  0.00  0.00     0.010 A 
ENDBRANCH  18  24
ENDBRANCH   1  13
TORSDOF 5
ENDMDL
MODEL 5
REMARK VINA RESULT:      -7.1      5.171      8.619
REMARK  5 active torsions:
REMARK  status: ('A' for Active; 'I' for Inactive)
REMARK    1  A    between atoms: N_5  and  C_17 
REMARK    2  A    between atoms: C_8  and  C_9 
REMARK    3  A    between atoms: C_8  and  C_11 
REMARK    4  A    between atoms: C_9  and  O_10 
REMARK    5  A    between atoms: C_21  and  C_23 
ROOT
HETATM    1  C   UNK N   1      32.888  16.900   6.834  0.00  0.00     0.048 A 
HETATM    2  C   UNK N   1      31.593  17.042   7.361  0.00  0.00     0.032 A 
HETATM    3  C   UNK N   1      30.495  17.160   6.486  0.00  0.00     0.026 A 
HETATM    4  C   UNK N   1      30.677  17.009   5.087  0.00  0.00     0.059 A 
HETATM    5  C   UNK N   1      31.967  16.759   4.585  0.00  0.00     0.070 A 
HETATM    6  C   UNK N   1      33.022  16.748   5.458  0.00  0.00     0.048 A 
HETATM    7  C   UNK N   1      29.539  17.094   4.213  0.00  0.00     0.100 C 
HETATM    8  N   UNK N   1      28.620  17.187   3.515  0.00  0.00    -0.191 NA
ENDROOT
BRANCH   5   9
HETATM    9  C   UNK N   1      32.329  16.427   3.151  0.00  0.00     0.419 C 
HETATM   10  F   UNK N   1      31.686  15.249   2.795  0.00  0.00    -0.166 F 
HETATM   11  F   UNK N   1      33.694  16.214   3.069  0.00  0.00    -0.166 F 
HETATM   12  F   UNK N   1      31.964  17.397   2.243  0.00  0.00    -0.166 F 
ENDBRANCH   5   9
BRANCH   1  13
HETATM   13  N   UNK N   1      33.995  16.402   7.575  0.00  0.00    -0.231 N 
HETATM   14  C   UNK N   1      34.599  17.105   8.538  0.00  0.00     0.333 C 
HETATM   15  N   UNK N   1      35.045  16.313   9.525  0.00  0.00    -0.313 N 
HETATM   16  O   UNK N   1      34.591  18.326   8.607  0.00  0.00    -0.246 OA
HETATM   17  C   UNK N   1      35.561  16.804  10.780  0.00  0.00     0.156 C 
HETATM   18  C   UNK N   1      34.685  14.920   9.262  0.00  0.00     0.167 C 
HETATM   19  C   UNK N   1      34.151  15.088   7.861  0.00  0.00     0.268 C 
HETATM   20  O   UNK N   1      33.655  14.189   7.190  0.00  0.00    -0.269 OA
BRANCH  18  21
HETATM   21  C   UNK N   1      33.445  14.573  10.123  0.00  0.00     0.210 C 
BRANCH  21  22
HETATM   22  O   UNK N   1      32.642  13.603   9.509  0.00  0.00    -0.398 OA
HETATM   23  H   UNK N   1      32.280  13.690   8.613  0.00  0.00     0.209 HD
ENDBRANCH  21  22
ENDBRANCH  18  21
BRANCH  18  24
HETATM   24  C   UNK N   1      35.854  14.003   9.578  0.00  0.00    -0.018 A 
HETATM   25  C   UNK N   1      35.918  13.404  10.852  0.00  0.00     0.010 A 
HETATM   26  C   UNK N   1      37.121  12.931  11.367  0.00  0.00     0.001 A 
HETATM   27  C   UNK N   1      38.296  13.091  10.635  0.00  0.00     0.000 A 
HETATM   28  C   UNK N   1      38.255  13.673   9.366  0.00  0.00     0.001 A 
HETATM   29  C   UNK N   1      37.046  14.138   8.846  0.00  0.00     0.010 A 
ENDBRANCH  18  24
ENDBRANCH   1  13
TORSDOF 5
ENDMDL
MODEL 6
REMARK VINA RESULT:      -7.0      7.441     10.449
REMARK  5 active torsions:
REMARK  status: ('A' for Active; 'I' for Inactive)
REMARK    1  A    between atoms: N_5  and  C_17 
REMARK    2  A    between atoms: C_8  and  C_9 
REMARK    3  A    between atoms: C_8  and  C_11 
REMARK    4  A    between atoms: C_9  and  O_10 
REMARK    5  A    between atoms: C_21  and  C_23 
ROOT
HETATM    1  C   UNK N   1      30.235  16.969   4.656  0.00  0.00     0.048 A 
HETATM    2  C   UNK N   1      31.484  17.061   4.019  0.00  0.00     0.032 A 
HETATM    3  C   UNK N   1      32.629  17.383   4.775  0.00  0.00     0.026 A 
HETATM    4  C   UNK N   1      32.545  17.488   6.188  0.00  0.00     0.059 A 
HETATM    5  C   UNK N   1      31.304  17.287   6.820  0.00  0.00     0.070 A 
HETATM    6  C   UNK N   1      30.197  17.072   6.043  0.00  0.00     0.048 A 
HETATM    7  C   UNK N   1      33.730  17.780   6.946  0.00  0.00     0.100 C 
HETATM    8  N   UNK N   1      34.687  18.036   7.546  0.00  0.00    -0.191 NA
ENDROOT
BRANCH   5   9
HETATM    9  C   UNK N   1      31.053  17.214   8.313  0.00  0.00     0.419 C 
HETATM   10  F   UNK N   1      29.710  16.932   8.522  0.00  0.00    -0.166 F 
HETATM   11  F   UNK N   1      31.327  18.448   8.877  0.00  0.00    -0.166 F 
HETATM   12  F   UNK N   1      31.791  16.244   8.956  0.00  0.00    -0.166 F 
ENDBRANCH   5   9
BRANCH   1  13
HETATM   13  N   UNK N   1      29.109  16.300   4.101  0.00  0.00    -0.231 N 
HETATM   14  C   UNK N   1      28.852  15.007   4.322  0.00  0.00     0.333 C 
HETATM   15  N   UNK N   1      27.533  14.765   4.371  0.00  0.00    -0.313 N 
HETATM   16  O   UNK N   1      29.699  14.178   4.622  0.00  0.00    -0.246 OA
HETATM   17  C   UNK N   1      26.960  13.507   4.785  0.00  0.00     0.156 C 
HETATM   18  C   UNK N   1      26.780  16.010   4.216  0.00  0.00     0.167 C 
HETATM   19  C   UNK N   1      27.930  16.924   3.869  0.00  0.00     0.268 C 
HETATM   20  O   UNK N   1      27.832  18.133   3.689  0.00  0.00    -0.269 OA
BRANCH  18  21
HETATM   21  C   UNK N   1      26.316  16.469   5.619  0.00  0.00     0.210 C 
BRANCH  21  22
HETATM   22  O   UNK N   1      25.994  17.833   5.640  0.00  0.00    -0.398 OA
HETATM   23  H   UNK N   1      26.447  18.486   6.195  0.00  0.00     0.209 HD
ENDBRANCH  21  22
ENDBRANCH  18  21
BRANCH  18  24
HETATM   24  C   UNK N   1      25.602  15.803   3.281  0.00  0.00    -0.018 A 
HETATM   25  C   UNK N   1      24.320  15.620   3.838  0.00  0.00     0.010 A 
HETATM   26  C   UNK N   1      23.302  15.005   3.118  0.00  0.00     0.001 A 
HETATM   27  C   UNK N   1      23.558  14.516   1.838  0.00  0.00     0.000 A 
HETATM   28  C   UNK N   1      24.817  14.694   1.262  0.00  0.00     0.001 A 
HETATM   29  C   UNK N   1      25.836  15.321   1.982  0.00  0.00     0.010 A 
ENDBRANCH  18  24
ENDBRANCH   1  13
TORSDOF 5
ENDMDL
MODEL 7
REMARK VINA RESULT:      -6.9      2.665      3.812
REMARK  5 active torsions:
REMARK  status: ('A' for Active; 'I' for Inactive)
REMARK    1  A    between atoms: N_5  and  C_17 
REMARK    2  A    between atoms: C_8  and  C_9 
REMARK    3  A    between atoms: C_8  and  C_11 
REMARK    4  A    between atoms: C_9  and  O_10 
REMARK    5  A    between atoms: C_21  and  C_23 
ROOT
HETATM    1  C   UNK N   1      35.567  14.481  10.396  0.00  0.00     0.048 A 
HETATM    2  C   UNK N   1      36.244  13.594   9.541  0.00  0.00     0.032 A 
HETATM    3  C   UNK N   1      36.793  12.406  10.065  0.00  0.00     0.026 A 
HETATM    4  C   UNK N   1      36.555  12.045  11.417  0.00  0.00     0.059 A 
HETATM    5  C   UNK N   1      35.783  12.894  12.230  0.00  0.00     0.070 A 
HETATM    6  C   UNK N   1      35.350  14.085  11.711  0.00  0.00     0.048 A 
HETATM    7  C   UNK N   1      37.091  10.811  11.922  0.00  0.00     0.100 C 
HETATM    8  N   UNK N   1      37.545   9.826  12.326  0.00  0.00    -0.191 NA
ENDROOT
BRANCH   5   9
HETATM    9  C   UNK N   1      35.306  12.606  13.639  0.00  0.00     0.419 C 
HETATM   10  F   UNK N   1      34.154  11.835  13.566  0.00  0.00    -0.166 F 
HETATM   11  F   UNK N   1      34.985  13.801  14.259  0.00  0.00    -0.166 F 
HETATM   12  F   UNK N   1      36.221  11.923  14.410  0.00  0.00    -0.166 F 
ENDBRANCH   5   9
BRANCH   1  13
HETATM   13  N   UNK N   1      34.667  15.485   9.944  0.00  0.00    -0.231 N 
HETATM   14  C   UNK N   1      35.015  16.769   9.821  0.00  0.00     0.333 C 
HETATM   15  N   UNK N   1      34.388  17.356   8.790  0.00  0.00    -0.313 N 
HETATM   16  O   UNK N   1      35.921  17.301  10.448  0.00  0.00    -0.246 OA
HETATM   17  C   UNK N   1      34.710  18.674   8.298  0.00  0.00     0.156 C 
HETATM   18  C   UNK N   1      33.550  16.387   8.084  0.00  0.00     0.167 C 
HETATM   19  C   UNK N   1      33.683  15.234   9.049  0.00  0.00     0.268 C 
HETATM   20  O   UNK N   1      33.192  14.122   8.880  0.00  0.00    -0.269 OA
BRANCH  18  21
HETATM   21  C   UNK N   1      34.306  15.933   6.813  0.00  0.00     0.210 C 
BRANCH  21  22
HETATM   22  O   UNK N   1      34.223  14.546   6.626  0.00  0.00    -0.398 OA
HETATM   23  H   UNK N   1      34.411  13.896   7.321  0.00  0.00     0.209 HD
ENDBRANCH  21  22
ENDBRANCH  18  21
BRANCH  18  24
HETATM   24  C   UNK N   1      32.205  17.003   7.740  0.00  0.00    -0.018 A 
HETATM   25  C   UNK N   1      31.245  17.145   8.763  0.00  0.00     0.010 A 
HETATM   26  C   UNK N   1      29.892  17.275   8.467  0.00  0.00     0.001 A 
HETATM   27  C   UNK N   1      29.465  17.220   7.142  0.00  0.00     0.000 A 
HETATM   28  C   UNK N   1      30.399  17.090   6.112  0.00  0.00     0.001 A 
HETATM   29  C   UNK N   1      31.758  16.969   6.409  0.00  0.00     0.010 A 
ENDBRANCH  18  24
ENDBRANCH   1  13
TORSDOF 5
ENDMDL
MODEL 8
REMARK VINA RESULT:      -6.8      4.774      8.469
REMARK  5 active torsions:
REMARK  status: ('A' for Active; 'I' for Inactive)
REMARK    1  A    between atoms: N_5  and  C_17 
REMARK    2  A    between atoms: C_8  and  C_9 
REMARK    3  A    between atoms: C_8  and  C_11 
REMARK    4  A    between atoms: C_9  and  O_10 
REMARK    5  A    between atoms: C_21  and  C_23 
ROOT
HETATM    1  C   UNK N   1      32.001  16.359   6.144  0.00  0.00     0.048 A 
HETATM    2  C   UNK N   1      31.972  16.916   4.854  0.00  0.00     0.032 A 
HETATM    3  C   UNK N   1      30.808  17.572   4.406  0.00  0.00     0.026 A 
HETATM    4  C   UNK N   1      29.719  17.781   5.292  0.00  0.00     0.059 A 
HETATM    5  C   UNK N   1      29.809  17.309   6.615  0.00  0.00     0.070 A 
HETATM    6  C   UNK N   1      30.917  16.593   6.983  0.00  0.00     0.048 A 
HETATM    7  C   UNK N   1      28.556  18.485   4.828  0.00  0.00     0.100 C 
HETATM    8  N   UNK N   1      27.614  19.034   4.438  0.00  0.00    -0.191 NA
ENDROOT
BRANCH   5   9
HETATM    9  C   UNK N   1      28.820  17.566   7.734  0.00  0.00     0.419 C 
HETATM   10  F   UNK N   1      29.352  17.071   8.916  0.00  0.00    -0.166 F 
HETATM   11  F   UNK N   1      27.649  16.878   7.466  0.00  0.00    -0.166 F 
HETATM   12  F   UNK N   1      28.531  18.899   7.928  0.00  0.00    -0.166 F 
ENDBRANCH   5   9
BRANCH   1  13
HETATM   13  N   UNK N   1      33.198  16.022   6.836  0.00  0.00    -0.231 N 
HETATM   14  C   UNK N   1      33.828  16.872   7.651  0.00  0.00     0.333 C 
HETATM   15  N   UNK N   1      34.408  16.234   8.680  0.00  0.00    -0.313 N 
HETATM   16  O   UNK N   1      33.741  18.090   7.578  0.00  0.00    -0.246 OA
HETATM   17  C   UNK N   1      34.990  16.905   9.817  0.00  0.00     0.156 C 
HETATM   18  C   UNK N   1      34.125  14.801   8.615  0.00  0.00     0.167 C 
HETATM   19  C   UNK N   1      33.467  14.764   7.258  0.00  0.00     0.268 C 
HETATM   20  O   UNK N   1      32.982  13.762   6.743  0.00  0.00    -0.269 OA
BRANCH  18  21
HETATM   21  C   UNK N   1      32.988  14.490   9.618  0.00  0.00     0.210 C 
BRANCH  21  22
HETATM   22  O   UNK N   1      32.347  13.280   9.318  0.00  0.00    -0.398 OA
HETATM   23  H   UNK N   1      31.527  13.216   8.804  0.00  0.00     0.209 HD
ENDBRANCH  21  22
ENDBRANCH  18  21
BRANCH  18  24
HETATM   24  C   UNK N   1      35.377  14.000   8.929  0.00  0.00    -0.018 A 
HETATM   25  C   UNK N   1      35.635  13.646  10.269  0.00  0.00     0.010 A 
HETATM   26  C   UNK N   1      36.919  13.320  10.694  0.00  0.00     0.001 A 
HETATM   27  C   UNK N   1      37.982  13.385   9.795  0.00  0.00     0.000 A 
HETATM   28  C   UNK N   1      37.749  13.724   8.461  0.00  0.00     0.001 A 
HETATM   29  C   UNK N   1      36.458  14.042   8.033  0.00  0.00     0.010 A 
ENDBRANCH  18  24
ENDBRANCH   1  13
TORSDOF 5
ENDMDL
MODEL 9
REMARK VINA RESULT:      -6.7     21.332     23.213
REMARK  5 active torsions:
REMARK  status: ('A' for Active; 'I' for Inactive)
REMARK    1  A    between atoms: N_5  and  C_17 
REMARK    2  A    between atoms: C_8  and  C_9 
REMARK    3  A    between atoms: C_8  and  C_11 
REMARK    4  A    between atoms: C_9  and  O_10 
REMARK    5  A    between atoms: C_21  and  C_23 
ROOT
HETATM    1  C   UNK N   1      26.026  24.328  -7.021  0.00  0.00     0.048 A 
HETATM    2  C   UNK N   1      25.966  25.485  -7.816  0.00  0.00     0.032 A 
HETATM    3  C   UNK N   1      26.048  26.753  -7.205  0.00  0.00     0.026 A 
HETATM    4  C   UNK N   1      26.314  26.860  -5.815  0.00  0.00     0.059 A 
HETATM    5  C   UNK N   1      26.478  25.689  -5.054  0.00  0.00     0.070 A 
HETATM    6  C   UNK N   1      26.296  24.476  -5.665  0.00  0.00     0.048 A 
HETATM    7  C   UNK N   1      26.431  28.162  -5.217  0.00  0.00     0.100 C 
HETATM    8  N   UNK N   1      26.502  29.214  -4.741  0.00  0.00    -0.191 NA
ENDROOT
BRANCH   5   9
HETATM    9  C   UNK N   1      26.909  25.608  -3.603  0.00  0.00     0.419 C 
HETATM   10  F   UNK N   1      26.098  26.447  -2.853  0.00  0.00    -0.166 F 
HETATM   11  F   UNK N   1      28.213  26.059  -3.496  0.00  0.00    -0.166 F 
HETATM   12  F   UNK N   1      26.819  24.343  -3.063  0.00  0.00    -0.166 F 
ENDBRANCH   5   9
BRANCH   1  13
HETATM   13  N   UNK N   1      26.332  23.034  -7.527  0.00  0.00    -0.231 N 
HETATM   14  C   UNK N   1      25.532  22.376  -8.370  0.00  0.00     0.333 C 
HETATM   15  N   UNK N   1      26.233  21.629  -9.237  0.00  0.00    -0.313 N 
HETATM   16  O   UNK N   1      24.327  22.563  -8.464  0.00  0.00    -0.246 OA
HETATM   17  C   UNK N   1      25.652  20.966 -10.381  0.00  0.00     0.156 C 
HETATM   18  C   UNK N   1      27.668  21.807  -9.021  0.00  0.00     0.167 C 
HETATM   19  C   UNK N   1      27.602  22.620  -7.751  0.00  0.00     0.268 C 
HETATM   20  O   UNK N   1      28.576  23.087  -7.169  0.00  0.00    -0.269 OA
BRANCH  18  21
HETATM   21  C   UNK N   1      28.198  22.788 -10.095  0.00  0.00     0.210 C 
BRANCH  21  22
HETATM   22  O   UNK N   1      29.345  23.465  -9.659  0.00  0.00    -0.398 OA
HETATM   23  H   UNK N   1      30.110  23.027  -9.254  0.00  0.00     0.209 HD
ENDBRANCH  21  22
ENDBRANCH  18  21
BRANCH  18  24
HETATM   24  C   UNK N   1      28.384  20.469  -9.088  0.00  0.00    -0.018 A 
HETATM   25  C   UNK N   1      28.588  19.751  -7.893  0.00  0.00     0.010 A 
HETATM   26  C   UNK N   1      29.580  18.780  -7.797  0.00  0.00     0.001 A 
HETATM   27  C   UNK N   1      30.420  18.539  -8.883  0.00  0.00     0.000 A 
HETATM   28  C   UNK N   1      30.229  19.232 -10.080  0.00  0.00     0.001 A 
HETATM   29  C   UNK N   1      29.227  20.200 -10.179  0.00  0.00     0.010 A 
ENDBRANCH  18  24
ENDBRANCH   1  13
TORSDOF 5
ENDMDL
