MODEL 1
REMARK VINA RESULT:      -8.1      0.000      0.000
REMARK  2 active torsions:
REMARK  status: ('A' for Active; 'I' for Inactive)
REMARK    1  A    between atoms: C_3  and  N_2 
REMARK    2  A    between atoms: C_3  and  C_22 
ROOT
HETATM    1  C   UNK N   1      27.378  17.422   4.334  0.00  0.00     0.186 C 
HETATM    2  C   UNK N   1      27.457  16.362   5.471  0.00  0.00     0.050 C 
HETATM    3  C   UNK N   1      27.264  16.925   6.887  0.00  0.00     0.047 C 
HETATM    4  C   UNK N   1      28.216  18.092   7.181  0.00  0.00     0.103 C 
HETATM    5  O   UNK N   1      27.864  18.716   8.420  0.00  0.00    -0.373 OA
HETATM    6  C   UNK N   1      28.474  18.100   9.545  0.00  0.00     0.174 C 
HETATM    7  C   UNK N   1      29.995  18.332   9.555  0.00  0.00     0.068 C 
HETATM    8  C   UNK N   1      30.499  17.836   8.251  0.00  0.00    -0.018 A 
HETATM    9  C   UNK N   1      29.680  17.678   7.161  0.00  0.00     0.052 A 
HETATM   10  N   UNK N   1      30.367  17.183   6.102  0.00  0.00    -0.356 N 
HETATM   11  C   UNK N   1      31.637  17.060   6.535  0.00  0.00     0.043 A 
HETATM   12  C   UNK N   1      31.755  17.460   7.843  0.00  0.00     0.002 A 
HETATM   13  C   UNK N   1      32.980  17.448   8.505  0.00  0.00     0.056 A 
HETATM   14  C   UNK N   1      34.108  17.015   7.781  0.00  0.00     0.117 A 
HETATM   15  C   UNK N   1      33.980  16.597   6.435  0.00  0.00     0.044 A 
HETATM   16  C   UNK N   1      32.727  16.616   5.798  0.00  0.00     0.033 A 
HETATM   17  F   UNK N   1      35.326  17.007   8.371  0.00  0.00    -0.206 F 
HETATM   18  C   UNK N   1      28.010  19.154   6.098  0.00  0.00     0.047 C 
HETATM   19  C   UNK N   1      28.310  18.593   4.708  0.00  0.00     0.050 C 
HETATM   20  H   UNK N   1      30.015  16.961   5.211  0.00  0.00     0.166 HD
ENDROOT
BRANCH   1  21
HETATM   21  N   UNK N   1      27.896  16.764   3.105  0.00  0.00     0.094 N 
HETATM   22  C   UNK N   1      27.376  15.417   2.881  0.00  0.00     0.310 C 
HETATM   23  C   UNK N   1      29.354  16.687   3.090  0.00  0.00     0.310 C 
ENDBRANCH   1  21
BRANCH   1  24
HETATM   24  C   UNK N   1      25.966  17.988   4.129  0.00  0.00    -0.020 A 
HETATM   25  C   UNK N   1      25.799  19.256   3.545  0.00  0.00     0.010 A 
HETATM   26  C   UNK N   1      24.526  19.797   3.361  0.00  0.00     0.001 A 
HETATM   27  C   UNK N   1      23.400  19.078   3.763  0.00  0.00     0.000 A 
HETATM   28  C   UNK N   1      23.547  17.816   4.346  0.00  0.00     0.001 A 
HETATM   29  C   UNK N   1      24.822  17.273   4.528  0.00  0.00     0.010 A 
ENDBRANCH   1  24
TORSDOF 2
ENDMDL
MODEL 2
REMARK VINA RESULT:      -8.0     11.823     14.353
REMARK  2 active torsions:
REMARK  status: ('A' for Active; 'I' for Inactive)
REMARK    1  A    between atoms: C_3  and  N_2 
REMARK    2  A    between atoms: C_3  and  C_22 
ROOT
HETATM    1  C   UNK N   1      26.886  25.840  -6.313  0.00  0.00     0.186 C 
HETATM    2  C   UNK N   1      26.404  24.621  -5.473  0.00  0.00     0.050 C 
HETATM    3  C   UNK N   1      27.318  24.254  -4.294  0.00  0.00     0.047 C 
HETATM    4  C   UNK N   1      28.776  24.055  -4.732  0.00  0.00     0.103 C 
HETATM    5  O   UNK N   1      29.621  23.921  -3.585  0.00  0.00    -0.373 OA
HETATM    6  C   UNK N   1      29.712  22.584  -3.115  0.00  0.00     0.174 C 
HETATM    7  C   UNK N   1      30.474  21.691  -4.110  0.00  0.00     0.068 C 
HETATM    8  C   UNK N   1      29.770  21.825  -5.410  0.00  0.00    -0.018 A 
HETATM    9  C   UNK N   1      28.949  22.888  -5.693  0.00  0.00     0.052 A 
HETATM   10  N   UNK N   1      28.401  22.766  -6.926  0.00  0.00    -0.356 N 
HETATM   11  C   UNK N   1      28.914  21.625  -7.426  0.00  0.00     0.043 A 
HETATM   12  C   UNK N   1      29.763  21.029  -6.528  0.00  0.00     0.002 A 
HETATM   13  C   UNK N   1      30.437  19.848  -6.829  0.00  0.00     0.056 A 
HETATM   14  C   UNK N   1      30.221  19.281  -8.102  0.00  0.00     0.117 A 
HETATM   15  C   UNK N   1      29.339  19.896  -9.021  0.00  0.00     0.044 A 
HETATM   16  C   UNK N   1      28.671  21.085  -8.683  0.00  0.00     0.033 A 
HETATM   17  F   UNK N   1      30.870  18.146  -8.453  0.00  0.00    -0.206 F 
HETATM   18  C   UNK N   1      29.231  25.329  -5.449  0.00  0.00     0.047 C 
HETATM   19  C   UNK N   1      28.367  25.612  -6.677  0.00  0.00     0.050 C 
HETATM   20  H   UNK N   1      27.766  23.378  -7.362  0.00  0.00     0.166 HD
ENDROOT
BRANCH   1  21
HETATM   21  N   UNK N   1      26.075  25.841  -7.560  0.00  0.00     0.094 N 
HETATM   22  C   UNK N   1      25.507  24.541  -7.908  0.00  0.00     0.310 C 
HETATM   23  C   UNK N   1      26.832  26.319  -8.713  0.00  0.00     0.310 C 
ENDBRANCH   1  21
BRANCH   1  24
HETATM   24  C   UNK N   1      26.782  27.174  -5.561  0.00  0.00    -0.020 A 
HETATM   25  C   UNK N   1      25.909  27.292  -4.464  0.00  0.00     0.010 A 
HETATM   26  C   UNK N   1      25.788  28.499  -3.774  0.00  0.00     0.001 A 
HETATM   27  C   UNK N   1      26.538  29.607  -4.172  0.00  0.00     0.000 A 
HETATM   28  C   UNK N   1      27.410  29.506  -5.259  0.00  0.00     0.001 A 
HETATM   29  C   UNK N   1      27.533  28.297  -5.950  0.00  0.00     0.010 A 
ENDBRANCH   1  24
TORSDOF 2
ENDMDL
MODEL 3
REMARK VINA RESULT:      -7.8      2.970      7.672
REMARK  2 active torsions:
REMARK  status: ('A' for Active; 'I' for Inactive)
REMARK    1  A    between atoms: C_3  and  N_2 
REMARK    2  A    between atoms: C_3  and  C_22 
ROOT
HETATM    1  C   UNK N   1      33.561  15.816   7.877  0.00  0.00     0.186 C 
HETATM    2  C   UNK N   1      33.308  17.304   7.496  0.00  0.00     0.050 C 
HETATM    3  C   UNK N   1      32.285  18.029   8.385  0.00  0.00     0.047 C 
HETATM    4  C   UNK N   1      30.954  17.269   8.472  0.00  0.00     0.103 C 
HETATM    5  O   UNK N   1      30.112  17.863   9.464  0.00  0.00    -0.373 OA
HETATM    6  C   UNK N   1      29.324  18.931   8.957  0.00  0.00     0.174 C 
HETATM    7  C   UNK N   1      28.256  18.421   7.975  0.00  0.00     0.068 C 
HETATM    8  C   UNK N   1      28.983  17.661   6.928  0.00  0.00    -0.018 A 
HETATM    9  C   UNK N   1      30.247  17.162   7.130  0.00  0.00     0.052 A 
HETATM   10  N   UNK N   1      30.706  16.537   6.019  0.00  0.00    -0.356 N 
HETATM   11  C   UNK N   1      29.701  16.624   5.126  0.00  0.00     0.043 A 
HETATM   12  C   UNK N   1      28.628  17.297   5.654  0.00  0.00     0.002 A 
HETATM   13  C   UNK N   1      27.456  17.492   4.927  0.00  0.00     0.056 A 
HETATM   14  C   UNK N   1      27.403  16.964   3.622  0.00  0.00     0.117 A 
HETATM   15  C   UNK N   1      28.515  16.277   3.080  0.00  0.00     0.044 A 
HETATM   16  C   UNK N   1      29.685  16.103   3.839  0.00  0.00     0.033 A 
HETATM   17  F   UNK N   1      26.278  17.105   2.882  0.00  0.00    -0.206 F 
HETATM   18  C   UNK N   1      31.252  15.850   8.963  0.00  0.00     0.047 C 
HETATM   19  C   UNK N   1      32.192  15.118   8.005  0.00  0.00     0.050 C 
HETATM   20  H   UNK N   1      31.584  16.111   5.891  0.00  0.00     0.166 HD
ENDROOT
BRANCH   1  21
HETATM   21  N   UNK N   1      34.309  15.210   6.743  0.00  0.00     0.094 N 
HETATM   22  C   UNK N   1      34.408  16.066   5.563  0.00  0.00     0.310 C 
HETATM   23  C   UNK N   1      33.739  13.934   6.321  0.00  0.00     0.310 C 
ENDBRANCH   1  21
BRANCH   1  24
HETATM   24  C   UNK N   1      34.304  15.649   9.209  0.00  0.00    -0.020 A 
HETATM   25  C   UNK N   1      34.248  14.419   9.891  0.00  0.00     0.010 A 
HETATM   26  C   UNK N   1      34.904  14.248  11.111  0.00  0.00     0.001 A 
HETATM   27  C   UNK N   1      35.625  15.305  11.668  0.00  0.00     0.000 A 
HETATM   28  C   UNK N   1      35.691  16.533  11.004  0.00  0.00     0.001 A 
HETATM   29  C   UNK N   1      35.035  16.705   9.781  0.00  0.00     0.010 A 
ENDBRANCH   1  24
TORSDOF 2
ENDMDL
MODEL 4
REMARK VINA RESULT:      -7.5      8.756     13.093
REMARK  2 active torsions:
REMARK  status: ('A' for Active; 'I' for Inactive)
REMARK    1  A    between atoms: C_3  and  N_2 
REMARK    2  A    between atoms: C_3  and  C_22 
ROOT
HETATM    1  C   UNK N   1      35.660  11.588  15.471  0.00  0.00     0.186 C 
HETATM    2  C   UNK N   1      34.208  11.701  14.922  0.00  0.00     0.050 C 
HETATM    3  C   UNK N   1      33.882  10.741  13.768  0.00  0.00     0.047 C 
HETATM    4  C   UNK N   1      34.894  10.851  12.619  0.00  0.00     0.103 C 
HETATM    5  O   UNK N   1      34.677   9.805  11.669  0.00  0.00    -0.373 OA
HETATM    6  C   UNK N   1      33.712  10.142  10.682  0.00  0.00     0.174 C 
HETATM    7  C   UNK N   1      34.232  11.246   9.745  0.00  0.00     0.068 C 
HETATM    8  C   UNK N   1      34.622  12.382  10.618  0.00  0.00    -0.018 A 
HETATM    9  C   UNK N   1      34.887  12.220  11.955  0.00  0.00     0.052 A 
HETATM   10  N   UNK N   1      35.188  13.406  12.539  0.00  0.00    -0.356 N 
HETATM   11  C   UNK N   1      35.138  14.310  11.542  0.00  0.00     0.043 A 
HETATM   12  C   UNK N   1      34.803  13.715  10.351  0.00  0.00     0.002 A 
HETATM   13  C   UNK N   1      34.714  14.444   9.168  0.00  0.00     0.056 A 
HETATM   14  C   UNK N   1      34.988  15.825   9.231  0.00  0.00     0.117 A 
HETATM   15  C   UNK N   1      35.325  16.435  10.463  0.00  0.00     0.044 A 
HETATM   16  C   UNK N   1      35.401  15.670  11.640  0.00  0.00     0.033 A 
HETATM   17  F   UNK N   1      34.938  16.575   8.105  0.00  0.00    -0.206 F 
HETATM   18  C   UNK N   1      36.292  10.615  13.199  0.00  0.00     0.047 C 
HETATM   19  C   UNK N   1      36.629  11.649  14.273  0.00  0.00     0.050 C 
HETATM   20  H   UNK N   1      35.398  13.570  13.486  0.00  0.00     0.166 HD
ENDROOT
BRANCH   1  21
HETATM   21  N   UNK N   1      35.880  12.780  16.333  0.00  0.00     0.094 N 
HETATM   22  C   UNK N   1      34.655  13.369  16.868  0.00  0.00     0.310 C 
HETATM   23  C   UNK N   1      36.618  13.834  15.644  0.00  0.00     0.310 C 
ENDBRANCH   1  21
BRANCH   1  24
HETATM   24  C   UNK N   1      35.922  10.278  16.226  0.00  0.00    -0.020 A 
HETATM   25  C   UNK N   1      34.897   9.697  16.995  0.00  0.00     0.010 A 
HETATM   26  C   UNK N   1      35.117   8.513  17.701  0.00  0.00     0.001 A 
HETATM   27  C   UNK N   1      36.366   7.894  17.650  0.00  0.00     0.000 A 
HETATM   28  C   UNK N   1      37.395   8.457  16.891  0.00  0.00     0.001 A 
HETATM   29  C   UNK N   1      37.176   9.642  16.182  0.00  0.00     0.010 A 
ENDBRANCH   1  24
TORSDOF 2
ENDMDL
MODEL 5
REMARK VINA RESULT:      -7.2      3.800      6.238
REMARK  2 active torsions:
REMARK  status: ('A' for Active; 'I' for Inactive)
REMARK    1  A    between atoms: C_3  and  N_2 
REMARK    2  A    between atoms: C_3  and  C_22 
ROOT
HETATM    1  C   UNK N   1      31.994  16.490   6.982  0.00  0.00     0.186 C 
HETATM    2  C   UNK N   1      32.038  14.968   7.302  0.00  0.00     0.050 C 
HETATM    3  C   UNK N   1      32.438  14.626   8.745  0.00  0.00     0.047 C 
HETATM    4  C   UNK N   1      33.759  15.292   9.152  0.00  0.00     0.103 C 
HETATM    5  O   UNK N   1      33.987  15.120  10.554  0.00  0.00    -0.373 OA
HETATM    6  C   UNK N   1      34.651  13.903  10.864  0.00  0.00     0.174 C 
HETATM    7  C   UNK N   1      36.104  13.914  10.361  0.00  0.00     0.068 C 
HETATM    8  C   UNK N   1      36.038  14.210   8.908  0.00  0.00    -0.018 A 
HETATM    9  C   UNK N   1      34.943  14.805   8.330  0.00  0.00     0.052 A 
HETATM   10  N   UNK N   1      35.111  14.939   6.992  0.00  0.00    -0.356 N 
HETATM   11  C   UNK N   1      36.340  14.446   6.741  0.00  0.00     0.043 A 
HETATM   12  C   UNK N   1      36.938  14.001   7.894  0.00  0.00     0.002 A 
HETATM   13  C   UNK N   1      38.226  13.471   7.892  0.00  0.00     0.056 A 
HETATM   14  C   UNK N   1      38.906  13.413   6.659  0.00  0.00     0.117 A 
HETATM   15  C   UNK N   1      38.281  13.867   5.473  0.00  0.00     0.044 A 
HETATM   16  C   UNK N   1      36.977  14.391   5.509  0.00  0.00     0.033 A 
HETATM   17  F   UNK N   1      40.168  12.928   6.607  0.00  0.00    -0.206 F 
HETATM   18  C   UNK N   1      33.617  16.800   8.927  0.00  0.00     0.047 C 
HETATM   19  C   UNK N   1      33.320  17.116   7.461  0.00  0.00     0.050 C 
HETATM   20  H   UNK N   1      34.474  15.314   6.344  0.00  0.00     0.166 HD
ENDROOT
BRANCH   1  21
HETATM   21  N   UNK N   1      31.909  16.610   5.502  0.00  0.00     0.094 N 
HETATM   22  C   UNK N   1      31.971  15.335   4.792  0.00  0.00     0.310 C 
HETATM   23  C   UNK N   1      32.949  17.476   4.955  0.00  0.00     0.310 C 
ENDBRANCH   1  21
BRANCH   1  24
HETATM   24  C   UNK N   1      30.844  17.224   7.684  0.00  0.00    -0.020 A 
HETATM   25  C   UNK N   1      29.517  17.002   7.272  0.00  0.00     0.010 A 
HETATM   26  C   UNK N   1      28.456  17.669   7.885  0.00  0.00     0.001 A 
HETATM   27  C   UNK N   1      28.706  18.570   8.921  0.00  0.00     0.000 A 
HETATM   28  C   UNK N   1      30.018  18.803   9.343  0.00  0.00     0.001 A 
HETATM   29  C   UNK N   1      31.081  18.134   8.730  0.00  0.00     0.010 A 
ENDBRANCH   1  24
TORSDOF 2
ENDMDL
MODEL 6
REMARK VINA RESULT:      -7.2     11.991     14.546
REMARK  2 active torsions:
REMARK  status: ('A' for Active; 'I' for Inactive)
REMARK    1  A    between atoms: C_3  and  N_2 
REMARK    2  A    between atoms: C_3  and  C_22 
ROOT
HETATM    1  C   UNK N   1      31.372  22.595  -5.486  0.00  0.00     0.186 C 
HETATM    2  C   UNK N   1      31.567  23.985  -6.158  0.00  0.00     0.050 C 
HETATM    3  C   UNK N   1      31.838  25.139  -5.179  0.00  0.00     0.047 C 
HETATM    4  C   UNK N   1      30.772  25.225  -4.078  0.00  0.00     0.103 C 
HETATM    5  O   UNK N   1      31.170  26.169  -3.080  0.00  0.00    -0.373 OA
HETATM    6  C   UNK N   1      30.781  27.500  -3.386  0.00  0.00     0.174 C 
HETATM    7  C   UNK N   1      29.253  27.667  -3.313  0.00  0.00     0.068 C 
HETATM    8  C   UNK N   1      28.680  26.647  -4.226  0.00  0.00    -0.018 A 
HETATM    9  C   UNK N   1      29.386  25.539  -4.622  0.00  0.00     0.052 A 
HETATM   10  N   UNK N   1      28.660  24.778  -5.477  0.00  0.00    -0.356 N 
HETATM   11  C   UNK N   1      27.476  25.410  -5.590  0.00  0.00     0.043 A 
HETATM   12  C   UNK N   1      27.451  26.552  -4.829  0.00  0.00     0.002 A 
HETATM   13  C   UNK N   1      26.320  27.363  -4.762  0.00  0.00     0.056 A 
HETATM   14  C   UNK N   1      25.189  26.966  -5.502  0.00  0.00     0.117 A 
HETATM   15  C   UNK N   1      25.222  25.791  -6.290  0.00  0.00     0.044 A 
HETATM   16  C   UNK N   1      26.382  24.998  -6.340  0.00  0.00     0.033 A 
HETATM   17  F   UNK N   1      24.057  27.706  -5.453  0.00  0.00    -0.206 F 
HETATM   18  C   UNK N   1      30.708  23.866  -3.376  0.00  0.00     0.047 C 
HETATM   19  C   UNK N   1      30.336  22.753  -4.355  0.00  0.00     0.050 C 
HETATM   20  H   UNK N   1      28.938  23.945  -5.920  0.00  0.00     0.166 HD
ENDROOT
BRANCH   1  21
HETATM   21  N   UNK N   1      30.817  21.694  -6.531  0.00  0.00     0.094 N 
HETATM   22  C   UNK N   1      30.990  22.181  -7.897  0.00  0.00     0.310 C 
HETATM   23  C   UNK N   1      29.396  21.424  -6.331  0.00  0.00     0.310 C 
ENDBRANCH   1  21
BRANCH   1  24
HETATM   24  C   UNK N   1      32.662  22.033  -4.871  0.00  0.00    -0.020 A 
HETATM   25  C   UNK N   1      33.911  22.470  -5.346  0.00  0.00     0.010 A 
HETATM   26  C   UNK N   1      35.097  21.963  -4.812  0.00  0.00     0.001 A 
HETATM   27  C   UNK N   1      35.049  21.008  -3.796  0.00  0.00     0.000 A 
HETATM   28  C   UNK N   1      33.816  20.562  -3.312  0.00  0.00     0.001 A 
HETATM   29  C   UNK N   1      32.629  21.071  -3.845  0.00  0.00     0.010 A 
ENDBRANCH   1  24
TORSDOF 2
ENDMDL
MODEL 7
REMARK VINA RESULT:      -7.1      3.084      7.716
REMARK  2 active torsions:
REMARK  status: ('A' for Active; 'I' for Inactive)
REMARK    1  A    between atoms: C_3  and  N_2 
REMARK    2  A    between atoms: C_3  and  C_22 
ROOT
HETATM    1  C   UNK N   1      32.379  16.319   6.935  0.00  0.00     0.186 C 
HETATM    2  C   UNK N   1      31.057  15.510   7.082  0.00  0.00     0.050 C 
HETATM    3  C   UNK N   1      30.603  14.784   5.807  0.00  0.00     0.047 C 
HETATM    4  C   UNK N   1      30.515  15.731   4.602  0.00  0.00     0.103 C 
HETATM    5  O   UNK N   1      30.294  14.984   3.403  0.00  0.00    -0.373 OA
HETATM    6  C   UNK N   1      28.919  14.736   3.148  0.00  0.00     0.174 C 
HETATM    7  C   UNK N   1      28.172  16.033   2.792  0.00  0.00     0.068 C 
HETATM    8  C   UNK N   1      28.416  16.974   3.914  0.00  0.00    -0.018 A 
HETATM    9  C   UNK N   1      29.468  16.820   4.783  0.00  0.00     0.052 A 
HETATM   10  N   UNK N   1      29.457  17.784   5.736  0.00  0.00    -0.356 N 
HETATM   11  C   UNK N   1      28.400  18.563   5.435  0.00  0.00     0.043 A 
HETATM   12  C   UNK N   1      27.747  18.101   4.319  0.00  0.00     0.002 A 
HETATM   13  C   UNK N   1      26.635  18.757   3.797  0.00  0.00     0.056 A 
HETATM   14  C   UNK N   1      26.201  19.927   4.452  0.00  0.00     0.117 A 
HETATM   15  C   UNK N   1      26.874  20.395   5.606  0.00  0.00     0.044 A 
HETATM   16  C   UNK N   1      27.990  19.705   6.110  0.00  0.00     0.033 A 
HETATM   17  F   UNK N   1      25.140  20.615   3.971  0.00  0.00    -0.206 F 
HETATM   18  C   UNK N   1      31.878  16.410   4.434  0.00  0.00     0.047 C 
HETATM   19  C   UNK N   1      32.256  17.209   5.681  0.00  0.00     0.050 C 
HETATM   20  H   UNK N   1      30.085  17.892   6.485  0.00  0.00     0.166 HD
ENDROOT
BRANCH   1  21
HETATM   21  N   UNK N   1      32.481  17.187   8.138  0.00  0.00     0.094 N 
HETATM   22  C   UNK N   1      31.212  17.774   8.564  0.00  0.00     0.310 C 
HETATM   23  C   UNK N   1      33.436  18.276   7.956  0.00  0.00     0.310 C 
ENDBRANCH   1  21
BRANCH   1  24
HETATM   24  C   UNK N   1      33.618  15.429   6.763  0.00  0.00    -0.020 A 
HETATM   25  C   UNK N   1      33.794  14.308   7.595  0.00  0.00     0.010 A 
HETATM   26  C   UNK N   1      34.919  13.493   7.468  0.00  0.00     0.001 A 
HETATM   27  C   UNK N   1      35.887  13.788   6.507  0.00  0.00     0.000 A 
HETATM   28  C   UNK N   1      35.728  14.897   5.672  0.00  0.00     0.001 A 
HETATM   29  C   UNK N   1      34.600  15.714   5.798  0.00  0.00     0.010 A 
ENDBRANCH   1  24
TORSDOF 2
ENDMDL
MODEL 8
REMARK VINA RESULT:      -7.1      3.774      7.945
REMARK  2 active torsions:
REMARK  status: ('A' for Active; 'I' for Inactive)
REMARK    1  A    between atoms: C_3  and  N_2 
REMARK    2  A    between atoms: C_3  and  C_22 
ROOT
HETATM    1  C   UNK N   1      28.341  18.034   5.381  0.00  0.00     0.186 C 
HETATM    2  C   UNK N   1      27.400  17.309   6.386  0.00  0.00     0.050 C 
HETATM    3  C   UNK N   1      27.147  15.826   6.073  0.00  0.00     0.047 C 
HETATM    4  C   UNK N   1      26.653  15.614   4.635  0.00  0.00     0.103 C 
HETATM    5  O   UNK N   1      26.630  14.219   4.322  0.00  0.00    -0.373 OA
HETATM    6  C   UNK N   1      25.415  13.585   4.698  0.00  0.00     0.174 C 
HETATM    7  C   UNK N   1      24.240  14.069   3.832  0.00  0.00     0.068 C 
HETATM    8  C   UNK N   1      24.212  15.548   3.959  0.00  0.00    -0.018 A 
HETATM    9  C   UNK N   1      25.305  16.269   4.372  0.00  0.00     0.052 A 
HETATM   10  N   UNK N   1      25.020  17.592   4.438  0.00  0.00    -0.356 N 
HETATM   11  C   UNK N   1      23.739  17.695   4.032  0.00  0.00     0.043 A 
HETATM   12  C   UNK N   1      23.218  16.464   3.722  0.00  0.00     0.002 A 
HETATM   13  C   UNK N   1      21.915  16.317   3.253  0.00  0.00     0.056 A 
HETATM   14  C   UNK N   1      21.142  17.486   3.098  0.00  0.00     0.117 A 
HETATM   15  C   UNK N   1      21.682  18.752   3.425  0.00  0.00     0.044 A 
HETATM   16  C   UNK N   1      23.000  18.864   3.902  0.00  0.00     0.033 A 
HETATM   17  F   UNK N   1      19.878  17.400   2.623  0.00  0.00    -0.206 F 
HETATM   18  C   UNK N   1      27.677  16.245   3.687  0.00  0.00     0.047 C 
HETATM   19  C   UNK N   1      27.832  17.742   3.955  0.00  0.00     0.050 C 
HETATM   20  H   UNK N   1      25.618  18.320   4.721  0.00  0.00     0.166 HD
ENDROOT
BRANCH   1  21
HETATM   21  N   UNK N   1      28.211  19.490   5.654  0.00  0.00     0.094 N 
HETATM   22  C   UNK N   1      27.578  19.807   6.931  0.00  0.00     0.310 C 
HETATM   23  C   UNK N   1      27.471  20.187   4.605  0.00  0.00     0.310 C 
ENDBRANCH   1  21
BRANCH   1  24
HETATM   24  C   UNK N   1      29.800  17.563   5.468  0.00  0.00    -0.020 A 
HETATM   25  C   UNK N   1      30.292  17.032   6.675  0.00  0.00     0.010 A 
HETATM   26  C   UNK N   1      31.618  16.610   6.782  0.00  0.00     0.001 A 
HETATM   27  C   UNK N   1      32.472  16.715   5.684  0.00  0.00     0.000 A 
HETATM   28  C   UNK N   1      32.000  17.241   4.479  0.00  0.00     0.001 A 
HETATM   29  C   UNK N   1      30.672  17.662   4.370  0.00  0.00     0.010 A 
ENDBRANCH   1  24
TORSDOF 2
ENDMDL
MODEL 9
REMARK VINA RESULT:      -7.0      9.960     13.755
REMARK  2 active torsions:
REMARK  status: ('A' for Active; 'I' for Inactive)
REMARK    1  A    between atoms: C_3  and  N_2 
REMARK    2  A    between atoms: C_3  and  C_22 
ROOT
HETATM    1  C   UNK N   1      36.013  10.551  15.909  0.00  0.00     0.186 C 
HETATM    2  C   UNK N   1      37.047  11.249  14.979  0.00  0.00     0.050 C 
HETATM    3  C   UNK N   1      36.536  12.526  14.294  0.00  0.00     0.047 C 
HETATM    4  C   UNK N   1      35.219  12.291  13.542  0.00  0.00     0.103 C 
HETATM    5  O   UNK N   1      34.675  13.537  13.099  0.00  0.00    -0.373 OA
HETATM    6  C   UNK N   1      35.178  13.945  11.834  0.00  0.00     0.174 C 
HETATM    7  C   UNK N   1      34.676  13.023  10.709  0.00  0.00     0.068 C 
HETATM    8  C   UNK N   1      35.067  11.645  11.096  0.00  0.00    -0.018 A 
HETATM    9  C   UNK N   1      35.363  11.304  12.392  0.00  0.00     0.052 A 
HETATM   10  N   UNK N   1      35.722  10.000  12.484  0.00  0.00    -0.356 N 
HETATM   11  C   UNK N   1      35.617   9.519  11.230  0.00  0.00     0.043 A 
HETATM   12  C   UNK N   1      35.209  10.497  10.357  0.00  0.00     0.002 A 
HETATM   13  C   UNK N   1      35.004  10.233   9.005  0.00  0.00     0.056 A 
HETATM   14  C   UNK N   1      35.224   8.915   8.558  0.00  0.00     0.117 A 
HETATM   15  C   UNK N   1      35.651   7.913   9.460  0.00  0.00     0.044 A 
HETATM   16  C   UNK N   1      35.854   8.214  10.818  0.00  0.00     0.033 A 
HETATM   17  F   UNK N   1      35.017   8.601   7.258  0.00  0.00    -0.206 F 
HETATM   18  C   UNK N   1      34.205  11.714  14.534  0.00  0.00     0.047 C 
HETATM   19  C   UNK N   1      34.696  10.392  15.122  0.00  0.00     0.050 C 
HETATM   20  H   UNK N   1      35.998   9.510  13.291  0.00  0.00     0.166 HD
ENDROOT
BRANCH   1  21
HETATM   21  N   UNK N   1      36.561   9.203  16.216  0.00  0.00     0.094 N 
HETATM   22  C   UNK N   1      37.915   8.978  15.716  0.00  0.00     0.310 C 
HETATM   23  C   UNK N   1      35.713   8.130  15.704  0.00  0.00     0.310 C 
ENDBRANCH   1  21
BRANCH   1  24
HETATM   24  C   UNK N   1      35.709  11.350  17.184  0.00  0.00    -0.020 A 
HETATM   25  C   UNK N   1      35.682  10.696  18.429  0.00  0.00     0.010 A 
HETATM   26  C   UNK N   1      35.394  11.398  19.600  0.00  0.00     0.001 A 
HETATM   27  C   UNK N   1      35.126  12.767  19.542  0.00  0.00     0.000 A 
HETATM   28  C   UNK N   1      35.147  13.432  18.314  0.00  0.00     0.001 A 
HETATM   29  C   UNK N   1      35.437  12.729  17.141  0.00  0.00     0.010 A 
ENDBRANCH   1  24
TORSDOF 2
ENDMDL
