MODEL 1
REMARK VINA RESULT:      -4.8      0.000      0.000
REMARK  2 active torsions:
REMARK  status: ('A' for Active; 'I' for Inactive)
REMARK    1  A    between atoms: C_4  and  O_12 
REMARK    2  A    between atoms: N_7  and  O_8 
ROOT
HETATM    1  C   UNK N   1      32.717  16.447   6.407  0.00  0.00     0.034 C 
HETATM    2  C   UNK N   1      32.378  16.957   7.806  0.00  0.00     0.034 C 
HETATM    3  C   UNK N   1      33.118  18.269   8.075  0.00  0.00     0.058 C 
HETATM    4  C   UNK N   1      34.610  18.036   8.250  0.00  0.00     0.122 C 
HETATM    5  C   UNK N   1      34.819  17.079   9.413  0.00  0.00     0.058 C 
HETATM    6  C   UNK N   1      34.118  15.744   9.158  0.00  0.00     0.034 C 
HETATM    7  N   UNK N   1      32.681  15.960   8.862  0.00  0.00    -0.182 NA
HETATM    8  C   UNK N   1      34.244  14.928  10.432  0.00  0.00     0.034 C 
HETATM    9  C   UNK N   1      34.838  14.987   8.045  0.00  0.00     0.034 C 
HETATM   10  C   UNK N   1      30.894  17.273   7.839  0.00  0.00     0.034 C 
ENDROOT
BRANCH   7  11
HETATM   11  O   UNK N   1      32.092  14.771   8.555  0.00  0.00    -0.312 OA
ATOM     12  HO  UNK N   1      32.739  14.075   8.589  1.00  0.00     0.237 HD
ENDBRANCH   7  11
BRANCH   4  13
HETATM   13  O   UNK N   1      35.242  19.248   8.525  0.00  0.00    -0.395 OA
HETATM   14  H   UNK N   1      35.774  19.683   7.840  0.00  0.00     0.210 HD
ENDBRANCH   4  13
TORSDOF 2
ENDMDL
MODEL 2
REMARK VINA RESULT:      -4.7      5.217      6.980
REMARK  2 active torsions:
REMARK  status: ('A' for Active; 'I' for Inactive)
REMARK    1  A    between atoms: C_4  and  O_12 
REMARK    2  A    between atoms: N_7  and  O_8 
ROOT
HETATM    1  C   UNK N   1      36.806  12.969  11.844  0.00  0.00     0.034 C 
HETATM    2  C   UNK N   1      35.722  13.727  12.606  0.00  0.00     0.034 C 
HETATM    3  C   UNK N   1      36.363  14.644  13.650  0.00  0.00     0.058 C 
HETATM    4  C   UNK N   1      36.959  13.842  14.797  0.00  0.00     0.122 C 
HETATM    5  C   UNK N   1      35.854  13.022  15.442  0.00  0.00     0.058 C 
HETATM    6  C   UNK N   1      35.215  12.070  14.430  0.00  0.00     0.034 C 
HETATM    7  N   UNK N   1      34.736  12.819  13.243  0.00  0.00    -0.182 NA
HETATM    8  C   UNK N   1      34.027  11.423  15.120  0.00  0.00     0.034 C 
HETATM    9  C   UNK N   1      36.203  10.965  14.066  0.00  0.00     0.034 C 
HETATM   10  C   UNK N   1      34.998  14.623  11.617  0.00  0.00     0.034 C 
ENDROOT
BRANCH   7  11
HETATM   11  O   UNK N   1      34.248  11.948  12.317  0.00  0.00    -0.312 OA
ATOM     12  HO  UNK N   1      34.227  12.366  11.464  1.00  0.00     0.237 HD
ENDBRANCH   7  11
BRANCH   4  13
HETATM   13  O   UNK N   1      37.504  14.713  15.739  0.00  0.00    -0.395 OA
HETATM   14  H   UNK N   1      36.959  15.034  16.475  0.00  0.00     0.210 HD
ENDBRANCH   4  13
TORSDOF 2
ENDMDL
MODEL 3
REMARK VINA RESULT:      -4.7     17.903     19.229
REMARK  2 active torsions:
REMARK  status: ('A' for Active; 'I' for Inactive)
REMARK    1  A    between atoms: C_4  and  O_12 
REMARK    2  A    between atoms: N_7  and  O_8 
ROOT
HETATM    1  C   UNK N   1      26.987  26.370  -4.481  0.00  0.00     0.034 C 
HETATM    2  C   UNK N   1      26.162  27.434  -5.203  0.00  0.00     0.034 C 
HETATM    3  C   UNK N   1      26.872  27.856  -6.492  0.00  0.00     0.058 C 
HETATM    4  C   UNK N   1      28.121  28.670  -6.192  0.00  0.00     0.122 C 
HETATM    5  C   UNK N   1      27.719  29.903  -5.398  0.00  0.00     0.058 C 
HETATM    6  C   UNK N   1      27.036  29.512  -4.087  0.00  0.00     0.034 C 
HETATM    7  N   UNK N   1      25.885  28.614  -4.348  0.00  0.00    -0.182 NA
HETATM    8  C   UNK N   1      26.529  30.794  -3.452  0.00  0.00     0.034 C 
HETATM    9  C   UNK N   1      28.058  28.892  -3.137  0.00  0.00     0.034 C 
HETATM   10  C   UNK N   1      24.845  26.802  -5.613  0.00  0.00     0.034 C 
ENDROOT
BRANCH   7  11
HETATM   11  O   UNK N   1      25.342  28.208  -3.167  0.00  0.00    -0.312 OA
ATOM     12  HO  UNK N   1      25.321  27.259  -3.134  1.00  0.00     0.237 HD
ENDBRANCH   7  11
BRANCH   4  13
HETATM   13  O   UNK N   1      28.719  29.062  -7.389  0.00  0.00    -0.395 OA
HETATM   14  H   UNK N   1      28.351  29.803  -7.895  0.00  0.00     0.210 HD
ENDBRANCH   4  13
TORSDOF 2
ENDMDL
MODEL 4
REMARK VINA RESULT:      -4.6     16.918     18.393
REMARK  2 active torsions:
REMARK  status: ('A' for Active; 'I' for Inactive)
REMARK    1  A    between atoms: C_4  and  O_12 
REMARK    2  A    between atoms: N_7  and  O_8 
ROOT
HETATM    1  C   UNK N   1      25.795  24.445  -4.898  0.00  0.00     0.034 C 
HETATM    2  C   UNK N   1      26.998  25.310  -4.532  0.00  0.00     0.034 C 
HETATM    3  C   UNK N   1      26.582  26.380  -3.520  0.00  0.00     0.058 C 
HETATM    4  C   UNK N   1      25.701  27.438  -4.167  0.00  0.00     0.122 C 
HETATM    5  C   UNK N   1      26.473  28.082  -5.307  0.00  0.00     0.058 C 
HETATM    6  C   UNK N   1      26.875  27.041  -6.354  0.00  0.00     0.034 C 
HETATM    7  N   UNK N   1      27.631  25.933  -5.721  0.00  0.00    -0.182 NA
HETATM    8  C   UNK N   1      27.773  27.745  -7.356  0.00  0.00     0.034 C 
HETATM    9  C   UNK N   1      25.636  26.553  -7.099  0.00  0.00     0.034 C 
HETATM   10  C   UNK N   1      28.017  24.422  -3.841  0.00  0.00     0.034 C 
ENDROOT
BRANCH   7  11
HETATM   11  O   UNK N   1      27.907  24.976  -6.650  0.00  0.00    -0.312 OA
ATOM     12  HO  UNK N   1      28.339  25.372  -7.398  1.00  0.00     0.237 HD
ENDBRANCH   7  11
BRANCH   4  13
HETATM   13  O   UNK N   1      25.371  28.408  -3.222  0.00  0.00    -0.395 OA
HETATM   14  H   UNK N   1      25.351  29.345  -3.476  0.00  0.00     0.210 HD
ENDBRANCH   4  13
TORSDOF 2
ENDMDL
MODEL 5
REMARK VINA RESULT:      -4.6      9.995     12.300
REMARK  2 active torsions:
REMARK  status: ('A' for Active; 'I' for Inactive)
REMARK    1  A    between atoms: C_4  and  O_12 
REMARK    2  A    between atoms: N_7  and  O_8 
ROOT
HETATM    1  C   UNK N   1      23.689  11.372   8.790  0.00  0.00     0.034 C 
HETATM    2  C   UNK N   1      23.650  12.613   9.679  0.00  0.00     0.034 C 
HETATM    3  C   UNK N   1      22.884  12.306  10.968  0.00  0.00     0.058 C 
HETATM    4  C   UNK N   1      21.396  12.145  10.701  0.00  0.00     0.122 C 
HETATM    5  C   UNK N   1      20.871  13.431  10.084  0.00  0.00     0.058 C 
HETATM    6  C   UNK N   1      21.595  13.748   8.775  0.00  0.00     0.034 C 
HETATM    7  N   UNK N   1      23.063  13.787   8.989  0.00  0.00    -0.182 NA
HETATM    8  C   UNK N   1      21.123  15.120   8.328  0.00  0.00     0.034 C 
HETATM    9  C   UNK N   1      21.187  12.741   7.702  0.00  0.00     0.034 C 
HETATM   10  C   UNK N   1      25.076  12.941  10.081  0.00  0.00     0.034 C 
ENDROOT
BRANCH   7  11
HETATM   11  O   UNK N   1      23.695  13.985   7.799  0.00  0.00    -0.312 OA
ATOM     12  HO  UNK N   1      23.537  13.244   7.226  1.00  0.00     0.237 HD
ENDBRANCH   7  11
BRANCH   4  13
HETATM   13  O   UNK N   1      20.732  11.898  11.901  0.00  0.00    -0.395 OA
HETATM   14  H   UNK N   1      20.214  12.603  12.322  0.00  0.00     0.210 HD
ENDBRANCH   4  13
TORSDOF 2
ENDMDL
MODEL 6
REMARK VINA RESULT:      -4.6      1.843      2.753
REMARK  2 active torsions:
REMARK  status: ('A' for Active; 'I' for Inactive)
REMARK    1  A    between atoms: C_4  and  O_12 
REMARK    2  A    between atoms: N_7  and  O_8 
ROOT
HETATM    1  C   UNK N   1      33.339  15.171   6.106  0.00  0.00     0.034 C 
HETATM    2  C   UNK N   1      32.734  16.547   5.837  0.00  0.00     0.034 C 
HETATM    3  C   UNK N   1      33.772  17.636   6.119  0.00  0.00     0.058 C 
HETATM    4  C   UNK N   1      34.041  17.770   7.609  0.00  0.00     0.122 C 
HETATM    5  C   UNK N   1      32.735  18.110   8.310  0.00  0.00     0.058 C 
HETATM    6  C   UNK N   1      31.687  17.021   8.074  0.00  0.00     0.034 C 
HETATM    7  N   UNK N   1      31.498  16.787   6.622  0.00  0.00    -0.182 NA
HETATM    8  C   UNK N   1      30.383  17.526   8.667  0.00  0.00     0.034 C 
HETATM    9  C   UNK N   1      32.082  15.753   8.826  0.00  0.00     0.034 C 
HETATM   10  C   UNK N   1      32.401  16.626   4.358  0.00  0.00     0.034 C 
ENDROOT
BRANCH   7  11
HETATM   11  O   UNK N   1      30.626  15.758   6.432  0.00  0.00    -0.312 OA
ATOM     12  HO  UNK N   1      29.984  15.750   7.133  1.00  0.00     0.237 HD
ENDBRANCH   7  11
BRANCH   4  13
HETATM   13  O   UNK N   1      34.965  18.791   7.825  0.00  0.00    -0.395 OA
HETATM   14  H   UNK N   1      34.663  19.710   7.902  0.00  0.00     0.210 HD
ENDBRANCH   4  13
TORSDOF 2
ENDMDL
MODEL 7
REMARK VINA RESULT:      -4.4     16.740     18.020
REMARK  2 active torsions:
REMARK  status: ('A' for Active; 'I' for Inactive)
REMARK    1  A    between atoms: C_4  and  O_12 
REMARK    2  A    between atoms: N_7  and  O_8 
ROOT
HETATM    1  C   UNK N   1      27.746  27.317  -6.748  0.00  0.00     0.034 C 
HETATM    2  C   UNK N   1      26.492  26.571  -6.298  0.00  0.00     0.034 C 
HETATM    3  C   UNK N   1      25.603  27.501  -5.469  0.00  0.00     0.058 C 
HETATM    4  C   UNK N   1      26.222  27.790  -4.111  0.00  0.00     0.122 C 
HETATM    5  C   UNK N   1      26.416  26.474  -3.375  0.00  0.00     0.058 C 
HETATM    6  C   UNK N   1      27.329  25.535  -4.164  0.00  0.00     0.034 C 
HETATM    7  N   UNK N   1      26.808  25.336  -5.539  0.00  0.00    -0.182 NA
HETATM    8  C   UNK N   1      27.327  24.201  -3.437  0.00  0.00     0.034 C 
HETATM    9  C   UNK N   1      28.758  26.071  -4.152  0.00  0.00     0.034 C 
HETATM   10  C   UNK N   1      25.703  26.198  -7.540  0.00  0.00     0.034 C 
ENDROOT
BRANCH   7  11
HETATM   11  O   UNK N   1      27.676  24.567  -6.253  0.00  0.00    -0.312 OA
ATOM     12  HO  UNK N   1      28.533  24.977  -6.262  1.00  0.00     0.237 HD
ENDBRANCH   7  11
BRANCH   4  13
HETATM   13  O   UNK N   1      25.368  28.613  -3.376  0.00  0.00    -0.395 OA
HETATM   14  H   UNK N   1      25.230  28.447  -2.431  0.00  0.00     0.210 HD
ENDBRANCH   4  13
TORSDOF 2
ENDMDL
MODEL 8
REMARK VINA RESULT:      -4.4      6.240      8.365
REMARK  2 active torsions:
REMARK  status: ('A' for Active; 'I' for Inactive)
REMARK    1  A    between atoms: C_4  and  O_12 
REMARK    2  A    between atoms: N_7  and  O_8 
ROOT
HETATM    1  C   UNK N   1      36.628  11.342  15.863  0.00  0.00     0.034 C 
HETATM    2  C   UNK N   1      35.562  12.397  15.575  0.00  0.00     0.034 C 
HETATM    3  C   UNK N   1      34.286  11.723  15.068  0.00  0.00     0.058 C 
HETATM    4  C   UNK N   1      34.474  11.170  13.664  0.00  0.00     0.122 C 
HETATM    5  C   UNK N   1      34.854  12.314  12.738  0.00  0.00     0.058 C 
HETATM    6  C   UNK N   1      36.147  12.987  13.200  0.00  0.00     0.034 C 
HETATM    7  N   UNK N   1      36.029  13.426  14.613  0.00  0.00    -0.182 NA
HETATM    8  C   UNK N   1      36.351  14.207  12.319  0.00  0.00     0.034 C 
HETATM    9  C   UNK N   1      37.328  12.046  12.977  0.00  0.00     0.034 C 
HETATM   10  C   UNK N   1      35.212  13.074  16.887  0.00  0.00     0.034 C 
ENDROOT
BRANCH   7  11
HETATM   11  O   UNK N   1      37.215  13.945  15.033  0.00  0.00    -0.312 OA
ATOM     12  HO  UNK N   1      37.059  14.753  15.510  1.00  0.00     0.237 HD
ENDBRANCH   7  11
BRANCH   4  13
HETATM   13  O   UNK N   1      33.282  10.594  13.227  0.00  0.00    -0.395 OA
HETATM   14  H   UNK N   1      33.167  10.370  12.291  0.00  0.00     0.210 HD
ENDBRANCH   4  13
TORSDOF 2
ENDMDL
MODEL 9
REMARK VINA RESULT:      -4.4     12.969     14.414
REMARK  2 active torsions:
REMARK  status: ('A' for Active; 'I' for Inactive)
REMARK    1  A    between atoms: C_4  and  O_12 
REMARK    2  A    between atoms: N_7  and  O_8 
ROOT
HETATM    1  C   UNK N   1      30.659  24.492  -4.076  0.00  0.00     0.034 C 
HETATM    2  C   UNK N   1      29.912  23.233  -3.644  0.00  0.00     0.034 C 
HETATM    3  C   UNK N   1      30.681  22.531  -2.522  0.00  0.00     0.058 C 
HETATM    4  C   UNK N   1      31.960  21.894  -3.044  0.00  0.00     0.122 C 
HETATM    5  C   UNK N   1      31.596  20.890  -4.125  0.00  0.00     0.058 C 
HETATM    6  C   UNK N   1      30.855  21.569  -5.278  0.00  0.00     0.034 C 
HETATM    7  N   UNK N   1      29.668  22.301  -4.773  0.00  0.00    -0.182 NA
HETATM    8  C   UNK N   1      30.394  20.468  -6.217  0.00  0.00     0.034 C 
HETATM    9  C   UNK N   1      31.815  22.470  -6.050  0.00  0.00     0.034 C 
HETATM   10  C   UNK N   1      28.577  23.661  -3.062  0.00  0.00     0.034 C 
ENDROOT
BRANCH   7  11
HETATM   11  O   UNK N   1      29.070  22.968  -5.798  0.00  0.00    -0.312 OA
ATOM     12  HO  UNK N   1      28.925  22.374  -6.525  1.00  0.00     0.237 HD
ENDBRANCH   7  11
BRANCH   4  13
HETATM   13  O   UNK N   1      32.613  21.240  -2.000  0.00  0.00    -0.395 OA
HETATM   14  H   UNK N   1      32.825  21.720  -1.185  0.00  0.00     0.210 HD
ENDBRANCH   4  13
TORSDOF 2
ENDMDL
