MODEL 1
REMARK VINA RESULT:      -5.7      0.000      0.000
REMARK  4 active torsions:
REMARK  status: ('A' for Active; 'I' for Inactive)
REMARK    1  A    between atoms: C_3  and  N_16 
REMARK    2  A    between atoms: C_9  and  N_8 
REMARK    3  A    between atoms: C_12  and  C_14 
REMARK    4  A    between atoms: C_14  and  O_15 
ROOT
HETATM    1  C   UNK N   1      35.367  13.607  16.656  0.00  0.00     0.145 A 
HETATM    2  C   UNK N   1      35.243  13.875  18.020  0.00  0.00     0.175 A 
HETATM    3  C   UNK N   1      35.180  12.807  18.916  0.00  0.00     0.143 A 
HETATM    4  N   UNK N   1      35.252  11.537  18.453  0.00  0.00    -0.292 N 
ATOM      5  HN  UNK N   1      35.211  10.760  19.113  1.00  0.00     0.172 HD
HETATM    6  C   UNK N   1      35.383  11.276  17.113  0.00  0.00     0.330 A 
HETATM    7  O   UNK N   1      35.425  10.121  16.731  0.00  0.00    -0.246 OA
HETATM    8  N   UNK N   1      35.439  12.321  16.208  0.00  0.00    -0.276 N 
HETATM    9  F   UNK N   1      35.172  15.154  18.463  0.00  0.00    -0.201 F 
ENDROOT
BRANCH   8  10
HETATM   10  C   UNK N   1      35.501  12.025  14.766  0.00  0.00     0.257 C 
HETATM   11  C   UNK N   1      36.872  12.141  14.214  0.00  0.00     0.025 C 
HETATM   12  C   UNK N   1      36.789  12.665  13.023  0.00  0.00     0.007 C 
HETATM   13  C   UNK N   1      35.364  12.948  12.727  0.00  0.00     0.170 C 
HETATM   14  O   UNK N   1      34.695  12.881  13.974  0.00  0.00    -0.352 OA
BRANCH  13  15
HETATM   15  C   UNK N   1      35.190  14.309  12.084  0.00  0.00     0.200 C 
BRANCH  15  16
HETATM   16  O   UNK N   1      33.890  14.419  11.587  0.00  0.00    -0.398 OA
HETATM   17  H   UNK N   1      33.128  14.256  12.165  0.00  0.00     0.209 HD
ENDBRANCH  15  16
ENDBRANCH  13  15
ENDBRANCH   8  10
BRANCH   3  18
HETATM   18  N   UNK N   1      35.031  13.043  20.297  0.00  0.00    -0.383 N 
HETATM   19  H   UNK N   1      34.487  13.799  20.618  0.00  0.00     0.157 HD
HETATM   20  H   UNK N   1      35.472  12.449  20.945  0.00  0.00     0.157 HD
ENDBRANCH   3  18
TORSDOF 4
ENDMDL
MODEL 2
REMARK VINA RESULT:      -5.7     25.059     26.411
REMARK  4 active torsions:
REMARK  status: ('A' for Active; 'I' for Inactive)
REMARK    1  A    between atoms: C_3  and  N_16 
REMARK    2  A    between atoms: C_9  and  N_8 
REMARK    3  A    between atoms: C_12  and  C_14 
REMARK    4  A    between atoms: C_14  and  O_15 
ROOT
HETATM    1  C   UNK N   1      25.377  25.635  -5.711  0.00  0.00     0.145 A 
HETATM    2  C   UNK N   1      25.156  26.908  -5.181  0.00  0.00     0.175 A 
HETATM    3  C   UNK N   1      25.792  27.265  -3.992  0.00  0.00     0.143 A 
HETATM    4  N   UNK N   1      26.619  26.384  -3.381  0.00  0.00    -0.292 N 
ATOM      5  HN  UNK N   1      27.086  26.653  -2.514  1.00  0.00     0.172 HD
HETATM    6  C   UNK N   1      26.841  25.138  -3.908  0.00  0.00     0.330 A 
HETATM    7  O   UNK N   1      27.575  24.364  -3.320  0.00  0.00    -0.246 OA
HETATM    8  N   UNK N   1      26.213  24.761  -5.082  0.00  0.00    -0.276 N 
HETATM    9  F   UNK N   1      24.324  27.776  -5.808  0.00  0.00    -0.201 F 
ENDROOT
BRANCH   8  10
HETATM   10  C   UNK N   1      26.400  23.393  -5.595  0.00  0.00     0.257 C 
HETATM   11  C   UNK N   1      27.501  23.295  -6.581  0.00  0.00     0.025 C 
HETATM   12  C   UNK N   1      27.141  22.456  -7.513  0.00  0.00     0.007 C 
HETATM   13  C   UNK N   1      25.774  21.969  -7.210  0.00  0.00     0.170 C 
HETATM   14  O   UNK N   1      25.255  22.866  -6.243  0.00  0.00    -0.352 OA
BRANCH  13  15
HETATM   15  C   UNK N   1      24.906  21.940  -8.452  0.00  0.00     0.200 C 
BRANCH  15  16
HETATM   16  O   UNK N   1      23.567  22.077  -8.080  0.00  0.00    -0.398 OA
HETATM   17  H   UNK N   1      22.904  21.441  -8.392  0.00  0.00     0.209 HD
ENDBRANCH  15  16
ENDBRANCH  13  15
ENDBRANCH   8  10
BRANCH   3  18
HETATM   18  N   UNK N   1      25.571  28.534  -3.419  0.00  0.00    -0.383 N 
HETATM   19  H   UNK N   1      24.932  28.642  -2.678  0.00  0.00     0.157 HD
HETATM   20  H   UNK N   1      26.059  29.317  -3.760  0.00  0.00     0.157 HD
ENDBRANCH   3  18
TORSDOF 4
ENDMDL
MODEL 3
REMARK VINA RESULT:      -5.7      1.837      2.372
REMARK  4 active torsions:
REMARK  status: ('A' for Active; 'I' for Inactive)
REMARK    1  A    between atoms: C_3  and  N_16 
REMARK    2  A    between atoms: C_9  and  N_8 
REMARK    3  A    between atoms: C_12  and  C_14 
REMARK    4  A    between atoms: C_14  and  O_15 
ROOT
HETATM    1  C   UNK N   1      36.552  14.297  15.019  0.00  0.00     0.145 A 
HETATM    2  C   UNK N   1      36.565  14.585  16.385  0.00  0.00     0.175 A 
HETATM    3  C   UNK N   1      35.619  13.979  17.213  0.00  0.00     0.143 A 
HETATM    4  N   UNK N   1      34.719  13.117  16.685  0.00  0.00    -0.292 N 
ATOM      5  HN  UNK N   1      34.033  12.673  17.297  1.00  0.00     0.172 HD
HETATM    6  C   UNK N   1      34.714  12.829  15.345  0.00  0.00     0.330 A 
HETATM    7  O   UNK N   1      33.876  12.064  14.902  0.00  0.00    -0.246 OA
HETATM    8  N   UNK N   1      35.638  13.426  14.505  0.00  0.00    -0.276 N 
HETATM    9  F   UNK N   1      37.476  15.451  16.894  0.00  0.00    -0.201 F 
ENDROOT
BRANCH   8  10
HETATM   10  C   UNK N   1      35.572  13.167  13.057  0.00  0.00     0.257 C 
HETATM   11  C   UNK N   1      36.907  12.964  12.448  0.00  0.00     0.025 C 
HETATM   12  C   UNK N   1      36.909  13.528  11.271  0.00  0.00     0.007 C 
HETATM   13  C   UNK N   1      35.585  14.154  11.044  0.00  0.00     0.170 C 
HETATM   14  O   UNK N   1      34.967  14.215  12.318  0.00  0.00    -0.352 OA
BRANCH  13  15
HETATM   15  C   UNK N   1      35.721  15.536  10.436  0.00  0.00     0.200 C 
BRANCH  15  16
HETATM   16  O   UNK N   1      36.925  16.106  10.856  0.00  0.00    -0.398 OA
HETATM   17  H   UNK N   1      37.092  16.257  11.799  0.00  0.00     0.209 HD
ENDBRANCH  15  16
ENDBRANCH  13  15
ENDBRANCH   8  10
BRANCH   3  18
HETATM   18  N   UNK N   1      35.590  14.267  18.592  0.00  0.00    -0.383 N 
HETATM   19  H   UNK N   1      34.732  14.320  19.072  0.00  0.00     0.157 HD
HETATM   20  H   UNK N   1      36.432  14.416  19.079  0.00  0.00     0.157 HD
ENDBRANCH   3  18
TORSDOF 4
ENDMDL
MODEL 4
REMARK VINA RESULT:      -5.6     16.508     18.793
REMARK  4 active torsions:
REMARK  status: ('A' for Active; 'I' for Inactive)
REMARK    1  A    between atoms: C_3  and  N_16 
REMARK    2  A    between atoms: C_9  and  N_8 
REMARK    3  A    between atoms: C_12  and  C_14 
REMARK    4  A    between atoms: C_14  and  O_15 
ROOT
HETATM    1  C   UNK N   1      24.300  19.835   3.356  0.00  0.00     0.145 A 
HETATM    2  C   UNK N   1      25.644  19.650   3.684  0.00  0.00     0.175 A 
HETATM    3  C   UNK N   1      25.976  18.738   4.686  0.00  0.00     0.143 A 
HETATM    4  N   UNK N   1      24.998  18.041   5.311  0.00  0.00    -0.292 N 
ATOM      5  HN  UNK N   1      25.248  17.371   6.040  1.00  0.00     0.172 HD
HETATM    6  C   UNK N   1      23.679  18.218   4.982  0.00  0.00     0.330 A 
HETATM    7  O   UNK N   1      22.825  17.589   5.579  0.00  0.00    -0.246 OA
HETATM    8  N   UNK N   1      23.328  19.125   3.996  0.00  0.00    -0.276 N 
HETATM    9  F   UNK N   1      26.609  20.357   3.045  0.00  0.00    -0.201 F 
ENDROOT
BRANCH   8  10
HETATM   10  C   UNK N   1      21.903  19.361   3.706  0.00  0.00     0.257 C 
HETATM   11  C   UNK N   1      21.335  18.363   2.769  0.00  0.00     0.025 C 
HETATM   12  C   UNK N   1      20.506  18.979   1.972  0.00  0.00     0.007 C 
HETATM   13  C   UNK N   1      20.496  20.420   2.319  0.00  0.00     0.170 C 
HETATM   14  O   UNK N   1      21.644  20.627   3.123  0.00  0.00    -0.352 OA
BRANCH  13  15
HETATM   15  C   UNK N   1      20.532  21.290   1.078  0.00  0.00     0.200 C 
BRANCH  15  16
HETATM   16  O   UNK N   1      20.605  20.474  -0.053  0.00  0.00    -0.398 OA
HETATM   17  H   UNK N   1      20.858  20.849  -0.912  0.00  0.00     0.209 HD
ENDBRANCH  15  16
ENDBRANCH  13  15
ENDBRANCH   8  10
BRANCH   3  18
HETATM   18  N   UNK N   1      27.322  18.545   5.057  0.00  0.00    -0.383 N 
HETATM   19  H   UNK N   1      27.982  18.233   4.396  0.00  0.00     0.157 HD
HETATM   20  H   UNK N   1      27.605  18.723   5.982  0.00  0.00     0.157 HD
ENDBRANCH   3  18
TORSDOF 4
ENDMDL
MODEL 5
REMARK VINA RESULT:      -5.6      7.449      9.679
REMARK  4 active torsions:
REMARK  status: ('A' for Active; 'I' for Inactive)
REMARK    1  A    between atoms: C_3  and  N_16 
REMARK    2  A    between atoms: C_9  and  N_8 
REMARK    3  A    between atoms: C_12  and  C_14 
REMARK    4  A    between atoms: C_14  and  O_15 
ROOT
HETATM    1  C   UNK N   1      33.720  15.860   8.470  0.00  0.00     0.145 A 
HETATM    2  C   UNK N   1      34.220  15.435   9.702  0.00  0.00     0.175 A 
HETATM    3  C   UNK N   1      35.008  16.310  10.450  0.00  0.00     0.143 A 
HETATM    4  N   UNK N   1      35.264  17.553   9.980  0.00  0.00    -0.292 N 
ATOM      5  HN  UNK N   1      35.837  18.190  10.534  1.00  0.00     0.172 HD
HETATM    6  C   UNK N   1      34.766  17.971   8.773  0.00  0.00     0.330 A 
HETATM    7  O   UNK N   1      35.033  19.089   8.372  0.00  0.00    -0.246 OA
HETATM    8  N   UNK N   1      33.989  17.116   8.012  0.00  0.00    -0.276 N 
HETATM    9  F   UNK N   1      33.951  14.186  10.156  0.00  0.00    -0.201 F 
ENDROOT
BRANCH   8  10
HETATM   10  C   UNK N   1      33.524  17.551   6.683  0.00  0.00     0.257 C 
HETATM   11  C   UNK N   1      32.088  17.264   6.454  0.00  0.00     0.025 C 
HETATM   12  C   UNK N   1      31.939  16.894   5.212  0.00  0.00     0.007 C 
HETATM   13  C   UNK N   1      33.268  16.892   4.555  0.00  0.00     0.170 C 
HETATM   14  O   UNK N   1      34.215  16.936   5.609  0.00  0.00    -0.352 OA
BRANCH  13  15
HETATM   15  C   UNK N   1      33.462  15.658   3.697  0.00  0.00     0.200 C 
BRANCH  15  16
HETATM   16  O   UNK N   1      33.502  16.036   2.353  0.00  0.00    -0.398 OA
HETATM   17  H   UNK N   1      33.826  16.914   2.100  0.00  0.00     0.209 HD
ENDBRANCH  15  16
ENDBRANCH  13  15
ENDBRANCH   8  10
BRANCH   3  18
HETATM   18  N   UNK N   1      35.547  15.903  11.687  0.00  0.00    -0.383 N 
HETATM   19  H   UNK N   1      35.024  16.003  12.516  0.00  0.00     0.157 HD
HETATM   20  H   UNK N   1      36.451  15.517  11.724  0.00  0.00     0.157 HD
ENDBRANCH   3  18
TORSDOF 4
ENDMDL
MODEL 6
REMARK VINA RESULT:      -5.6     14.461     15.783
REMARK  4 active torsions:
REMARK  status: ('A' for Active; 'I' for Inactive)
REMARK    1  A    between atoms: C_3  and  N_16 
REMARK    2  A    between atoms: C_9  and  N_8 
REMARK    3  A    between atoms: C_12  and  C_14 
REMARK    4  A    between atoms: C_14  and  O_15 
ROOT
HETATM    1  C   UNK N   1      22.674  13.732   9.183  0.00  0.00     0.145 A 
HETATM    2  C   UNK N   1      23.393  12.949  10.088  0.00  0.00     0.175 A 
HETATM    3  C   UNK N   1      22.704  12.276  11.097  0.00  0.00     0.143 A 
HETATM    4  N   UNK N   1      21.356  12.380  11.176  0.00  0.00    -0.292 N 
ATOM      5  HN  UNK N   1      20.857  11.882  11.913  1.00  0.00     0.172 HD
HETATM    6  C   UNK N   1      20.651  13.143  10.281  0.00  0.00     0.330 A 
HETATM    7  O   UNK N   1      19.442  13.231  10.394  0.00  0.00    -0.246 OA
HETATM    8  N   UNK N   1      21.317  13.826   9.277  0.00  0.00    -0.276 N 
HETATM    9  F   UNK N   1      24.743  12.856   9.992  0.00  0.00    -0.201 F 
ENDROOT
BRANCH   8  10
HETATM   10  C   UNK N   1      20.555  14.702   8.371  0.00  0.00     0.257 C 
HETATM   11  C   UNK N   1      21.426  15.498   7.475  0.00  0.00     0.025 C 
HETATM   12  C   UNK N   1      20.901  16.685   7.345  0.00  0.00     0.007 C 
HETATM   13  C   UNK N   1      19.667  16.750   8.164  0.00  0.00     0.170 C 
HETATM   14  O   UNK N   1      19.734  15.641   9.044  0.00  0.00    -0.352 OA
BRANCH  13  15
HETATM   15  C   UNK N   1      19.578  18.054   8.932  0.00  0.00     0.200 C 
BRANCH  15  16
HETATM   16  O   UNK N   1      20.382  19.010   8.308  0.00  0.00    -0.398 OA
HETATM   17  H   UNK N   1      19.982  19.788   7.888  0.00  0.00     0.209 HD
ENDBRANCH  15  16
ENDBRANCH  13  15
ENDBRANCH   8  10
BRANCH   3  18
HETATM   18  N   UNK N   1      23.403  11.496  12.041  0.00  0.00    -0.383 N 
HETATM   19  H   UNK N   1      24.140  11.888  12.564  0.00  0.00     0.157 HD
HETATM   20  H   UNK N   1      23.154  10.555  12.178  0.00  0.00     0.157 HD
ENDBRANCH   3  18
TORSDOF 4
ENDMDL
MODEL 7
REMARK VINA RESULT:      -5.4     21.660     23.545
REMARK  4 active torsions:
REMARK  status: ('A' for Active; 'I' for Inactive)
REMARK    1  A    between atoms: C_3  and  N_16 
REMARK    2  A    between atoms: C_9  and  N_8 
REMARK    3  A    between atoms: C_12  and  C_14 
REMARK    4  A    between atoms: C_14  and  O_15 
ROOT
HETATM    1  C   UNK N   1      29.734  22.136  -4.916  0.00  0.00     0.145 A 
HETATM    2  C   UNK N   1      30.568  21.030  -5.085  0.00  0.00     0.175 A 
HETATM    3  C   UNK N   1      31.427  20.665  -4.048  0.00  0.00     0.143 A 
HETATM    4  N   UNK N   1      31.429  21.376  -2.896  0.00  0.00    -0.292 N 
ATOM      5  HN  UNK N   1      32.056  21.102  -2.139  1.00  0.00     0.172 HD
HETATM    6  C   UNK N   1      30.603  22.457  -2.729  0.00  0.00     0.330 A 
HETATM    7  O   UNK N   1      30.646  23.086  -1.686  0.00  0.00    -0.246 OA
HETATM    8  N   UNK N   1      29.749  22.841  -3.748  0.00  0.00    -0.276 N 
HETATM    9  F   UNK N   1      30.551  20.330  -6.247  0.00  0.00    -0.201 F 
ENDROOT
BRANCH   8  10
HETATM   10  C   UNK N   1      28.923  24.049  -3.584  0.00  0.00     0.257 C 
HETATM   11  C   UNK N   1      27.612  23.768  -2.953  0.00  0.00     0.025 C 
HETATM   12  C   UNK N   1      26.714  24.520  -3.526  0.00  0.00     0.007 C 
HETATM   13  C   UNK N   1      27.373  25.325  -4.582  0.00  0.00     0.170 C 
HETATM   14  O   UNK N   1      28.629  24.707  -4.805  0.00  0.00    -0.352 OA
BRANCH  13  15
HETATM   15  C   UNK N   1      26.546  25.358  -5.852  0.00  0.00     0.200 C 
BRANCH  15  16
HETATM   16  O   UNK N   1      25.233  24.986  -5.555  0.00  0.00    -0.398 OA
HETATM   17  H   UNK N   1      25.040  24.100  -5.211  0.00  0.00     0.209 HD
ENDBRANCH  15  16
ENDBRANCH  13  15
ENDBRANCH   8  10
BRANCH   3  18
HETATM   18  N   UNK N   1      32.299  19.568  -4.197  0.00  0.00    -0.383 N 
HETATM   19  H   UNK N   1      31.986  18.737  -4.622  0.00  0.00     0.157 HD
HETATM   20  H   UNK N   1      33.226  19.632  -3.874  0.00  0.00     0.157 HD
ENDBRANCH   3  18
TORSDOF 4
ENDMDL
MODEL 8
REMARK VINA RESULT:      -5.4      5.574      7.509
REMARK  4 active torsions:
REMARK  status: ('A' for Active; 'I' for Inactive)
REMARK    1  A    between atoms: C_3  and  N_16 
REMARK    2  A    between atoms: C_9  and  N_8 
REMARK    3  A    between atoms: C_12  and  C_14 
REMARK    4  A    between atoms: C_14  and  O_15 
ROOT
HETATM    1  C   UNK N   1      34.227  14.543  10.405  0.00  0.00     0.145 A 
HETATM    2  C   UNK N   1      34.983  13.867  11.365  0.00  0.00     0.175 A 
HETATM    3  C   UNK N   1      36.045  14.530  11.979  0.00  0.00     0.143 A 
HETATM    4  N   UNK N   1      36.317  15.815  11.649  0.00  0.00    -0.292 N 
ATOM      5  HN  UNK N   1      37.091  16.297  12.106  1.00  0.00     0.172 HD
HETATM    6  C   UNK N   1      35.568  16.479  10.712  0.00  0.00     0.330 A 
HETATM    7  O   UNK N   1      35.854  17.628  10.425  0.00  0.00    -0.246 OA
HETATM    8  N   UNK N   1      34.515  15.837  10.085  0.00  0.00    -0.276 N 
HETATM    9  F   UNK N   1      34.694  12.580  11.682  0.00  0.00    -0.201 F 
ENDROOT
BRANCH   8  10
HETATM   10  C   UNK N   1      33.768  16.537   9.026  0.00  0.00     0.257 C 
HETATM   11  C   UNK N   1      32.534  15.823   8.624  0.00  0.00     0.025 C 
HETATM   12  C   UNK N   1      32.394  15.946   7.333  0.00  0.00     0.007 C 
HETATM   13  C   UNK N   1      33.537  16.728   6.804  0.00  0.00     0.170 C 
HETATM   14  O   UNK N   1      34.511  16.723   7.833  0.00  0.00    -0.352 OA
BRANCH  13  15
HETATM   15  C   UNK N   1      34.084  16.118   5.529  0.00  0.00     0.200 C 
BRANCH  15  16
HETATM   16  O   UNK N   1      35.394  15.687   5.751  0.00  0.00    -0.398 OA
HETATM   17  H   UNK N   1      36.131  16.315   5.701  0.00  0.00     0.209 HD
ENDBRANCH  15  16
ENDBRANCH  13  15
ENDBRANCH   8  10
BRANCH   3  18
HETATM   18  N   UNK N   1      36.842  13.868  12.935  0.00  0.00    -0.383 N 
HETATM   19  H   UNK N   1      37.470  13.162  12.657  0.00  0.00     0.157 HD
HETATM   20  H   UNK N   1      36.771  14.113  13.885  0.00  0.00     0.157 HD
ENDBRANCH   3  18
TORSDOF 4
ENDMDL
MODEL 9
REMARK VINA RESULT:      -5.3      5.272      7.799
REMARK  4 active torsions:
REMARK  status: ('A' for Active; 'I' for Inactive)
REMARK    1  A    between atoms: C_3  and  N_16 
REMARK    2  A    between atoms: C_9  and  N_8 
REMARK    3  A    between atoms: C_12  and  C_14 
REMARK    4  A    between atoms: C_14  and  O_15 
ROOT
HETATM    1  C   UNK N   1      33.999  14.728   9.717  0.00  0.00     0.145 A 
HETATM    2  C   UNK N   1      32.958  15.206   8.919  0.00  0.00     0.175 A 
HETATM    3  C   UNK N   1      32.894  16.571   8.637  0.00  0.00     0.143 A 
HETATM    4  N   UNK N   1      33.843  17.403   9.127  0.00  0.00    -0.292 N 
ATOM      5  HN  UNK N   1      33.794  18.400   8.913  1.00  0.00     0.172 HD
HETATM    6  C   UNK N   1      34.869  16.930   9.903  0.00  0.00     0.330 A 
HETATM    7  O   UNK N   1      35.694  17.710  10.343  0.00  0.00    -0.246 OA
HETATM    8  N   UNK N   1      34.946  15.581  10.201  0.00  0.00    -0.276 N 
HETATM    9  F   UNK N   1      32.017  14.356   8.438  0.00  0.00    -0.201 F 
ENDROOT
BRANCH   8  10
HETATM   10  C   UNK N   1      36.009  15.098  11.099  0.00  0.00     0.257 C 
HETATM   11  C   UNK N   1      36.511  13.755  10.726  0.00  0.00     0.025 C 
HETATM   12  C   UNK N   1      36.748  13.088  11.822  0.00  0.00     0.007 C 
HETATM   13  C   UNK N   1      36.396  13.942  12.981  0.00  0.00     0.170 C 
HETATM   14  O   UNK N   1      35.606  14.995  12.454  0.00  0.00    -0.352 OA
BRANCH  13  15
HETATM   15  C   UNK N   1      35.635  13.162  14.035  0.00  0.00     0.200 C 
BRANCH  15  16
HETATM   16  O   UNK N   1      34.407  12.756  13.508  0.00  0.00    -0.398 OA
HETATM   17  H   UNK N   1      34.059  11.872  13.705  0.00  0.00     0.209 HD
ENDBRANCH  15  16
ENDBRANCH  13  15
ENDBRANCH   8  10
BRANCH   3  18
HETATM   18  N   UNK N   1      31.843  17.089   7.855  0.00  0.00    -0.383 N 
HETATM   19  H   UNK N   1      32.006  17.834   7.231  0.00  0.00     0.157 HD
HETATM   20  H   UNK N   1      30.940  16.705   7.931  0.00  0.00     0.157 HD
ENDBRANCH   3  18
TORSDOF 4
ENDMDL
