MODEL 1
REMARK VINA RESULT:      -8.4      0.000      0.000
REMARK  5 active torsions:
REMARK  status: ('A' for Active; 'I' for Inactive)
REMARK    1  A    between atoms: N_3  and  C_16 
REMARK    2  A    between atoms: C_6  and  C_7 
REMARK    3  A    between atoms: C_7  and  C_9 
REMARK    4  A    between atoms: C_16  and  C_17 
REMARK    5  A    between atoms: C_17  and  N_18 
ROOT
HETATM    1  C   UNK N   1      35.007  13.443  13.086  0.00  0.00     0.043 C 
HETATM    2  C   UNK N   1      35.973  14.353  12.334  0.00  0.00     0.273 C 
HETATM    3  N   UNK N   1      36.574  13.689  11.171  0.00  0.00     0.090 N 
HETATM    4  C   UNK N   1      37.167  12.375  11.442  0.00  0.00     0.273 C 
HETATM    5  C   UNK N   1      36.247  11.455  12.261  0.00  0.00     0.043 C 
HETATM    6  C   UNK N   1      35.710  12.156  13.508  0.00  0.00     0.064 C 
ENDROOT
BRANCH   3   7
HETATM    7  C   UNK N   1      35.720  13.702   9.987  0.00  0.00     0.292 C 
BRANCH   7   8
HETATM    8  C   UNK N   1      36.085  14.780   8.969  0.00  0.00     0.167 C 
BRANCH   8   9
HETATM    9  N   UNK N   1      34.908  15.608   8.760  0.00  0.00    -0.264 N 
HETATM   10  C   UNK N   1      33.942  15.188   7.873  0.00  0.00     0.264 A 
HETATM   11  O   UNK N   1      34.102  14.159   7.232  0.00  0.00    -0.267 OA
HETATM   12  C   UNK N   1      32.764  15.926   7.733  0.00  0.00     0.059 A 
HETATM   13  C   UNK N   1      31.741  15.511   6.870  0.00  0.00     0.019 A 
HETATM   14  C   UNK N   1      32.603  17.098   8.497  0.00  0.00     0.052 A 
HETATM   15  C   UNK N   1      30.563  16.255   6.775  0.00  0.00     0.001 A 
HETATM   16  C   UNK N   1      30.404  17.415   7.538  0.00  0.00     0.002 A 
HETATM   17  C   UNK N   1      31.423  17.839   8.395  0.00  0.00     0.030 A 
HETATM   18  N   UNK N   1      33.585  17.502   9.340  0.00  0.00    -0.307 N 
HETATM   19  C   UNK N   1      34.732  16.772   9.483  0.00  0.00     0.330 A 
HETATM   20  H   UNK N   1      33.470  18.331   9.857  0.00  0.00     0.170 HD
HETATM   21  O   UNK N   1      35.590  17.150  10.265  0.00  0.00    -0.246 OA
ENDBRANCH   8   9
ENDBRANCH   7   8
ENDBRANCH   3   7
BRANCH   6  22
HETATM   22  C   UNK N   1      36.650  12.371  14.694  0.00  0.00     0.163 C 
HETATM   23  O   UNK N   1      37.631  11.642  14.763  0.00  0.00    -0.292 OA
BRANCH  22  24
HETATM   24  C   UNK N   1      36.486  13.427  15.746  0.00  0.00     0.010 A 
HETATM   25  C   UNK N   1      35.577  13.296  16.803  0.00  0.00     0.018 A 
HETATM   26  C   UNK N   1      35.435  14.291  17.767  0.00  0.00     0.043 A 
HETATM   27  C   UNK N   1      36.197  15.453  17.679  0.00  0.00     0.116 A 
HETATM   28  C   UNK N   1      37.106  15.611  16.629  0.00  0.00     0.043 A 
HETATM   29  F   UNK N   1      36.049  16.426  18.607  0.00  0.00    -0.206 F 
HETATM   30  C   UNK N   1      37.253  14.602  15.670  0.00  0.00     0.018 A 
ENDBRANCH  22  24
ENDBRANCH   6  22
TORSDOF 5
ENDMDL
MODEL 2
REMARK VINA RESULT:      -8.0      3.420      8.902
REMARK  5 active torsions:
REMARK  status: ('A' for Active; 'I' for Inactive)
REMARK    1  A    between atoms: N_3  and  C_16 
REMARK    2  A    between atoms: C_6  and  C_7 
REMARK    3  A    between atoms: C_7  and  C_9 
REMARK    4  A    between atoms: C_16  and  C_17 
REMARK    5  A    between atoms: C_17  and  N_18 
ROOT
HETATM    1  C   UNK N   1      33.890  14.773   9.555  0.00  0.00     0.043 C 
HETATM    2  C   UNK N   1      35.161  14.182   8.954  0.00  0.00     0.273 C 
HETATM    3  N   UNK N   1      36.278  14.175   9.907  0.00  0.00     0.090 N 
HETATM    4  C   UNK N   1      36.537  15.456  10.571  0.00  0.00     0.273 C 
HETATM    5  C   UNK N   1      35.265  16.116  11.128  0.00  0.00     0.043 C 
HETATM    6  C   UNK N   1      34.155  16.181  10.080  0.00  0.00     0.064 C 
ENDROOT
BRANCH   3   7
HETATM    7  C   UNK N   1      36.249  13.043  10.829  0.00  0.00     0.292 C 
BRANCH   7   8
HETATM    8  C   UNK N   1      37.498  12.918  11.699  0.00  0.00     0.167 C 
BRANCH   8   9
HETATM    9  N   UNK N   1      37.100  12.314  12.961  0.00  0.00    -0.264 N 
HETATM   10  C   UNK N   1      36.649  13.125  13.979  0.00  0.00     0.264 A 
HETATM   11  O   UNK N   1      36.638  14.339  13.837  0.00  0.00    -0.267 OA
HETATM   12  C   UNK N   1      36.177  12.552  15.161  0.00  0.00     0.059 A 
HETATM   13  C   UNK N   1      35.673  13.340  16.205  0.00  0.00     0.019 A 
HETATM   14  C   UNK N   1      36.188  11.148  15.288  0.00  0.00     0.052 A 
HETATM   15  C   UNK N   1      35.180  12.735  17.362  0.00  0.00     0.001 A 
HETATM   16  C   UNK N   1      35.190  11.342  17.484  0.00  0.00     0.002 A 
HETATM   17  C   UNK N   1      35.696  10.550  16.450  0.00  0.00     0.030 A 
HETATM   18  N   UNK N   1      36.666  10.378  14.279  0.00  0.00    -0.307 N 
HETATM   19  C   UNK N   1      37.118  10.942  13.119  0.00  0.00     0.330 A 
HETATM   20  H   UNK N   1      36.686   9.400  14.384  0.00  0.00     0.170 HD
HETATM   21  O   UNK N   1      37.524  10.222  12.220  0.00  0.00    -0.246 OA
ENDBRANCH   8   9
ENDBRANCH   7   8
ENDBRANCH   3   7
BRANCH   6  22
HETATM   22  C   UNK N   1      34.267  17.208   8.954  0.00  0.00     0.163 C 
HETATM   23  O   UNK N   1      35.150  18.050   9.056  0.00  0.00    -0.292 OA
BRANCH  22  24
HETATM   24  C   UNK N   1      33.412  17.236   7.722  0.00  0.00     0.010 A 
HETATM   25  C   UNK N   1      32.013  17.205   7.781  0.00  0.00     0.018 A 
HETATM   26  C   UNK N   1      31.235  17.225   6.626  0.00  0.00     0.043 A 
HETATM   27  C   UNK N   1      31.853  17.261   5.379  0.00  0.00     0.116 A 
HETATM   28  C   UNK N   1      33.248  17.284   5.292  0.00  0.00     0.043 A 
HETATM   29  F   UNK N   1      31.098  17.266   4.255  0.00  0.00    -0.206 F 
HETATM   30  C   UNK N   1      34.022  17.276   6.458  0.00  0.00     0.018 A 
ENDBRANCH  22  24
ENDBRANCH   6  22
TORSDOF 5
ENDMDL
MODEL 3
REMARK VINA RESULT:      -8.0      3.614      6.323
REMARK  5 active torsions:
REMARK  status: ('A' for Active; 'I' for Inactive)
REMARK    1  A    between atoms: N_3  and  C_16 
REMARK    2  A    between atoms: C_6  and  C_7 
REMARK    3  A    between atoms: C_7  and  C_9 
REMARK    4  A    between atoms: C_16  and  C_17 
REMARK    5  A    between atoms: C_17  and  N_18 
ROOT
HETATM    1  C   UNK N   1      33.959  15.241   8.087  0.00  0.00     0.043 C 
HETATM    2  C   UNK N   1      32.579  15.462   8.698  0.00  0.00     0.273 C 
HETATM    3  N   UNK N   1      31.957  16.709   8.236  0.00  0.00     0.090 N 
HETATM    4  C   UNK N   1      32.799  17.904   8.352  0.00  0.00     0.273 C 
HETATM    5  C   UNK N   1      34.221  17.696   7.809  0.00  0.00     0.043 C 
HETATM    6  C   UNK N   1      34.866  16.433   8.380  0.00  0.00     0.064 C 
ENDROOT
BRANCH   3   7
HETATM    7  C   UNK N   1      31.305  16.587   6.935  0.00  0.00     0.292 C 
BRANCH   7   8
HETATM    8  C   UNK N   1      29.823  16.226   7.014  0.00  0.00     0.167 C 
BRANCH   8   9
HETATM    9  N   UNK N   1      29.067  17.467   7.053  0.00  0.00    -0.264 N 
HETATM   10  C   UNK N   1      28.783  18.116   5.872  0.00  0.00     0.264 A 
HETATM   11  O   UNK N   1      29.210  17.679   4.813  0.00  0.00    -0.267 OA
HETATM   12  C   UNK N   1      27.979  19.258   5.887  0.00  0.00     0.059 A 
HETATM   13  C   UNK N   1      27.635  19.924   4.703  0.00  0.00     0.019 A 
HETATM   14  C   UNK N   1      27.490  19.728   7.122  0.00  0.00     0.052 A 
HETATM   15  C   UNK N   1      26.804  21.046   4.749  0.00  0.00     0.001 A 
HETATM   16  C   UNK N   1      26.318  21.508   5.975  0.00  0.00     0.002 A 
HETATM   17  C   UNK N   1      26.663  20.853   7.160  0.00  0.00     0.030 A 
HETATM   18  N   UNK N   1      27.812  19.085   8.271  0.00  0.00    -0.307 N 
HETATM   19  C   UNK N   1      28.591  17.961   8.252  0.00  0.00     0.330 A 
HETATM   20  H   UNK N   1      27.480  19.431   9.130  0.00  0.00     0.170 HD
HETATM   21  O   UNK N   1      28.848  17.391   9.301  0.00  0.00    -0.246 OA
ENDBRANCH   8   9
ENDBRANCH   7   8
ENDBRANCH   3   7
BRANCH   6  22
HETATM   22  C   UNK N   1      35.356  16.447   9.827  0.00  0.00     0.163 C 
HETATM   23  O   UNK N   1      35.407  17.536  10.384  0.00  0.00    -0.292 OA
BRANCH  22  24
HETATM   24  C   UNK N   1      35.735  15.233  10.622  0.00  0.00     0.010 A 
HETATM   25  C   UNK N   1      34.965  14.772  11.697  0.00  0.00     0.018 A 
HETATM   26  C   UNK N   1      35.336  13.645  12.427  0.00  0.00     0.043 A 
HETATM   27  C   UNK N   1      36.506  12.965  12.100  0.00  0.00     0.116 A 
HETATM   28  C   UNK N   1      37.297  13.410  11.037  0.00  0.00     0.043 A 
HETATM   29  F   UNK N   1      36.875  11.879  12.818  0.00  0.00    -0.206 F 
HETATM   30  C   UNK N   1      36.911  14.536  10.299  0.00  0.00     0.018 A 
ENDBRANCH  22  24
ENDBRANCH   6  22
TORSDOF 5
ENDMDL
MODEL 4
REMARK VINA RESULT:      -7.9      1.996      2.695
REMARK  5 active torsions:
REMARK  status: ('A' for Active; 'I' for Inactive)
REMARK    1  A    between atoms: N_3  and  C_16 
REMARK    2  A    between atoms: C_6  and  C_7 
REMARK    3  A    between atoms: C_7  and  C_9 
REMARK    4  A    between atoms: C_16  and  C_17 
REMARK    5  A    between atoms: C_17  and  N_18 
ROOT
HETATM    1  C   UNK N   1      34.771  13.767  11.701  0.00  0.00     0.043 C 
HETATM    2  C   UNK N   1      35.474  15.104  11.491  0.00  0.00     0.273 C 
HETATM    3  N   UNK N   1      36.218  15.151  10.226  0.00  0.00     0.090 N 
HETATM    4  C   UNK N   1      37.122  14.020   9.994  0.00  0.00     0.273 C 
HETATM    5  C   UNK N   1      36.466  12.657  10.265  0.00  0.00     0.043 C 
HETATM    6  C   UNK N   1      35.776  12.621  11.628  0.00  0.00     0.064 C 
ENDROOT
BRANCH   3   7
HETATM    7  C   UNK N   1      35.382  15.466   9.071  0.00  0.00     0.292 C 
BRANCH   7   8
HETATM    8  C   UNK N   1      34.470  16.674   9.275  0.00  0.00     0.167 C 
BRANCH   8   9
HETATM    9  N   UNK N   1      33.436  16.625   8.254  0.00  0.00    -0.264 N 
HETATM   10  C   UNK N   1      33.657  17.248   7.045  0.00  0.00     0.264 A 
HETATM   11  O   UNK N   1      34.688  17.878   6.859  0.00  0.00    -0.267 OA
HETATM   12  C   UNK N   1      32.712  17.130   6.024  0.00  0.00     0.059 A 
HETATM   13  C   UNK N   1      32.918  17.715   4.767  0.00  0.00     0.019 A 
HETATM   14  C   UNK N   1      31.541  16.384   6.265  0.00  0.00     0.052 A 
HETATM   15  C   UNK N   1      31.968  17.553   3.757  0.00  0.00     0.001 A 
HETATM   16  C   UNK N   1      30.809  16.810   3.998  0.00  0.00     0.002 A 
HETATM   17  C   UNK N   1      30.593  16.229   5.251  0.00  0.00     0.030 A 
HETATM   18  N   UNK N   1      31.338  15.808   7.475  0.00  0.00    -0.307 N 
HETATM   19  C   UNK N   1      32.269  15.916   8.470  0.00  0.00     0.330 A 
HETATM   20  H   UNK N   1      30.509  15.303   7.639  0.00  0.00     0.170 HD
HETATM   21  O   UNK N   1      32.068  15.370   9.543  0.00  0.00    -0.246 OA
ENDBRANCH   8   9
ENDBRANCH   7   8
ENDBRANCH   3   7
BRANCH   6  22
HETATM   22  C   UNK N   1      36.638  12.524  12.886  0.00  0.00     0.163 C 
HETATM   23  O   UNK N   1      37.804  12.185  12.734  0.00  0.00    -0.292 OA
BRANCH  22  24
HETATM   24  C   UNK N   1      36.177  12.851  14.275  0.00  0.00     0.010 A 
HETATM   25  C   UNK N   1      36.806  13.823  15.063  0.00  0.00     0.018 A 
HETATM   26  C   UNK N   1      36.367  14.109  16.354  0.00  0.00     0.043 A 
HETATM   27  C   UNK N   1      35.290  13.408  16.888  0.00  0.00     0.116 A 
HETATM   28  C   UNK N   1      34.650  12.427  16.125  0.00  0.00     0.043 A 
HETATM   29  F   UNK N   1      34.872  13.675  18.147  0.00  0.00    -0.206 F 
HETATM   30  C   UNK N   1      35.088  12.154  14.824  0.00  0.00     0.018 A 
ENDBRANCH  22  24
ENDBRANCH   6  22
TORSDOF 5
ENDMDL
MODEL 5
REMARK VINA RESULT:      -7.8      3.905      9.390
REMARK  5 active torsions:
REMARK  status: ('A' for Active; 'I' for Inactive)
REMARK    1  A    between atoms: N_3  and  C_16 
REMARK    2  A    between atoms: C_6  and  C_7 
REMARK    3  A    between atoms: C_7  and  C_9 
REMARK    4  A    between atoms: C_16  and  C_17 
REMARK    5  A    between atoms: C_17  and  N_18 
ROOT
HETATM    1  C   UNK N   1      32.386  15.614   8.235  0.00  0.00     0.043 C 
HETATM    2  C   UNK N   1      33.380  14.517   7.868  0.00  0.00     0.273 C 
HETATM    3  N   UNK N   1      34.540  14.491   8.769  0.00  0.00     0.090 N 
HETATM    4  C   UNK N   1      35.205  15.783   8.964  0.00  0.00     0.273 C 
HETATM    5  C   UNK N   1      34.225  16.928   9.265  0.00  0.00     0.043 C 
HETATM    6  C   UNK N   1      33.079  16.973   8.256  0.00  0.00     0.064 C 
ENDROOT
BRANCH   3   7
HETATM    7  C   UNK N   1      34.291  13.777  10.018  0.00  0.00     0.292 C 
BRANCH   7   8
HETATM    8  C   UNK N   1      35.493  12.990  10.535  0.00  0.00     0.167 C 
BRANCH   8   9
HETATM    9  N   UNK N   1      35.395  12.933  11.984  0.00  0.00    -0.264 N 
HETATM   10  C   UNK N   1      34.901  11.793  12.579  0.00  0.00     0.264 A 
HETATM   11  O   UNK N   1      34.501  10.866  11.890  0.00  0.00    -0.267 OA
HETATM   12  C   UNK N   1      34.887  11.691  13.972  0.00  0.00     0.059 A 
HETATM   13  C   UNK N   1      34.429  10.532  14.613  0.00  0.00     0.019 A 
HETATM   14  C   UNK N   1      35.369  12.770  14.737  0.00  0.00     0.052 A 
HETATM   15  C   UNK N   1      34.457  10.448  16.007  0.00  0.00     0.001 A 
HETATM   16  C   UNK N   1      34.939  11.520  16.764  0.00  0.00     0.002 A 
HETATM   17  C   UNK N   1      35.391  12.681  16.131  0.00  0.00     0.030 A 
HETATM   18  N   UNK N   1      35.822  13.891  14.123  0.00  0.00    -0.307 N 
HETATM   19  C   UNK N   1      35.843  13.986  12.760  0.00  0.00     0.330 A 
HETATM   20  H   UNK N   1      36.140  14.647  14.667  0.00  0.00     0.170 HD
HETATM   21  O   UNK N   1      36.275  15.000  12.235  0.00  0.00    -0.246 OA
ENDBRANCH   8   9
ENDBRANCH   7   8
ENDBRANCH   3   7
BRANCH   6  22
HETATM   22  C   UNK N   1      33.358  17.503   6.850  0.00  0.00     0.163 C 
HETATM   23  O   UNK N   1      34.397  18.131   6.690  0.00  0.00    -0.292 OA
BRANCH  22  24
HETATM   24  C   UNK N   1      32.484  17.277   5.652  0.00  0.00     0.010 A 
HETATM   25  C   UNK N   1      31.087  17.260   5.738  0.00  0.00     0.018 A 
HETATM   26  C   UNK N   1      30.291  17.042   4.615  0.00  0.00     0.043 A 
HETATM   27  C   UNK N   1      30.890  16.821   3.378  0.00  0.00     0.116 A 
HETATM   28  C   UNK N   1      32.283  16.825   3.267  0.00  0.00     0.043 A 
HETATM   29  F   UNK N   1      30.118  16.595   2.289  0.00  0.00    -0.206 F 
HETATM   30  C   UNK N   1      33.075  17.057   4.397  0.00  0.00     0.018 A 
ENDBRANCH  22  24
ENDBRANCH   6  22
TORSDOF 5
ENDMDL
MODEL 6
REMARK VINA RESULT:      -7.8      2.338      3.554
REMARK  5 active torsions:
REMARK  status: ('A' for Active; 'I' for Inactive)
REMARK    1  A    between atoms: N_3  and  C_16 
REMARK    2  A    between atoms: C_6  and  C_7 
REMARK    3  A    between atoms: C_7  and  C_9 
REMARK    4  A    between atoms: C_16  and  C_17 
REMARK    5  A    between atoms: C_17  and  N_18 
ROOT
HETATM    1  C   UNK N   1      37.054  12.003  14.648  0.00  0.00     0.043 C 
HETATM    2  C   UNK N   1      36.153  11.775  13.439  0.00  0.00     0.273 C 
HETATM    3  N   UNK N   1      36.073  12.957  12.572  0.00  0.00     0.090 N 
HETATM    4  C   UNK N   1      35.751  14.212  13.260  0.00  0.00     0.273 C 
HETATM    5  C   UNK N   1      36.592  14.440  14.525  0.00  0.00     0.043 C 
HETATM    6  C   UNK N   1      36.581  13.217  15.442  0.00  0.00     0.064 C 
ENDROOT
BRANCH   3   7
HETATM    7  C   UNK N   1      37.197  13.079  11.648  0.00  0.00     0.292 C 
BRANCH   7   8
HETATM    8  C   UNK N   1      36.840  12.782  10.193  0.00  0.00     0.167 C 
BRANCH   8   9
HETATM    9  N   UNK N   1      35.615  13.502   9.882  0.00  0.00    -0.264 N 
HETATM   10  C   UNK N   1      35.672  14.863   9.677  0.00  0.00     0.264 A 
HETATM   11  O   UNK N   1      36.731  15.460   9.808  0.00  0.00    -0.267 OA
HETATM   12  C   UNK N   1      34.521  15.551   9.287  0.00  0.00     0.059 A 
HETATM   13  C   UNK N   1      34.547  16.929   9.029  0.00  0.00     0.019 A 
HETATM   14  C   UNK N   1      33.320  14.832   9.128  0.00  0.00     0.052 A 
HETATM   15  C   UNK N   1      33.386  17.583   8.611  0.00  0.00     0.001 A 
HETATM   16  C   UNK N   1      32.197  16.866   8.452  0.00  0.00     0.002 A 
HETATM   17  C   UNK N   1      32.163  15.494   8.713  0.00  0.00     0.030 A 
HETATM   18  N   UNK N   1      33.290  13.498   9.367  0.00  0.00    -0.307 N 
HETATM   19  C   UNK N   1      34.420  12.824   9.739  0.00  0.00     0.330 A 
HETATM   20  H   UNK N   1      32.442  13.007   9.270  0.00  0.00     0.170 HD
HETATM   21  O   UNK N   1      34.366  11.619   9.928  0.00  0.00    -0.246 OA
ENDBRANCH   8   9
ENDBRANCH   7   8
ENDBRANCH   3   7
BRANCH   6  22
HETATM   22  C   UNK N   1      35.324  12.923  16.259  0.00  0.00     0.163 C 
HETATM   23  O   UNK N   1      34.253  13.260  15.771  0.00  0.00    -0.292 OA
BRANCH  22  24
HETATM   24  C   UNK N   1      35.300  12.219  17.583  0.00  0.00     0.010 A 
HETATM   25  C   UNK N   1      35.337  10.823  17.689  0.00  0.00     0.018 A 
HETATM   26  C   UNK N   1      35.308  10.187  18.928  0.00  0.00     0.043 A 
HETATM   27  C   UNK N   1      35.226  10.946  20.092  0.00  0.00     0.116 A 
HETATM   28  C   UNK N   1      35.180  12.341  20.013  0.00  0.00     0.043 A 
HETATM   29  F   UNK N   1      35.184  10.328  21.296  0.00  0.00    -0.206 F 
HETATM   30  C   UNK N   1      35.222  12.973  18.765  0.00  0.00     0.018 A 
ENDBRANCH  22  24
ENDBRANCH   6  22
TORSDOF 5
ENDMDL
MODEL 7
REMARK VINA RESULT:      -7.7      3.830      9.322
REMARK  5 active torsions:
REMARK  status: ('A' for Active; 'I' for Inactive)
REMARK    1  A    between atoms: N_3  and  C_16 
REMARK    2  A    between atoms: C_6  and  C_7 
REMARK    3  A    between atoms: C_7  and  C_9 
REMARK    4  A    between atoms: C_16  and  C_17 
REMARK    5  A    between atoms: C_17  and  N_18 
ROOT
HETATM    1  C   UNK N   1      31.594  16.336   9.145  0.00  0.00     0.043 C 
HETATM    2  C   UNK N   1      32.529  15.159   8.883  0.00  0.00     0.273 C 
HETATM    3  N   UNK N   1      33.937  15.570   8.817  0.00  0.00     0.090 N 
HETATM    4  C   UNK N   1      34.215  16.695   7.918  0.00  0.00     0.273 C 
HETATM    5  C   UNK N   1      33.246  17.872   8.106  0.00  0.00     0.043 C 
HETATM    6  C   UNK N   1      31.788  17.415   8.084  0.00  0.00     0.064 C 
ENDROOT
BRANCH   3   7
HETATM    7  C   UNK N   1      34.565  15.711  10.127  0.00  0.00     0.292 C 
BRANCH   7   8
HETATM    8  C   UNK N   1      35.794  14.827  10.326  0.00  0.00     0.167 C 
BRANCH   8   9
HETATM    9  N   UNK N   1      35.424  13.752  11.233  0.00  0.00    -0.264 N 
HETATM   10  C   UNK N   1      35.592  13.931  12.589  0.00  0.00     0.264 A 
HETATM   11  O   UNK N   1      36.096  14.960  13.014  0.00  0.00    -0.267 OA
HETATM   12  C   UNK N   1      35.154  12.945  13.475  0.00  0.00     0.059 A 
HETATM   13  C   UNK N   1      35.271  13.107  14.863  0.00  0.00     0.019 A 
HETATM   14  C   UNK N   1      34.562  11.777  12.955  0.00  0.00     0.052 A 
HETATM   15  C   UNK N   1      34.796  12.115  15.724  0.00  0.00     0.001 A 
HETATM   16  C   UNK N   1      34.206  10.960  15.204  0.00  0.00     0.002 A 
HETATM   17  C   UNK N   1      34.093  10.789  13.822  0.00  0.00     0.030 A 
HETATM   18  N   UNK N   1      34.438  11.617  11.614  0.00  0.00    -0.307 N 
HETATM   19  C   UNK N   1      34.858  12.589  10.748  0.00  0.00     0.330 A 
HETATM   20  H   UNK N   1      34.039  10.791  11.259  0.00  0.00     0.170 HD
HETATM   21  O   UNK N   1      34.715  12.425   9.547  0.00  0.00    -0.246 OA
ENDBRANCH   8   9
ENDBRANCH   7   8
ENDBRANCH   3   7
BRANCH   6  22
HETATM   22  C   UNK N   1      31.158  17.032   6.745  0.00  0.00     0.163 C 
HETATM   23  O   UNK N   1      29.941  17.124   6.659  0.00  0.00    -0.292 OA
BRANCH  22  24
HETATM   24  C   UNK N   1      31.917  16.598   5.527  0.00  0.00     0.010 A 
HETATM   25  C   UNK N   1      32.326  17.501   4.538  0.00  0.00     0.018 A 
HETATM   26  C   UNK N   1      33.026  17.078   3.411  0.00  0.00     0.043 A 
HETATM   27  C   UNK N   1      33.315  15.726   3.245  0.00  0.00     0.116 A 
HETATM   28  C   UNK N   1      32.911  14.803   4.213  0.00  0.00     0.043 A 
HETATM   29  F   UNK N   1      33.983  15.312   2.142  0.00  0.00    -0.206 F 
HETATM   30  C   UNK N   1      32.220  15.237   5.350  0.00  0.00     0.018 A 
ENDBRANCH  22  24
ENDBRANCH   6  22
TORSDOF 5
ENDMDL
MODEL 8
REMARK VINA RESULT:      -7.7      1.808      2.230
REMARK  5 active torsions:
REMARK  status: ('A' for Active; 'I' for Inactive)
REMARK    1  A    between atoms: N_3  and  C_16 
REMARK    2  A    between atoms: C_6  and  C_7 
REMARK    3  A    between atoms: C_7  and  C_9 
REMARK    4  A    between atoms: C_16  and  C_17 
REMARK    5  A    between atoms: C_17  and  N_18 
ROOT
HETATM    1  C   UNK N   1      35.205  10.995  12.176  0.00  0.00     0.043 C 
HETATM    2  C   UNK N   1      34.548  12.281  11.686  0.00  0.00     0.273 C 
HETATM    3  N   UNK N   1      35.474  13.421  11.698  0.00  0.00     0.090 N 
HETATM    4  C   UNK N   1      36.191  13.625  12.960  0.00  0.00     0.273 C 
HETATM    5  C   UNK N   1      36.807  12.334  13.522  0.00  0.00     0.043 C 
HETATM    6  C   UNK N   1      35.788  11.196  13.572  0.00  0.00     0.064 C 
ENDROOT
BRANCH   3   7
HETATM    7  C   UNK N   1      36.343  13.477  10.526  0.00  0.00     0.292 C 
BRANCH   7   8
HETATM    8  C   UNK N   1      36.830  14.883  10.181  0.00  0.00     0.167 C 
BRANCH   8   9
HETATM    9  N   UNK N   1      35.729  15.589   9.546  0.00  0.00    -0.264 N 
HETATM   10  C   UNK N   1      35.348  15.231   8.272  0.00  0.00     0.264 A 
HETATM   11  O   UNK N   1      35.967  14.367   7.667  0.00  0.00    -0.267 OA
HETATM   12  C   UNK N   1      34.234  15.837   7.687  0.00  0.00     0.059 A 
HETATM   13  C   UNK N   1      33.792  15.471   6.408  0.00  0.00     0.019 A 
HETATM   14  C   UNK N   1      33.533  16.817   8.416  0.00  0.00     0.052 A 
HETATM   15  C   UNK N   1      32.656  16.074   5.864  0.00  0.00     0.001 A 
HETATM   16  C   UNK N   1      31.961  17.044   6.591  0.00  0.00     0.002 A 
HETATM   17  C   UNK N   1      32.400  17.418   7.864  0.00  0.00     0.030 A 
HETATM   18  N   UNK N   1      33.950  17.170   9.657  0.00  0.00    -0.307 N 
HETATM   19  C   UNK N   1      35.035  16.568  10.232  0.00  0.00     0.330 A 
HETATM   20  H   UNK N   1      33.464  17.869  10.152  0.00  0.00     0.170 HD
HETATM   21  O   UNK N   1      35.375  16.893  11.359  0.00  0.00    -0.246 OA
ENDBRANCH   8   9
ENDBRANCH   7   8
ENDBRANCH   3   7
BRANCH   6  22
HETATM   22  C   UNK N   1      34.709  11.222  14.653  0.00  0.00     0.163 C 
HETATM   23  O   UNK N   1      33.592  10.838  14.332  0.00  0.00    -0.292 OA
BRANCH  22  24
HETATM   24  C   UNK N   1      34.925  11.639  16.078  0.00  0.00     0.010 A 
HETATM   25  C   UNK N   1      35.212  10.717  17.092  0.00  0.00     0.018 A 
HETATM   26  C   UNK N   1      35.403  11.123  18.411  0.00  0.00     0.043 A 
HETATM   27  C   UNK N   1      35.294  12.471  18.741  0.00  0.00     0.116 A 
HETATM   28  C   UNK N   1      35.000  13.410  17.749  0.00  0.00     0.043 A 
HETATM   29  F   UNK N   1      35.466  12.864  20.025  0.00  0.00    -0.206 F 
HETATM   30  C   UNK N   1      34.821  12.996  16.423  0.00  0.00     0.018 A 
ENDBRANCH  22  24
ENDBRANCH   6  22
TORSDOF 5
ENDMDL
MODEL 9
REMARK VINA RESULT:      -7.6      7.871     13.838
REMARK  5 active torsions:
REMARK  status: ('A' for Active; 'I' for Inactive)
REMARK    1  A    between atoms: N_3  and  C_16 
REMARK    2  A    between atoms: C_6  and  C_7 
REMARK    3  A    between atoms: C_7  and  C_9 
REMARK    4  A    between atoms: C_16  and  C_17 
REMARK    5  A    between atoms: C_17  and  N_18 
ROOT
HETATM    1  C   UNK N   1      26.468  20.555   3.393  0.00  0.00     0.043 C 
HETATM    2  C   UNK N   1      26.511  20.756   4.905  0.00  0.00     0.273 C 
HETATM    3  N   UNK N   1      26.616  19.485   5.634  0.00  0.00     0.090 N 
HETATM    4  C   UNK N   1      25.635  18.466   5.250  0.00  0.00     0.273 C 
HETATM    5  C   UNK N   1      25.513  18.287   3.728  0.00  0.00     0.043 C 
HETATM    6  C   UNK N   1      25.320  19.624   3.014  0.00  0.00     0.064 C 
ENDROOT
BRANCH   3   7
HETATM    7  C   UNK N   1      27.980  18.971   5.714  0.00  0.00     0.292 C 
BRANCH   7   8
HETATM    8  C   UNK N   1      28.108  17.670   6.504  0.00  0.00     0.167 C 
BRANCH   8   9
HETATM    9  N   UNK N   1      29.450  17.622   7.061  0.00  0.00    -0.264 N 
HETATM   10  C   UNK N   1      30.490  17.187   6.268  0.00  0.00     0.264 A 
HETATM   11  O   UNK N   1      30.272  16.797   5.130  0.00  0.00    -0.267 OA
HETATM   12  C   UNK N   1      31.796  17.223   6.761  0.00  0.00     0.059 A 
HETATM   13  C   UNK N   1      32.885  16.827   5.971  0.00  0.00     0.019 A 
HETATM   14  C   UNK N   1      32.016  17.693   8.071  0.00  0.00     0.052 A 
HETATM   15  C   UNK N   1      34.182  16.905   6.482  0.00  0.00     0.001 A 
HETATM   16  C   UNK N   1      34.397  17.374   7.781  0.00  0.00     0.002 A 
HETATM   17  C   UNK N   1      33.316  17.764   8.576  0.00  0.00     0.030 A 
HETATM   18  N   UNK N   1      30.969  18.086   8.837  0.00  0.00    -0.307 N 
HETATM   19  C   UNK N   1      29.692  18.059   8.350  0.00  0.00     0.330 A 
HETATM   20  H   UNK N   1      31.130  18.396   9.757  0.00  0.00     0.170 HD
HETATM   21  O   UNK N   1      28.771  18.437   9.057  0.00  0.00    -0.246 OA
ENDBRANCH   8   9
ENDBRANCH   7   8
ENDBRANCH   3   7
BRANCH   6  22
HETATM   22  C   UNK N   1      23.959  20.314   3.102  0.00  0.00     0.163 C 
HETATM   23  O   UNK N   1      23.953  21.537   3.051  0.00  0.00    -0.292 OA
BRANCH  22  24
HETATM   24  C   UNK N   1      22.639  19.610   3.200  0.00  0.00     0.010 A 
HETATM   25  C   UNK N   1      22.450  18.483   4.009  0.00  0.00     0.018 A 
HETATM   26  C   UNK N   1      21.217  17.839   4.083  0.00  0.00     0.043 A 
HETATM   27  C   UNK N   1      20.146  18.308   3.326  0.00  0.00     0.116 A 
HETATM   28  C   UNK N   1      20.311  19.426   2.504  0.00  0.00     0.043 A 
HETATM   29  F   UNK N   1      18.952  17.674   3.386  0.00  0.00    -0.206 F 
HETATM   30  C   UNK N   1      21.550  20.076   2.445  0.00  0.00     0.018 A 
ENDBRANCH  22  24
ENDBRANCH   6  22
TORSDOF 5
ENDMDL
