REMARK  10 active torsions:
REMARK  status: ('A' for Active; 'I' for Inactive)
REMARK    1  A    between atoms: C_2  and  C_5 
REMARK    2  A    between atoms: C_7  and  C_16 
REMARK    3  A    between atoms: C_10  and  N_11 
REMARK    4  A    between atoms: C_18  and  C_26 
REMARK    5  A    between atoms: C_21  and  O_22 
REMARK    6  A    between atoms: O_22  and  C_23 
REMARK    7  A    between atoms: C_23  and  C_24 
REMARK    8  A    between atoms: C_24  and  O_25 
REMARK    9  A    between atoms: C_29  and  C_32 
REMARK   10  A    between atoms: C_32  and  O_34 
ROOT
HETATM    1  C   UNK N   1      -2.482  -0.177  -0.605  0.00  0.00     0.008 A 
HETATM    2  C   UNK N   1      -3.697   0.516  -0.524  0.00  0.00     0.027 A 
HETATM    3  C   UNK N   1      -3.822   1.893  -0.541  0.00  0.00    -0.025 A 
HETATM    4  C   UNK N   1      -2.672   2.664  -0.671  0.00  0.00     0.015 A 
HETATM    5  C   UNK N   1      -1.428   2.035  -0.777  0.00  0.00     0.038 A 
HETATM    6  C   UNK N   1      -1.283   0.633  -0.735  0.00  0.00     0.080 A 
ENDROOT
BRANCH   1   7
HETATM    7  C   UNK N   1      -2.663  -1.678  -0.484  0.00  0.00    -0.022 A 
HETATM    8  C   UNK N   1      -3.977  -2.168  -0.430  0.00  0.00     0.022 A 
HETATM    9  C   UNK N   1      -4.319  -3.512  -0.234  0.00  0.00    -0.023 A 
HETATM   10  C   UNK N   1      -3.238  -4.454  -0.071  0.00  0.00     0.037 A 
HETATM   11  C   UNK N   1      -1.921  -3.957  -0.151  0.00  0.00     0.031 A 
HETATM   12  C   UNK N   1      -1.644  -2.606  -0.349  0.00  0.00     0.014 A 
BRANCH   9  13
HETATM   13  C   UNK N   1      -5.824  -3.828  -0.200  0.00  0.00    -0.022 C 
HETATM   14  C   UNK N   1      -6.245  -4.353   1.162  0.00  0.00     0.019 C 
HETATM   15  C   UNK N   1      -6.197  -4.798  -1.307  0.00  0.00     0.019 C 
HETATM   16  C   UNK N   1      -6.696  -2.594  -0.433  0.00  0.00     0.019 C 
ENDBRANCH   9  13
BRANCH  10  17
HETATM   17  N   UNK N   1      -3.392  -5.864   0.193  0.00  0.00    -0.380 N 
HETATM   18  C   UNK N   1      -2.242  -6.702   0.403  0.00  0.00     0.123 C 
HETATM   19  C   UNK N   1      -2.782  -8.028   0.900  0.00  0.00     0.021 C 
HETATM   20  C   UNK N   1      -4.290  -7.981   0.708  0.00  0.00     0.021 C 
HETATM   21  C   UNK N   1      -4.638  -6.545   0.374  0.00  0.00     0.123 C 
ENDBRANCH  10  17
ENDBRANCH   1   7
BRANCH   6  22
HETATM   22  O   UNK N   1       0.007   0.201  -0.811  0.00  0.00    -0.348 OA
BRANCH  22  23
HETATM   23  C   UNK N   1       0.510  -1.069  -0.811  0.00  0.00     0.201 C 
BRANCH  23  24
HETATM   24  C   UNK N   1       1.296  -1.295   0.465  0.00  0.00     0.190 C 
BRANCH  24  25
HETATM   25  O   UNK N   1       1.538  -2.659   0.628  0.00  0.00    -0.399 OA
HETATM   26  H   UNK N   1       0.800  -3.278   0.742  0.00  0.00     0.209 HD
ENDBRANCH  24  25
ENDBRANCH  23  24
ENDBRANCH  22  23
ENDBRANCH   6  22
BRANCH   3  27
HETATM   27  C   UNK N   1      -5.168   2.475  -0.332  0.00  0.00    -0.026 A 
HETATM   28  C   UNK N   1      -6.272   1.613  -0.204  0.00  0.00     0.013 A 
HETATM   29  C   UNK N   1      -7.540   2.112   0.073  0.00  0.00     0.019 A 
HETATM   30  C   UNK N   1      -7.733   3.485   0.238  0.00  0.00     0.037 A 
HETATM   31  C   UNK N   1      -6.640   4.358   0.100  0.00  0.00     0.019 A 
HETATM   32  C   UNK N   1      -5.363   3.856  -0.185  0.00  0.00     0.013 A 
BRANCH  30  33
HETATM   33  C   UNK N   1      -9.072   4.002   0.575  0.00  0.00     0.176 C 
HETATM   34  O   UNK N   1     -10.017   3.234   0.693  0.00  0.00    -0.646 OA
BRANCH  33  35
HETATM   35  O   UNK N   1      -9.262   5.320   0.774  0.00  0.00    -0.773 OA
HETATM   36  H   UNK N   1      -8.534   5.893   0.912  0.00  0.00     0.167 HD
ENDBRANCH  33  35
ENDBRANCH  30  33
ENDBRANCH   3  27
TORSDOF 10
