REMARK  12 active torsions:
REMARK  status: ('A' for Active; 'I' for Inactive)
REMARK    1  A    between atoms: C_1  and  O_32 
REMARK    2  A    between atoms: C_2  and  O_10 
REMARK    3  A    between atoms: C_4  and  C_5 
REMARK    4  A    between atoms: C_5  and  O_6 
REMARK    5  A    between atoms: C_7  and  O_33 
REMARK    6  A    between atoms: C_8  and  O_9 
REMARK    7  A    between atoms: O_10  and  C_11 
REMARK    8  A    between atoms: C_15  and  C_16 
REMARK    9  A    between atoms: C_19  and  O_20 
REMARK   10  A    between atoms: C_22  and  O_28 
REMARK   11  A    between atoms: C_26  and  O_27 
REMARK   12  A    between atoms: C_30  and  O_31 
ROOT
HETATM    1  C   UNK N   1       0.199   0.084  -0.025  0.00  0.00     0.157 A 
HETATM    2  C   UNK N   1      -1.098  -0.482  -0.129  0.00  0.00     0.223 A 
HETATM    3  O   UNK N   1      -1.245  -1.685  -0.236  0.00  0.00    -0.284 OA
HETATM    4  O   UNK N   1      -0.798   2.248   0.055  0.00  0.00    -0.306 OA
HETATM    5  C   UNK N   1       0.305   1.500   0.048  0.00  0.00     0.124 A 
HETATM    6  C   UNK N   1      -4.636   0.736  -0.127  0.00  0.00     0.074 A 
HETATM    7  C   UNK N   1      -3.555  -0.147  -0.170  0.00  0.00     0.085 A 
HETATM    8  C   UNK N   1      -2.228   0.354  -0.105  0.00  0.00     0.084 A 
HETATM    9  C   UNK N   1      -2.025   1.746  -0.003  0.00  0.00     0.096 A 
HETATM   10  C   UNK N   1      -3.121   2.613   0.036  0.00  0.00     0.075 A 
HETATM   11  C   UNK N   1      -4.422   2.110  -0.023  0.00  0.00     0.071 A 
ENDROOT
BRANCH   1  12
HETATM   12  O   UNK N   1       1.343  -0.663   0.014  0.00  0.00    -0.311 OA
BRANCH  12  13
HETATM   13  C   UNK N   1       1.505  -2.021  -0.173  0.00  0.00     0.298 C 
HETATM   14  C   UNK N   1       2.976  -2.418   0.004  0.00  0.00     0.205 C 
HETATM   15  C   UNK N   1       3.101  -3.913  -0.325  0.00  0.00     0.183 C 
HETATM   16  C   UNK N   1       2.018  -4.750   0.377  0.00  0.00     0.180 C 
HETATM   17  C   UNK N   1       0.674  -4.034   0.195  0.00  0.00     0.179 C 
HETATM   18  O   UNK N   1       0.774  -2.759   0.769  0.00  0.00    -0.348 OA
BRANCH  14  19
HETATM   19  O   UNK N   1       3.797  -1.676  -0.846  0.00  0.00    -0.388 OA
HETATM   20  H   UNK N   1       4.529  -1.911  -1.437  0.00  0.00     0.210 HD
ENDBRANCH  14  19
BRANCH  15  21
HETATM   21  O   UNK N   1       4.370  -4.382   0.017  0.00  0.00    -0.390 OA
HETATM   22  H   UNK N   1       4.530  -5.308   0.255  0.00  0.00     0.210 HD
ENDBRANCH  15  21
BRANCH  16  23
HETATM   23  O   UNK N   1       1.976  -6.023  -0.194  0.00  0.00    -0.390 OA
HETATM   24  H   UNK N   1       1.195  -6.440  -0.590  0.00  0.00     0.210 HD
ENDBRANCH  16  23
BRANCH  17  25
HETATM   25  C   UNK N   1      -0.500  -4.781   0.796  0.00  0.00     0.198 C 
BRANCH  25  26
HETATM   26  O   UNK N   1      -1.168  -5.475  -0.212  0.00  0.00    -0.398 OA
HETATM   27  H   UNK N   1      -1.818  -5.313  -0.914  0.00  0.00     0.209 HD
ENDBRANCH  25  26
ENDBRANCH  17  25
ENDBRANCH  12  13
ENDBRANCH   1  12
BRANCH   5  28
HETATM   28  C   UNK N   1       1.623   2.204   0.084  0.00  0.00     0.004 A 
HETATM   29  C   UNK N   1       1.652   3.608   0.107  0.00  0.00     0.017 A 
HETATM   30  C   UNK N   1       2.871   4.295   0.098  0.00  0.00     0.040 A 
HETATM   31  C   UNK N   1       4.076   3.588   0.063  0.00  0.00     0.098 A 
HETATM   32  C   UNK N   1       4.061   2.189   0.041  0.00  0.00     0.099 A 
HETATM   33  C   UNK N   1       2.844   1.508   0.050  0.00  0.00     0.053 A 
BRANCH  31  34
HETATM   34  O   UNK N   1       5.243   4.255   0.049  0.00  0.00    -0.358 OA
HETATM   35  H   UNK N   1       6.052   3.783   0.039  0.00  0.00     0.217 HD
ENDBRANCH  31  34
BRANCH  32  36
HETATM   36  O   UNK N   1       5.212   1.496   0.007  0.00  0.00    -0.358 OA
HETATM   37  H   UNK N   1       5.194   0.559  -0.017  0.00  0.00     0.217 HD
ENDBRANCH  32  36
ENDBRANCH   5  28
BRANCH   7  38
HETATM   38  O   UNK N   1      -3.804  -1.466  -0.265  0.00  0.00    -0.360 OA
HETATM   39  H   UNK N   1      -4.686  -1.775  -0.330  0.00  0.00     0.217 HD
ENDBRANCH   7  38
BRANCH  11  40
HETATM   40  O   UNK N   1      -5.469   2.948   0.023  0.00  0.00    -0.361 OA
HETATM   41  H   UNK N   1      -5.328   3.874   0.054  0.00  0.00     0.217 HD
ENDBRANCH  11  40
TORSDOF 12
