REMARK  14 active torsions:
REMARK  status: ('A' for Active; 'I' for Inactive)
REMARK    1  A    between atoms: C_2  and  C_5 
REMARK    2  A    between atoms: C_8  and  C_11 
REMARK    3  A    between atoms: N_18  and  C_23 
REMARK    4  A    between atoms: C_19  and  C_20 
REMARK    5  A    between atoms: C_20  and  O_22 
REMARK    6  A    between atoms: C_23  and  C_24 
REMARK    7  A    between atoms: C_26  and  O_35 
REMARK    8  A    between atoms: C_28  and  O_30 
REMARK    9  A    between atoms: O_30  and  C_31 
REMARK   10  A    between atoms: C_31  and  C_32 
REMARK   11  A    between atoms: C_32  and  O_33 
REMARK   12  A    between atoms: O_35  and  C_36 
REMARK   13  A    between atoms: C_36  and  C_37 
REMARK   14  A    between atoms: C_37  and  O_38 
ROOT
HETATM    1  C   UNK N   1       0.581   0.631   0.139  0.00  0.00     0.020 A 
HETATM    2  C   UNK N   1       1.942   0.383   0.211  0.00  0.00     0.004 A 
HETATM    3  C   UNK N   1       3.001   1.251   0.506  0.00  0.00     0.014 A 
HETATM    4  C   UNK N   1       4.309   0.765   0.451  0.00  0.00     0.001 A 
HETATM    5  C   UNK N   1       4.536  -0.563   0.074  0.00  0.00     0.002 A 
HETATM    6  C   UNK N   1       3.459  -1.401  -0.233  0.00  0.00     0.030 A 
HETATM    7  C   UNK N   1       2.156  -0.917  -0.141  0.00  0.00     0.046 A 
HETATM    8  N   UNK N   1       0.980  -1.553  -0.409  0.00  0.00    -0.336 N 
HETATM    9  C   UNK N   1      -0.008  -0.617  -0.209  0.00  0.00     0.121 A 
ENDROOT
BRANCH   8  10
HETATM   10  C   UNK N   1       0.739  -2.904  -0.987  0.00  0.00     0.168 C 
BRANCH  10  11
HETATM   11  C   UNK N   1       1.612  -4.082  -0.610  0.00  0.00    -0.035 A 
HETATM   12  C   UNK N   1       2.991  -3.977  -0.654  0.00  0.00     0.045 A 
HETATM   13  C   UNK N   1       3.839  -5.047  -0.389  0.00  0.00     0.072 A 
HETATM   14  C   UNK N   1       3.280  -6.301  -0.137  0.00  0.00     0.073 A 
HETATM   15  C   UNK N   1       1.887  -6.470  -0.179  0.00  0.00     0.072 A 
HETATM   16  C   UNK N   1       1.051  -5.351  -0.410  0.00  0.00     0.045 A 
BRANCH  13  17
HETATM   17  O   UNK N   1       5.187  -4.884  -0.411  0.00  0.00    -0.349 OA
BRANCH  17  18
HETATM   18  C   UNK N   1       5.781  -3.687  -0.770  0.00  0.00     0.201 C 
BRANCH  18  19
HETATM   19  C   UNK N   1       7.025  -3.421   0.063  0.00  0.00     0.193 C 
BRANCH  19  20
HETATM   20  O   UNK N   1       6.916  -2.193   0.722  0.00  0.00    -0.394 OA
HETATM   21  C   UNK N   1       7.711  -1.306  -0.009  0.00  0.00     0.201 C 
ENDBRANCH  19  20
ENDBRANCH  18  19
ENDBRANCH  17  18
ENDBRANCH  13  17
BRANCH  15  22
HETATM   22  O   UNK N   1       1.381  -7.718  -0.051  0.00  0.00    -0.349 OA
BRANCH  22  23
HETATM   23  C   UNK N   1       0.210  -8.106  -0.666  0.00  0.00     0.201 C 
BRANCH  23  24
HETATM   24  C   UNK N   1      -0.894  -8.291   0.349  0.00  0.00     0.193 C 
BRANCH  24  25
HETATM   25  O   UNK N   1      -1.593  -7.093   0.484  0.00  0.00    -0.394 OA
HETATM   26  C   UNK N   1      -2.922  -7.479   0.650  0.00  0.00     0.201 C 
ENDBRANCH  24  25
ENDBRANCH  23  24
ENDBRANCH  22  23
ENDBRANCH  15  22
ENDBRANCH  10  11
ENDBRANCH   8  10
BRANCH   9  27
HETATM   27  C   UNK N   1      -1.465  -0.927  -0.376  0.00  0.00     0.194 C 
HETATM   28  O   UNK N   1      -2.315  -0.087  -0.144  0.00  0.00    -0.645 OA
BRANCH  27  29
HETATM   29  O   UNK N   1      -1.866  -2.170  -0.698  0.00  0.00    -0.772 OA
HETATM   30  H   UNK N   1      -2.756  -2.361  -0.922  0.00  0.00     0.167 HD
ENDBRANCH  27  29
ENDBRANCH   9  27
BRANCH   1  31
HETATM   31  C   UNK N   1       0.013   2.015   0.292  0.00  0.00    -0.022 A 
HETATM   32  C   UNK N   1       0.876   3.067   0.639  0.00  0.00     0.013 A 
HETATM   33  C   UNK N   1       0.457   4.390   0.631  0.00  0.00     0.009 A 
HETATM   34  C   UNK N   1      -0.851   4.713   0.260  0.00  0.00    -0.051 A 
HETATM   35  C   UNK N   1      -1.735   3.670  -0.076  0.00  0.00     0.009 A 
HETATM   36  C   UNK N   1      -1.300   2.338  -0.067  0.00  0.00     0.013 A 
BRANCH  34  37
HETATM   37  C   UNK N   1      -1.308   6.157   0.209  0.00  0.00    -0.024 C 
HETATM   38  C   UNK N   1      -1.762   6.504  -1.198  0.00  0.00     0.019 C 
HETATM   39  C   UNK N   1      -2.465   6.360   1.167  0.00  0.00     0.019 C 
HETATM   40  C   UNK N   1      -0.206   7.138   0.592  0.00  0.00     0.019 C 
ENDBRANCH  34  37
ENDBRANCH   1  31
TORSDOF 14
