MODEL 1
REMARK VINA RESULT:      -9.1      0.000      0.000
REMARK  5 active torsions:
REMARK  status: ('A' for Active; 'I' for Inactive)
REMARK    1  A    between atoms: N_37  and  C_17 
REMARK    2  A    between atoms: C_25  and  C_20 
REMARK    3  A    between atoms: C_26  and  C_21 
REMARK    4  A    between atoms: C_23  and  C_22 
REMARK    5  A    between atoms: N_39  and  C_24 
REMARK       I    between atoms: N_37  and  C_25 
ROOT
HETATM    1  C   UNK N   1      30.644  17.555   8.225  0.00  0.00     0.045 C 
HETATM    2  C   UNK N   1      30.637  15.529   6.555  0.00  0.00     0.045 C 
HETATM    3  C   UNK N   1      32.133  17.702   7.916  0.00  0.00     0.126 C 
HETATM    4  C   UNK N   1      32.147  15.718   6.459  0.00  0.00     0.126 C 
HETATM    5  C   UNK N   1      29.901  16.741   7.143  0.00  0.00     0.090 C 
HETATM    6  N   UNK N   1      32.640  16.385   7.645  0.00  0.00    -0.365 N 
ENDROOT
BRANCH   6   7
HETATM    7  C   UNK N   1      33.429  15.742   8.649  0.00  0.00     0.129 A 
HETATM    8  C   UNK N   1      34.659  15.108   8.370  0.00  0.00     0.022 A 
HETATM    9  C   UNK N   1      35.192  15.088   7.070  0.00  0.00     0.016 A 
HETATM   10  C   UNK N   1      35.334  14.415   9.411  0.00  0.00     0.008 A 
HETATM   11  C   UNK N   1      36.365  14.399   6.785  0.00  0.00     0.001 A 
HETATM   12  C   UNK N   1      37.022  13.712   7.798  0.00  0.00     0.001 A 
HETATM   13  C   UNK N   1      36.506  13.724   9.093  0.00  0.00     0.015 A 
HETATM   14  C   UNK N   1      34.769  14.405  10.717  0.00  0.00     0.087 A 
HETATM   15  N   UNK N   1      33.570  15.029  10.887  0.00  0.00    -0.296 N 
HETATM   16  N   UNK N   1      32.926  15.651   9.904  0.00  0.00    -0.284 N 
ATOM     17  HN  UNK N   1      33.145  15.020  11.814  1.00  0.00     0.187 HD
ATOM     18  HN  UNK N   1      32.019  16.074  10.102  1.00  0.00     0.188 HD
BRANCH  14  19
HETATM   19  C   UNK N   1      35.327  13.740  11.952  0.00  0.00     0.080 A 
HETATM   20  C   UNK N   1      36.028  14.480  12.893  0.00  0.00     0.052 A 
HETATM   21  C   UNK N   1      36.402  13.576  13.868  0.00  0.00     0.110 A 
HETATM   22  N   UNK N   1      35.960  12.356  13.519  0.00  0.00    -0.310 N 
HETATM   23  N   UNK N   1      35.314  12.445  12.371  0.00  0.00    -0.295 N 
ATOM     24  HN  UNK N   1      36.098  11.499  14.056  1.00  0.00     0.186 HD
HETATM   25  C   UNK N   1      34.786  11.252  11.738  0.00  0.00     0.178 C 
ENDBRANCH  14  19
ENDBRANCH   6   7
BRANCH   5  26
HETATM   26  N   UNK N   1      29.194  17.554   6.173  0.00  0.00    -0.347 N 
HETATM   27  C   UNK N   1      29.907  17.843   4.954  0.00  0.00     0.153 C 
HETATM   28  C   UNK N   1      27.868  17.882   6.332  0.00  0.00     0.254 C 
HETATM   29  O   UNK N   1      27.291  17.551   7.356  0.00  0.00    -0.267 OA
BRANCH  28  30
HETATM   30  C   UNK N   1      27.076  18.568   5.256  0.00  0.00     0.047 A 
HETATM   31  C   UNK N   1      26.525  17.808   4.211  0.00  0.00     0.021 A 
HETATM   32  C   UNK N   1      25.749  18.399   3.217  0.00  0.00     0.043 A 
HETATM   33  C   UNK N   1      25.496  19.765   3.254  0.00  0.00     0.117 A 
HETATM   34  C   UNK N   1      26.021  20.543   4.284  0.00  0.00     0.059 A 
HETATM   35  F   UNK N   1      24.725  20.337   2.300  0.00  0.00    -0.206 F 
HETATM   36  C   UNK N   1      26.819  19.974   5.289  0.00  0.00     0.066 A 
BRANCH  36  37
HETATM   37  C   UNK N   1      27.297  20.873   6.414  0.00  0.00     0.418 C 
HETATM   38  F   UNK N   1      27.168  22.199   6.038  0.00  0.00    -0.166 F 
HETATM   39  F   UNK N   1      26.569  20.640   7.566  0.00  0.00    -0.166 F 
HETATM   40  F   UNK N   1      28.630  20.641   6.702  0.00  0.00    -0.166 F 
ENDBRANCH  36  37
ENDBRANCH  28  30
ENDBRANCH   5  26
TORSDOF 5
ENDMDL
MODEL 2
REMARK VINA RESULT:      -8.8      1.481      2.053
REMARK  5 active torsions:
REMARK  status: ('A' for Active; 'I' for Inactive)
REMARK    1  A    between atoms: N_37  and  C_17 
REMARK    2  A    between atoms: C_25  and  C_20 
REMARK    3  A    between atoms: C_26  and  C_21 
REMARK    4  A    between atoms: C_23  and  C_22 
REMARK    5  A    between atoms: N_39  and  C_24 
REMARK       I    between atoms: N_37  and  C_25 
ROOT
HETATM    1  C   UNK N   1      31.054  17.637   8.257  0.00  0.00     0.045 C 
HETATM    2  C   UNK N   1      30.769  15.447   6.838  0.00  0.00     0.045 C 
HETATM    3  C   UNK N   1      32.533  17.598   7.875  0.00  0.00     0.126 C 
HETATM    4  C   UNK N   1      32.284  15.471   6.662  0.00  0.00     0.126 C 
HETATM    5  C   UNK N   1      30.183  16.785   7.309  0.00  0.00     0.090 C 
HETATM    6  N   UNK N   1      32.897  16.214   7.741  0.00  0.00    -0.365 N 
ENDROOT
BRANCH   6   7
HETATM    7  C   UNK N   1      33.672  15.612   8.781  0.00  0.00     0.129 A 
HETATM    8  C   UNK N   1      34.897  14.954   8.543  0.00  0.00     0.022 A 
HETATM    9  C   UNK N   1      35.439  14.864   7.251  0.00  0.00     0.016 A 
HETATM   10  C   UNK N   1      35.556  14.305   9.622  0.00  0.00     0.008 A 
HETATM   11  C   UNK N   1      36.608  14.151   7.008  0.00  0.00     0.001 A 
HETATM   12  C   UNK N   1      37.249  13.506   8.059  0.00  0.00     0.001 A 
HETATM   13  C   UNK N   1      36.723  13.587   9.348  0.00  0.00     0.015 A 
HETATM   14  C   UNK N   1      34.981  14.364  10.923  0.00  0.00     0.087 A 
HETATM   15  N   UNK N   1      33.788  15.008  11.052  0.00  0.00    -0.296 N 
HETATM   16  N   UNK N   1      33.158  15.588  10.035  0.00  0.00    -0.284 N 
ATOM     17  HN  UNK N   1      33.356  15.048  11.975  1.00  0.00     0.187 HD
ATOM     18  HN  UNK N   1      32.254  16.030  10.204  1.00  0.00     0.188 HD
BRANCH  14  19
HETATM   19  C   UNK N   1      35.522  13.754  12.193  0.00  0.00     0.080 A 
HETATM   20  C   UNK N   1      36.122  14.552  13.156  0.00  0.00     0.052 A 
HETATM   21  C   UNK N   1      36.509  13.688  14.161  0.00  0.00     0.110 A 
HETATM   22  N   UNK N   1      36.172  12.436  13.809  0.00  0.00    -0.310 N 
HETATM   23  N   UNK N   1      35.580  12.466  12.629  0.00  0.00    -0.295 N 
ATOM     24  HN  UNK N   1      36.343  11.597  14.364  1.00  0.00     0.186 HD
HETATM   25  C   UNK N   1      35.169  11.232  11.989  0.00  0.00     0.178 C 
ENDBRANCH  14  19
ENDBRANCH   6   7
BRANCH   5  26
HETATM   26  N   UNK N   1      29.508  17.550   6.279  0.00  0.00    -0.347 N 
HETATM   27  C   UNK N   1      30.132  17.545   4.979  0.00  0.00     0.153 C 
HETATM   28  C   UNK N   1      28.264  18.101   6.484  0.00  0.00     0.254 C 
HETATM   29  O   UNK N   1      27.750  18.015   7.587  0.00  0.00    -0.267 OA
BRANCH  28  30
HETATM   30  C   UNK N   1      27.478  18.740   5.376  0.00  0.00     0.047 A 
HETATM   31  C   UNK N   1      27.721  20.082   5.039  0.00  0.00     0.021 A 
HETATM   32  C   UNK N   1      27.044  20.700   3.991  0.00  0.00     0.043 A 
HETATM   33  C   UNK N   1      26.116  19.983   3.245  0.00  0.00     0.117 A 
HETATM   34  C   UNK N   1      25.861  18.647   3.549  0.00  0.00     0.059 A 
HETATM   35  F   UNK N   1      25.472  20.577   2.213  0.00  0.00    -0.206 F 
HETATM   36  C   UNK N   1      26.519  18.006   4.610  0.00  0.00     0.066 A 
BRANCH  36  37
HETATM   37  C   UNK N   1      26.239  16.532   4.835  0.00  0.00     0.418 C 
HETATM   38  F   UNK N   1      25.270  16.100   3.945  0.00  0.00    -0.166 F 
HETATM   39  F   UNK N   1      27.391  15.787   4.672  0.00  0.00    -0.166 F 
HETATM   40  F   UNK N   1      25.768  16.306   6.117  0.00  0.00    -0.166 F 
ENDBRANCH  36  37
ENDBRANCH  28  30
ENDBRANCH   5  26
TORSDOF 5
ENDMDL
MODEL 3
REMARK VINA RESULT:      -8.6      6.527     11.695
REMARK  5 active torsions:
REMARK  status: ('A' for Active; 'I' for Inactive)
REMARK    1  A    between atoms: N_37  and  C_17 
REMARK    2  A    between atoms: C_25  and  C_20 
REMARK    3  A    between atoms: C_26  and  C_21 
REMARK    4  A    between atoms: C_23  and  C_22 
REMARK    5  A    between atoms: N_39  and  C_24 
REMARK       I    between atoms: N_37  and  C_25 
ROOT
HETATM    1  C   UNK N   1      34.941  11.719  11.471  0.00  0.00     0.045 C 
HETATM    2  C   UNK N   1      35.408  14.055  12.572  0.00  0.00     0.045 C 
HETATM    3  C   UNK N   1      36.127  12.003  10.551  0.00  0.00     0.126 C 
HETATM    4  C   UNK N   1      36.472  14.249  11.496  0.00  0.00     0.126 C 
HETATM    5  C   UNK N   1      34.963  12.597  12.741  0.00  0.00     0.090 C 
HETATM    6  N   UNK N   1      36.171  13.425  10.346  0.00  0.00    -0.365 N 
ENDROOT
BRANCH   6   7
HETATM    7  C   UNK N   1      35.724  13.944   9.092  0.00  0.00     0.129 A 
HETATM    8  C   UNK N   1      36.516  13.918   7.923  0.00  0.00     0.022 A 
HETATM    9  C   UNK N   1      37.804  13.358   7.927  0.00  0.00     0.016 A 
HETATM   10  C   UNK N   1      36.029  14.537   6.741  0.00  0.00     0.008 A 
HETATM   11  C   UNK N   1      38.610  13.401   6.795  0.00  0.00     0.001 A 
HETATM   12  C   UNK N   1      38.140  14.015   5.640  0.00  0.00     0.001 A 
HETATM   13  C   UNK N   1      36.863  14.574   5.622  0.00  0.00     0.015 A 
HETATM   14  C   UNK N   1      34.738  15.139   6.755  0.00  0.00     0.087 A 
HETATM   15  N   UNK N   1      34.055  15.130   7.933  0.00  0.00    -0.296 N 
HETATM   16  N   UNK N   1      34.526  14.577   9.046  0.00  0.00    -0.284 N 
ATOM     17  HN  UNK N   1      33.135  15.569   7.963  1.00  0.00     0.187 HD
ATOM     18  HN  UNK N   1      33.967  14.632   9.897  1.00  0.00     0.188 HD
BRANCH  14  19
HETATM   19  C   UNK N   1      34.040  15.836   5.612  0.00  0.00     0.080 A 
HETATM   20  C   UNK N   1      33.691  17.175   5.714  0.00  0.00     0.052 A 
HETATM   21  C   UNK N   1      33.068  17.484   4.521  0.00  0.00     0.110 A 
HETATM   22  N   UNK N   1      33.033  16.382   3.752  0.00  0.00    -0.310 N 
HETATM   23  N   UNK N   1      33.614  15.388   4.400  0.00  0.00    -0.295 N 
ATOM     24  HN  UNK N   1      32.626  16.323   2.819  1.00  0.00     0.186 HD
HETATM   25  C   UNK N   1      33.656  14.063   3.814  0.00  0.00     0.178 C 
ENDBRANCH  14  19
ENDBRANCH   6   7
BRANCH   5  26
HETATM   26  N   UNK N   1      35.496  11.928  13.912  0.00  0.00    -0.347 N 
HETATM   27  C   UNK N   1      36.914  12.074  14.130  0.00  0.00     0.153 C 
HETATM   28  C   UNK N   1      34.676  11.341  14.846  0.00  0.00     0.254 C 
HETATM   29  O   UNK N   1      33.473  11.306  14.645  0.00  0.00    -0.267 OA
BRANCH  28  30
HETATM   30  C   UNK N   1      35.198  10.804  16.148  0.00  0.00     0.047 A 
HETATM   31  C   UNK N   1      35.574   9.453  16.239  0.00  0.00     0.021 A 
HETATM   32  C   UNK N   1      36.103   8.926  17.414  0.00  0.00     0.043 A 
HETATM   33  C   UNK N   1      36.281   9.744  18.524  0.00  0.00     0.117 A 
HETATM   34  C   UNK N   1      35.927  11.091  18.461  0.00  0.00     0.059 A 
HETATM   35  F   UNK N   1      36.814   9.238  19.660  0.00  0.00    -0.206 F 
HETATM   36  C   UNK N   1      35.377  11.642  17.292  0.00  0.00     0.066 A 
BRANCH  36  37
HETATM   37  C   UNK N   1      35.082  13.130  17.278  0.00  0.00     0.418 C 
HETATM   38  F   UNK N   1      34.962  13.594  18.577  0.00  0.00    -0.166 F 
HETATM   39  F   UNK N   1      36.086  13.820  16.626  0.00  0.00    -0.166 F 
HETATM   40  F   UNK N   1      33.892  13.394  16.621  0.00  0.00    -0.166 F 
ENDBRANCH  36  37
ENDBRANCH  28  30
ENDBRANCH   5  26
TORSDOF 5
ENDMDL
MODEL 4
REMARK VINA RESULT:      -8.4      5.309     12.093
REMARK  5 active torsions:
REMARK  status: ('A' for Active; 'I' for Inactive)
REMARK    1  A    between atoms: N_37  and  C_17 
REMARK    2  A    between atoms: C_25  and  C_20 
REMARK    3  A    between atoms: C_26  and  C_21 
REMARK    4  A    between atoms: C_23  and  C_22 
REMARK    5  A    between atoms: N_39  and  C_24 
REMARK       I    between atoms: N_37  and  C_25 
ROOT
HETATM    1  C   UNK N   1      27.029  16.454   3.346  0.00  0.00     0.045 C 
HETATM    2  C   UNK N   1      26.415  15.868   5.829  0.00  0.00     0.045 C 
HETATM    3  C   UNK N   1      25.900  17.482   3.392  0.00  0.00     0.126 C 
HETATM    4  C   UNK N   1      25.242  16.830   5.672  0.00  0.00     0.126 C 
HETATM    5  C   UNK N   1      27.499  16.038   4.756  0.00  0.00     0.090 C 
HETATM    6  N   UNK N   1      24.892  16.962   4.275  0.00  0.00    -0.365 N 
ENDROOT
BRANCH   6   7
HETATM    7  C   UNK N   1      23.698  16.426   3.700  0.00  0.00     0.129 A 
HETATM    8  C   UNK N   1      22.529  17.192   3.503  0.00  0.00     0.022 A 
HETATM    9  C   UNK N   1      22.480  18.552   3.854  0.00  0.00     0.016 A 
HETATM   10  C   UNK N   1      21.358  16.557   3.010  0.00  0.00     0.008 A 
HETATM   11  C   UNK N   1      21.305  19.285   3.728  0.00  0.00     0.001 A 
HETATM   12  C   UNK N   1      20.155  18.663   3.255  0.00  0.00     0.001 A 
HETATM   13  C   UNK N   1      20.190  17.315   2.903  0.00  0.00     0.015 A 
HETATM   14  C   UNK N   1      21.403  15.169   2.694  0.00  0.00     0.087 A 
HETATM   15  N   UNK N   1      22.570  14.509   2.933  0.00  0.00    -0.296 N 
HETATM   16  N   UNK N   1      23.655  15.100   3.424  0.00  0.00    -0.284 N 
ATOM     17  HN  UNK N   1      22.614  13.512   2.725  1.00  0.00     0.187 HD
ATOM     18  HN  UNK N   1      24.485  14.534   3.601  1.00  0.00     0.188 HD
BRANCH  14  19
HETATM   19  C   UNK N   1      20.281  14.316   2.154  0.00  0.00     0.080 A 
HETATM   20  C   UNK N   1      20.074  14.209   0.787  0.00  0.00     0.052 A 
HETATM   21  C   UNK N   1      18.979  13.379   0.643  0.00  0.00     0.110 A 
HETATM   22  N   UNK N   1      18.545  13.021   1.864  0.00  0.00    -0.310 N 
HETATM   23  N   UNK N   1      19.320  13.580   2.776  0.00  0.00    -0.295 N 
ATOM     24  HN  UNK N   1      17.747  12.415   2.055  1.00  0.00     0.186 HD
HETATM   25  C   UNK N   1      19.029  13.402   4.185  0.00  0.00     0.178 C 
ENDBRANCH  14  19
ENDBRANCH   6   7
BRANCH   5  26
HETATM   26  N   UNK N   1      28.698  16.719   5.204  0.00  0.00    -0.347 N 
HETATM   27  C   UNK N   1      28.610  18.155   5.298  0.00  0.00     0.153 C 
HETATM   28  C   UNK N   1      29.790  16.027   5.676  0.00  0.00     0.254 C 
HETATM   29  O   UNK N   1      29.784  14.808   5.638  0.00  0.00    -0.267 OA
BRANCH  28  30
HETATM   30  C   UNK N   1      30.964  16.717   6.308  0.00  0.00     0.047 A 
HETATM   31  C   UNK N   1      30.945  16.995   7.685  0.00  0.00     0.021 A 
HETATM   32  C   UNK N   1      32.031  17.594   8.318  0.00  0.00     0.043 A 
HETATM   33  C   UNK N   1      33.169  17.918   7.588  0.00  0.00     0.117 A 
HETATM   34  C   UNK N   1      33.221  17.645   6.223  0.00  0.00     0.059 A 
HETATM   35  F   UNK N   1      34.232  18.482   8.206  0.00  0.00    -0.206 F 
HETATM   36  C   UNK N   1      32.133  17.056   5.559  0.00  0.00     0.066 A 
BRANCH  36  37
HETATM   37  C   UNK N   1      32.292  16.727   4.086  0.00  0.00     0.418 C 
HETATM   38  F   UNK N   1      33.441  17.324   3.595  0.00  0.00    -0.166 F 
HETATM   39  F   UNK N   1      32.358  15.360   3.896  0.00  0.00    -0.166 F 
HETATM   40  F   UNK N   1      31.220  17.204   3.352  0.00  0.00    -0.166 F 
ENDBRANCH  36  37
ENDBRANCH  28  30
ENDBRANCH   5  26
TORSDOF 5
ENDMDL
MODEL 5
REMARK VINA RESULT:      -8.4      3.360      6.187
REMARK  5 active torsions:
REMARK  status: ('A' for Active; 'I' for Inactive)
REMARK    1  A    between atoms: N_37  and  C_17 
REMARK    2  A    between atoms: C_25  and  C_20 
REMARK    3  A    between atoms: C_26  and  C_21 
REMARK    4  A    between atoms: C_23  and  C_22 
REMARK    5  A    between atoms: N_39  and  C_24 
REMARK       I    between atoms: N_37  and  C_25 
ROOT
HETATM    1  C   UNK N   1      26.666  18.102   4.879  0.00  0.00     0.045 C 
HETATM    2  C   UNK N   1      26.101  15.676   5.708  0.00  0.00     0.045 C 
HETATM    3  C   UNK N   1      27.943  17.515   4.280  0.00  0.00     0.126 C 
HETATM    4  C   UNK N   1      27.473  15.272   5.179  0.00  0.00     0.126 C 
HETATM    5  C   UNK N   1      25.601  17.020   5.160  0.00  0.00     0.090 C 
HETATM    6  N   UNK N   1      28.345  16.426   5.128  0.00  0.00    -0.365 N 
ENDROOT
BRANCH   6   7
HETATM    7  C   UNK N   1      29.453  16.625   6.009  0.00  0.00     0.129 A 
HETATM    8  C   UNK N   1      29.315  17.151   7.311  0.00  0.00     0.022 A 
HETATM    9  C   UNK N   1      28.056  17.501   7.827  0.00  0.00     0.016 A 
HETATM   10  C   UNK N   1      30.479  17.401   8.086  0.00  0.00     0.008 A 
HETATM   11  C   UNK N   1      27.930  18.089   9.081  0.00  0.00     0.001 A 
HETATM   12  C   UNK N   1      29.068  18.343   9.837  0.00  0.00     0.001 A 
HETATM   13  C   UNK N   1      30.324  18.001   9.337  0.00  0.00     0.015 A 
HETATM   14  C   UNK N   1      31.755  17.082   7.542  0.00  0.00     0.087 A 
HETATM   15  N   UNK N   1      31.791  16.594   6.271  0.00  0.00    -0.296 N 
HETATM   16  N   UNK N   1      30.702  16.390   5.536  0.00  0.00    -0.284 N 
ATOM     17  HN  UNK N   1      32.699  16.373   5.861  1.00  0.00     0.187 HD
ATOM     18  HN  UNK N   1      30.809  16.046   4.582  1.00  0.00     0.188 HD
BRANCH  14  19
HETATM   19  C   UNK N   1      33.103  17.261   8.199  0.00  0.00     0.080 A 
HETATM   20  C   UNK N   1      33.869  18.387   7.935  0.00  0.00     0.052 A 
HETATM   21  C   UNK N   1      35.025  18.227   8.675  0.00  0.00     0.110 A 
HETATM   22  N   UNK N   1      34.957  17.059   9.335  0.00  0.00    -0.310 N 
HETATM   23  N   UNK N   1      33.808  16.472   9.054  0.00  0.00    -0.295 N 
ATOM     24  HN  UNK N   1      35.677  16.685   9.954  1.00  0.00     0.186 HD
HETATM   25  C   UNK N   1      33.509  15.160   9.594  0.00  0.00     0.178 C 
ENDBRANCH  14  19
ENDBRANCH   6   7
BRANCH   5  26
HETATM   26  N   UNK N   1      24.579  16.918   4.137  0.00  0.00    -0.347 N 
HETATM   27  C   UNK N   1      25.051  16.686   2.795  0.00  0.00     0.153 C 
HETATM   28  C   UNK N   1      23.241  16.870   4.453  0.00  0.00     0.254 C 
HETATM   29  O   UNK N   1      22.899  17.001   5.617  0.00  0.00    -0.267 OA
BRANCH  28  30
HETATM   30  C   UNK N   1      22.183  16.585   3.425  0.00  0.00     0.047 A 
HETATM   31  C   UNK N   1      21.943  15.260   3.027  0.00  0.00     0.021 A 
HETATM   32  C   UNK N   1      20.944  14.948   2.109  0.00  0.00     0.043 A 
HETATM   33  C   UNK N   1      20.151  15.958   1.577  0.00  0.00     0.117 A 
HETATM   34  C   UNK N   1      20.358  17.282   1.960  0.00  0.00     0.059 A 
HETATM   35  F   UNK N   1      19.166  15.654   0.700  0.00  0.00    -0.206 F 
HETATM   36  C   UNK N   1      21.370  17.622   2.872  0.00  0.00     0.066 A 
BRANCH  36  37
HETATM   37  C   UNK N   1      21.489  19.076   3.293  0.00  0.00     0.418 C 
HETATM   38  F   UNK N   1      20.733  19.870   2.447  0.00  0.00    -0.166 F 
HETATM   39  F   UNK N   1      21.063  19.242   4.597  0.00  0.00    -0.166 F 
HETATM   40  F   UNK N   1      22.802  19.507   3.219  0.00  0.00    -0.166 F 
ENDBRANCH  36  37
ENDBRANCH  28  30
ENDBRANCH   5  26
TORSDOF 5
ENDMDL
MODEL 6
REMARK VINA RESULT:      -8.3      6.122     10.998
REMARK  5 active torsions:
REMARK  status: ('A' for Active; 'I' for Inactive)
REMARK    1  A    between atoms: N_37  and  C_17 
REMARK    2  A    between atoms: C_25  and  C_20 
REMARK    3  A    between atoms: C_26  and  C_21 
REMARK    4  A    between atoms: C_23  and  C_22 
REMARK    5  A    between atoms: N_39  and  C_24 
REMARK       I    between atoms: N_37  and  C_25 
ROOT
HETATM    1  C   UNK N   1      36.218  14.265   8.976  0.00  0.00     0.045 C 
HETATM    2  C   UNK N   1      34.075  12.769   9.223  0.00  0.00     0.045 C 
HETATM    3  C   UNK N   1      35.313  15.320   8.342  0.00  0.00     0.126 C 
HETATM    4  C   UNK N   1      33.336  13.858   8.451  0.00  0.00     0.126 C 
HETATM    5  C   UNK N   1      35.421  13.229   9.798  0.00  0.00     0.090 C 
HETATM    6  N   UNK N   1      34.268  14.617   7.647  0.00  0.00    -0.365 N 
ENDROOT
BRANCH   6   7
HETATM    7  C   UNK N   1      34.332  14.544   6.221  0.00  0.00     0.129 A 
HETATM    8  C   UNK N   1      33.755  15.516   5.376  0.00  0.00     0.022 A 
HETATM    9  C   UNK N   1      33.088  16.635   5.899  0.00  0.00     0.016 A 
HETATM   10  C   UNK N   1      33.786  15.318   3.969  0.00  0.00     0.008 A 
HETATM   11  C   UNK N   1      32.456  17.551   5.066  0.00  0.00     0.001 A 
HETATM   12  C   UNK N   1      32.476  17.356   3.690  0.00  0.00     0.001 A 
HETATM   13  C   UNK N   1      33.136  16.249   3.156  0.00  0.00     0.015 A 
HETATM   14  C   UNK N   1      34.429  14.161   3.446  0.00  0.00     0.087 A 
HETATM   15  N   UNK N   1      34.942  13.270   4.339  0.00  0.00    -0.296 N 
HETATM   16  N   UNK N   1      34.885  13.442   5.656  0.00  0.00    -0.284 N 
ATOM     17  HN  UNK N   1      35.395  12.429   3.981  1.00  0.00     0.187 HD
ATOM     18  HN  UNK N   1      35.269  12.719   6.264  1.00  0.00     0.188 HD
BRANCH  14  19
HETATM   19  C   UNK N   1      34.578  13.772   1.994  0.00  0.00     0.080 A 
HETATM   20  C   UNK N   1      35.683  14.187   1.266  0.00  0.00     0.052 A 
HETATM   21  C   UNK N   1      35.499  13.679  -0.005  0.00  0.00     0.110 A 
HETATM   22  N   UNK N   1      34.335  13.007  -0.037  0.00  0.00    -0.310 N 
HETATM   23  N   UNK N   1      33.776  13.059   1.158  0.00  0.00    -0.295 N 
ATOM     24  HN  UNK N   1      33.947  12.532  -0.853  1.00  0.00     0.186 HD
HETATM   25  C   UNK N   1      32.474  12.461   1.380  0.00  0.00     0.178 C 
ENDBRANCH  14  19
ENDBRANCH   6   7
BRANCH   5  26
HETATM   26  N   UNK N   1      35.418  13.485  11.226  0.00  0.00    -0.347 N 
HETATM   27  C   UNK N   1      34.563  14.556  11.672  0.00  0.00     0.153 C 
HETATM   28  C   UNK N   1      36.054  12.647  12.112  0.00  0.00     0.254 C 
HETATM   29  O   UNK N   1      36.709  11.712  11.683  0.00  0.00    -0.267 OA
BRANCH  28  30
HETATM   30  C   UNK N   1      35.911  12.796  13.600  0.00  0.00     0.047 A 
HETATM   31  C   UNK N   1      36.577  13.843  14.259  0.00  0.00     0.021 A 
HETATM   32  C   UNK N   1      36.437  14.042  15.630  0.00  0.00     0.043 A 
HETATM   33  C   UNK N   1      35.614  13.203  16.372  0.00  0.00     0.117 A 
HETATM   34  C   UNK N   1      34.932  12.162  15.746  0.00  0.00     0.059 A 
HETATM   35  F   UNK N   1      35.462  13.408  17.702  0.00  0.00    -0.206 F 
HETATM   36  C   UNK N   1      35.069  11.932  14.367  0.00  0.00     0.066 A 
BRANCH  36  37
HETATM   37  C   UNK N   1      34.241  10.823  13.746  0.00  0.00     0.418 C 
HETATM   38  F   UNK N   1      35.010   9.678  13.625  0.00  0.00    -0.166 F 
HETATM   39  F   UNK N   1      33.125  10.558  14.516  0.00  0.00    -0.166 F 
HETATM   40  F   UNK N   1      33.807  11.177  12.480  0.00  0.00    -0.166 F 
ENDBRANCH  36  37
ENDBRANCH  28  30
ENDBRANCH   5  26
TORSDOF 5
ENDMDL
MODEL 7
REMARK VINA RESULT:      -8.1      5.323     11.847
REMARK  5 active torsions:
REMARK  status: ('A' for Active; 'I' for Inactive)
REMARK    1  A    between atoms: N_37  and  C_17 
REMARK    2  A    between atoms: C_25  and  C_20 
REMARK    3  A    between atoms: C_26  and  C_21 
REMARK    4  A    between atoms: C_23  and  C_22 
REMARK    5  A    between atoms: N_39  and  C_24 
REMARK       I    between atoms: N_37  and  C_25 
ROOT
HETATM    1  C   UNK N   1      27.255  16.605   3.452  0.00  0.00     0.045 C 
HETATM    2  C   UNK N   1      26.772  15.158   5.587  0.00  0.00     0.045 C 
HETATM    3  C   UNK N   1      25.987  17.387   3.792  0.00  0.00     0.126 C 
HETATM    4  C   UNK N   1      25.467  15.938   5.712  0.00  0.00     0.126 C 
HETATM    5  C   UNK N   1      27.802  15.824   4.666  0.00  0.00     0.090 C 
HETATM    6  N   UNK N   1      25.080  16.467   4.423  0.00  0.00    -0.365 N 
ENDROOT
BRANCH   6   7
HETATM    7  C   UNK N   1      23.970  15.981   3.665  0.00  0.00     0.129 A 
HETATM    8  C   UNK N   1      24.070  14.903   2.760  0.00  0.00     0.022 A 
HETATM    9  C   UNK N   1      25.285  14.227   2.562  0.00  0.00     0.016 A 
HETATM   10  C   UNK N   1      22.938  14.544   1.980  0.00  0.00     0.008 A 
HETATM   11  C   UNK N   1      25.400  13.215   1.615  0.00  0.00     0.001 A 
HETATM   12  C   UNK N   1      24.297  12.868   0.845  0.00  0.00     0.001 A 
HETATM   13  C   UNK N   1      23.084  13.530   1.031  0.00  0.00     0.015 A 
HETATM   14  C   UNK N   1      21.720  15.259   2.157  0.00  0.00     0.087 A 
HETATM   15  N   UNK N   1      21.723  16.295   3.041  0.00  0.00    -0.296 N 
HETATM   16  N   UNK N   1      22.793  16.649   3.746  0.00  0.00    -0.284 N 
ATOM     17  HN  UNK N   1      20.862  16.826   3.169  1.00  0.00     0.187 HD
ATOM     18  HN  UNK N   1      22.726  17.453   4.371  1.00  0.00     0.188 HD
BRANCH  14  19
HETATM   19  C   UNK N   1      20.411  15.031   1.439  0.00  0.00     0.080 A 
HETATM   20  C   UNK N   1      19.747  13.819   1.558  0.00  0.00     0.052 A 
HETATM   21  C   UNK N   1      18.614  13.941   0.777  0.00  0.00     0.110 A 
HETATM   22  N   UNK N   1      18.610  15.160   0.210  0.00  0.00    -0.310 N 
HETATM   23  N   UNK N   1      19.685  15.820   0.602  0.00  0.00    -0.295 N 
ATOM     24  HN  UNK N   1      17.892  15.518  -0.420  1.00  0.00     0.186 HD
HETATM   25  C   UNK N   1      19.954  17.146   0.082  0.00  0.00     0.178 C 
ENDBRANCH  14  19
ENDBRANCH   6   7
BRANCH   5  26
HETATM   26  N   UNK N   1      28.894  16.487   5.351  0.00  0.00    -0.347 N 
HETATM   27  C   UNK N   1      28.601  17.792   5.889  0.00  0.00     0.153 C 
HETATM   28  C   UNK N   1      30.078  15.840   5.623  0.00  0.00     0.254 C 
HETATM   29  O   UNK N   1      30.247  14.708   5.203  0.00  0.00    -0.267 OA
BRANCH  28  30
HETATM   30  C   UNK N   1      31.145  16.450   6.485  0.00  0.00     0.047 A 
HETATM   31  C   UNK N   1      31.097  16.271   7.877  0.00  0.00     0.021 A 
HETATM   32  C   UNK N   1      32.090  16.783   8.709  0.00  0.00     0.043 A 
HETATM   33  C   UNK N   1      33.163  17.477   8.162  0.00  0.00     0.117 A 
HETATM   34  C   UNK N   1      33.244  17.662   6.783  0.00  0.00     0.059 A 
HETATM   35  F   UNK N   1      34.140  17.957   8.967  0.00  0.00    -0.206 F 
HETATM   36  C   UNK N   1      32.248  17.169   5.926  0.00  0.00     0.066 A 
BRANCH  36  37
HETATM   37  C   UNK N   1      32.440  17.350   4.432  0.00  0.00     0.418 C 
HETATM   38  F   UNK N   1      33.489  18.223   4.199  0.00  0.00    -0.166 F 
HETATM   39  F   UNK N   1      32.698  16.136   3.823  0.00  0.00    -0.166 F 
HETATM   40  F   UNK N   1      31.306  17.884   3.846  0.00  0.00    -0.166 F 
ENDBRANCH  36  37
ENDBRANCH  28  30
ENDBRANCH   5  26
TORSDOF 5
ENDMDL
MODEL 8
REMARK VINA RESULT:      -8.0      4.993     10.987
REMARK  5 active torsions:
REMARK  status: ('A' for Active; 'I' for Inactive)
REMARK    1  A    between atoms: N_37  and  C_17 
REMARK    2  A    between atoms: C_25  and  C_20 
REMARK    3  A    between atoms: C_26  and  C_21 
REMARK    4  A    between atoms: C_23  and  C_22 
REMARK    5  A    between atoms: N_39  and  C_24 
REMARK       I    between atoms: N_37  and  C_25 
ROOT
HETATM    1  C   UNK N   1      32.345  14.674   7.908  0.00  0.00     0.045 C 
HETATM    2  C   UNK N   1      34.001  16.679   7.559  0.00  0.00     0.045 C 
HETATM    3  C   UNK N   1      31.985  14.816   6.430  0.00  0.00     0.126 C 
HETATM    4  C   UNK N   1      33.437  16.783   6.145  0.00  0.00     0.126 C 
HETATM    5  C   UNK N   1      33.693  15.344   8.248  0.00  0.00     0.090 C 
HETATM    6  N   UNK N   1      32.110  16.209   6.098  0.00  0.00    -0.365 N 
ENDROOT
BRANCH   6   7
HETATM    7  C   UNK N   1      30.916  16.979   5.941  0.00  0.00     0.129 A 
HETATM    8  C   UNK N   1      30.153  17.445   7.033  0.00  0.00     0.022 A 
HETATM    9  C   UNK N   1      30.540  17.184   8.358  0.00  0.00     0.016 A 
HETATM   10  C   UNK N   1      28.931  18.126   6.786  0.00  0.00     0.008 A 
HETATM   11  C   UNK N   1      29.748  17.578   9.430  0.00  0.00     0.001 A 
HETATM   12  C   UNK N   1      28.547  18.236   9.191  0.00  0.00     0.001 A 
HETATM   13  C   UNK N   1      28.151  18.502   7.881  0.00  0.00     0.015 A 
HETATM   14  C   UNK N   1      28.524  18.352   5.441  0.00  0.00     0.087 A 
HETATM   15  N   UNK N   1      29.316  17.852   4.453  0.00  0.00    -0.296 N 
HETATM   16  N   UNK N   1      30.444  17.188   4.687  0.00  0.00    -0.284 N 
ATOM     17  HN  UNK N   1      29.031  17.994   3.483  1.00  0.00     0.187 HD
ATOM     18  HN  UNK N   1      30.972  16.821   3.896  1.00  0.00     0.188 HD
BRANCH  14  19
HETATM   19  C   UNK N   1      27.275  19.057   4.967  0.00  0.00     0.080 A 
HETATM   20  C   UNK N   1      26.390  18.419   4.110  0.00  0.00     0.052 A 
HETATM   21  C   UNK N   1      25.385  19.335   3.870  0.00  0.00     0.110 A 
HETATM   22  N   UNK N   1      25.663  20.467   4.539  0.00  0.00    -0.310 N 
HETATM   23  N   UNK N   1      26.796  20.309   5.199  0.00  0.00    -0.295 N 
ATOM     24  HN  UNK N   1      25.091  21.312   4.538  1.00  0.00     0.186 HD
HETATM   25  C   UNK N   1      27.357  21.411   5.957  0.00  0.00     0.178 C 
ENDBRANCH  14  19
ENDBRANCH   6   7
BRANCH   5  26
HETATM   26  N   UNK N   1      34.810  14.421   8.316  0.00  0.00    -0.347 N 
HETATM   27  C   UNK N   1      34.872  13.429   7.272  0.00  0.00     0.153 C 
HETATM   28  C   UNK N   1      35.837  14.592   9.215  0.00  0.00     0.254 C 
HETATM   29  O   UNK N   1      35.767  15.494  10.034  0.00  0.00    -0.267 OA
BRANCH  28  30
HETATM   30  C   UNK N   1      37.082  13.755   9.180  0.00  0.00     0.047 A 
HETATM   31  C   UNK N   1      38.118  14.092   8.293  0.00  0.00     0.021 A 
HETATM   32  C   UNK N   1      39.307  13.367   8.257  0.00  0.00     0.043 A 
HETATM   33  C   UNK N   1      39.491  12.293   9.121  0.00  0.00     0.117 A 
HETATM   34  C   UNK N   1      38.486  11.941  10.019  0.00  0.00     0.059 A 
HETATM   35  F   UNK N   1      40.654  11.601   9.102  0.00  0.00    -0.206 F 
HETATM   36  C   UNK N   1      37.273  12.647  10.063  0.00  0.00     0.066 A 
BRANCH  36  37
HETATM   37  C   UNK N   1      36.254  12.247  11.115  0.00  0.00     0.418 C 
HETATM   38  F   UNK N   1      36.630  11.049  11.696  0.00  0.00    -0.166 F 
HETATM   39  F   UNK N   1      36.147  13.226  12.085  0.00  0.00    -0.166 F 
HETATM   40  F   UNK N   1      35.002  12.072  10.552  0.00  0.00    -0.166 F 
ENDBRANCH  36  37
ENDBRANCH  28  30
ENDBRANCH   5  26
TORSDOF 5
ENDMDL
MODEL 9
REMARK VINA RESULT:      -7.8      4.991     11.616
REMARK  5 active torsions:
REMARK  status: ('A' for Active; 'I' for Inactive)
REMARK    1  A    between atoms: N_37  and  C_17 
REMARK    2  A    between atoms: C_25  and  C_20 
REMARK    3  A    between atoms: C_26  and  C_21 
REMARK    4  A    between atoms: C_23  and  C_22 
REMARK    5  A    between atoms: N_39  and  C_24 
REMARK       I    between atoms: N_37  and  C_25 
ROOT
HETATM    1  C   UNK N   1      28.235  17.807   5.870  0.00  0.00     0.045 C 
HETATM    2  C   UNK N   1      28.424  16.048   3.931  0.00  0.00     0.045 C 
HETATM    3  C   UNK N   1      27.143  16.918   6.464  0.00  0.00     0.126 C 
HETATM    4  C   UNK N   1      27.231  15.346   4.572  0.00  0.00     0.126 C 
HETATM    5  C   UNK N   1      29.124  17.046   4.863  0.00  0.00     0.090 C 
HETATM    6  N   UNK N   1      26.468  16.287   5.363  0.00  0.00    -0.365 N 
ENDROOT
BRANCH   6   7
HETATM    7  C   UNK N   1      25.172  16.767   4.997  0.00  0.00     0.129 A 
HETATM    8  C   UNK N   1      23.980  16.270   5.565  0.00  0.00     0.022 A 
HETATM    9  C   UNK N   1      24.003  15.267   6.549  0.00  0.00     0.016 A 
HETATM   10  C   UNK N   1      22.731  16.739   5.078  0.00  0.00     0.008 A 
HETATM   11  C   UNK N   1      22.825  14.726   7.052  0.00  0.00     0.001 A 
HETATM   12  C   UNK N   1      21.602  15.176   6.571  0.00  0.00     0.001 A 
HETATM   13  C   UNK N   1      21.564  16.171   5.595  0.00  0.00     0.015 A 
HETATM   14  C   UNK N   1      22.713  17.726   4.052  0.00  0.00     0.087 A 
HETATM   15  N   UNK N   1      23.913  18.134   3.554  0.00  0.00    -0.296 N 
HETATM   16  N   UNK N   1      25.080  17.670   3.990  0.00  0.00    -0.284 N 
ATOM     17  HN  UNK N   1      23.918  18.830   2.809  1.00  0.00     0.187 HD
ATOM     18  HN  UNK N   1      25.938  18.004   3.550  1.00  0.00     0.188 HD
BRANCH  14  19
HETATM   19  C   UNK N   1      21.502  18.357   3.408  0.00  0.00     0.080 A 
HETATM   20  C   UNK N   1      21.156  19.669   3.698  0.00  0.00     0.052 A 
HETATM   21  C   UNK N   1      20.012  19.918   2.964  0.00  0.00     0.110 A 
HETATM   22  N   UNK N   1      19.685  18.807   2.282  0.00  0.00    -0.310 N 
HETATM   23  N   UNK N   1      20.574  17.866   2.543  0.00  0.00    -0.295 N 
ATOM     24  HN  UNK N   1      18.882  18.708   1.662  1.00  0.00     0.186 HD
HETATM   25  C   UNK N   1      20.417  16.540   1.978  0.00  0.00     0.178 C 
ENDBRANCH  14  19
ENDBRANCH   6   7
BRANCH   5  26
HETATM   26  N   UNK N   1      30.382  16.584   5.416  0.00  0.00    -0.347 N 
HETATM   27  C   UNK N   1      30.303  15.442   6.293  0.00  0.00     0.153 C 
HETATM   28  C   UNK N   1      31.588  17.092   4.995  0.00  0.00     0.254 C 
HETATM   29  O   UNK N   1      31.600  18.015   4.197  0.00  0.00    -0.267 OA
BRANCH  28  30
HETATM   30  C   UNK N   1      32.901  16.503   5.425  0.00  0.00     0.047 A 
HETATM   31  C   UNK N   1      33.408  16.798   6.701  0.00  0.00     0.021 A 
HETATM   32  C   UNK N   1      34.600  16.239   7.154  0.00  0.00     0.043 A 
HETATM   33  C   UNK N   1      35.306  15.358   6.343  0.00  0.00     0.117 A 
HETATM   34  C   UNK N   1      34.823  15.038   5.076  0.00  0.00     0.059 A 
HETATM   35  F   UNK N   1      36.454  14.797   6.791  0.00  0.00    -0.206 F 
HETATM   36  C   UNK N   1      33.632  15.601   4.591  0.00  0.00     0.066 A 
BRANCH  36  37
HETATM   37  C   UNK N   1      33.135  15.150   3.229  0.00  0.00     0.418 C 
HETATM   38  F   UNK N   1      33.171  16.214   2.344  0.00  0.00    -0.166 F 
HETATM   39  F   UNK N   1      33.911  14.113   2.747  0.00  0.00    -0.166 F 
HETATM   40  F   UNK N   1      31.828  14.702   3.302  0.00  0.00    -0.166 F 
ENDBRANCH  36  37
ENDBRANCH  28  30
ENDBRANCH   5  26
TORSDOF 5
ENDMDL
