REMARK  5 active torsions:
REMARK  status: ('A' for Active; 'I' for Inactive)
REMARK    1  A    between atoms: C_3  and  C_2 
REMARK    2  A    between atoms: C_3  and  O_35 
REMARK    3  A    between atoms: C_23  and  O_34 
REMARK    4  A    between atoms: C_26  and  Si_27 
REMARK    5  A    between atoms: Si_27  and  C_30 
ROOT
HETATM    1  C   UNK N   1       7.552  -1.584   0.612  0.00  0.00     0.173 A 
HETATM    2  C   UNK N   1       6.570  -0.467   0.340  0.00  0.00     0.002 A 
HETATM    3  C   UNK N   1       5.189  -0.709   0.499  0.00  0.00     0.043 A 
HETATM    4  C   UNK N   1       4.296   0.317   0.206  0.00  0.00     0.066 A 
HETATM    5  N   UNK N   1       4.724   1.523  -0.203  0.00  0.00    -0.307 N 
HETATM    6  C   UNK N   1       6.054   1.812  -0.354  0.00  0.00     0.257 A 
HETATM    7  O   UNK N   1       6.402   2.918  -0.733  0.00  0.00    -0.267 OA
HETATM    8  C   UNK N   1       7.007   0.808  -0.092  0.00  0.00     0.044 A 
HETATM    9  C   UNK N   1       8.464   1.112  -0.299  0.00  0.00     0.224 A 
HETATM   10  O   UNK N   1       9.327   0.057  -0.073  0.00  0.00    -0.314 OA
HETATM   11  C   UNK N   1       8.988  -1.185   0.350  0.00  0.00     0.298 A 
HETATM   12  O   UNK N   1       9.876  -2.005   0.528  0.00  0.00    -0.261 OA
HETATM   13  C   UNK N   1       3.596   2.421  -0.498  0.00  0.00     0.174 A 
HETATM   14  C   UNK N   1       2.419   1.505  -0.242  0.00  0.00     0.001 A 
HETATM   15  C   UNK N   1       2.868   0.285   0.199  0.00  0.00     0.069 A 
HETATM   16  N   UNK N   1       2.040  -0.747   0.479  0.00  0.00    -0.353 N 
ATOM     17  HN  UNK N   1       2.417  -1.637   0.806  1.00  0.00     0.166 HD
HETATM   18  C   UNK N   1       0.696  -0.586   0.321  0.00  0.00     0.044 A 
HETATM   19  C   UNK N   1      -0.162  -1.660   0.574  0.00  0.00     0.033 A 
HETATM   20  C   UNK N   1      -1.537  -1.525   0.371  0.00  0.00     0.039 A 
HETATM   21  C   UNK N   1      -2.064  -0.315  -0.087  0.00  0.00     0.066 A 
HETATM   22  C   UNK N   1      -1.219   0.768  -0.339  0.00  0.00     0.051 A 
HETATM   23  C   UNK N   1       0.165   0.659  -0.141  0.00  0.00     0.005 A 
HETATM   24  C   UNK N   1       1.048   1.737  -0.429  0.00  0.00    -0.002 A 
ENDROOT
BRANCH  24  25
HETATM   25 Si   UNK N   1       0.430   3.383  -1.122  0.00  0.00     0.000 Si
HETATM   26  C   UNK N   1       1.828   4.489  -1.692  0.00  0.00     0.000 C 
HETATM   27  C   UNK N   1      -0.586   2.988  -2.641  0.00  0.00     0.000 C 
BRANCH  25  28
HETATM   28  C   UNK N   1      -0.596   4.415   0.074  0.00  0.00    -0.045 C 
HETATM   29  C   UNK N   1       0.277   4.879   1.221  0.00  0.00     0.015 C 
HETATM   30  C   UNK N   1      -1.764   3.631   0.628  0.00  0.00     0.015 C 
HETATM   31  C   UNK N   1      -1.131   5.632  -0.657  0.00  0.00     0.015 C 
ENDBRANCH  25  28
ENDBRANCH  24  25
BRANCH  21  32
HETATM   32  O   UNK N   1      -3.386  -0.195  -0.292  0.00  0.00    -0.361 OA
HETATM   33  H   UNK N   1      -3.774   0.645  -0.435  0.00  0.00     0.217 HD
ENDBRANCH  21  32
BRANCH   1  34
HETATM   34  C   UNK N   1       7.201  -2.814  -0.243  0.00  0.00     0.049 C 
HETATM   35  C   UNK N   1       7.264  -2.548  -1.741  0.00  0.00     0.009 C 
ENDBRANCH   1  34
BRANCH   1  36
HETATM   36  O   UNK N   1       7.443  -1.948   1.955  0.00  0.00    -0.375 OA
HETATM   37  H   UNK N   1       7.187  -2.010   2.889  0.00  0.00     0.211 HD
ENDBRANCH   1  36
TORSDOF 5
