MODEL 1
REMARK VINA RESULT:      -7.6      0.000      0.000
REMARK  5 active torsions:
REMARK  status: ('A' for Active; 'I' for Inactive)
REMARK    1  A    between atoms: C_2  and  O_4 
REMARK    2  A    between atoms: O_4  and  C_5 
REMARK       I    between atoms: C_5  and  N_7 
REMARK    3  A    between atoms: C_8  and  N_7 
REMARK    4  A    between atoms: N_17  and  C_20 
REMARK    5  A    between atoms: C_20  and  C_21 
ROOT
HETATM    1  C   UNK N   1      23.513  17.402   5.029  0.00  0.00     0.096 A 
HETATM    2  C   UNK N   1      22.257  17.946   5.778  0.00  0.00     0.067 A 
HETATM    3  C   UNK N   1      21.924  16.789   6.620  0.00  0.00    -0.021 A 
HETATM    4  C   UNK N   1      20.984  16.446   7.557  0.00  0.00     0.001 A 
HETATM    5  C   UNK N   1      19.942  17.172   8.084  0.00  0.00     0.037 A 
HETATM    6  C   UNK N   1      19.092  16.544   8.997  0.00  0.00     0.045 A 
HETATM    7  C   UNK N   1      19.307  15.180   9.365  0.00  0.00     0.025 A 
HETATM    8  C   UNK N   1      20.378  14.450   8.792  0.00  0.00     0.032 A 
HETATM    9  C   UNK N   1      21.206  15.131   7.880  0.00  0.00     0.046 A 
HETATM   10  N   UNK N   1      22.239  14.656   7.139  0.00  0.00    -0.344 N 
HETATM   11  C   UNK N   1      22.673  15.708   6.402  0.00  0.00     0.021 A 
HETATM   12  C   UNK N   1      23.721  15.889   5.382  0.00  0.00     0.083 A 
HETATM   13  C   UNK N   1      17.995  17.311   9.531  0.00  0.00     0.099 C 
HETATM   14  N   UNK N   1      17.102  17.895   9.982  0.00  0.00    -0.191 NA
ENDROOT
BRANCH  10  15
HETATM   15  C   UNK N   1      22.683  13.270   7.056  0.00  0.00     0.186 C 
BRANCH  15  16
HETATM   16  C   UNK N   1      23.403  12.876   8.335  0.00  0.00     0.027 A 
HETATM   17  C   UNK N   1      22.830  11.966   9.250  0.00  0.00     0.027 A 
HETATM   18  C   UNK N   1      23.461  11.693  10.463  0.00  0.00     0.003 A 
HETATM   19  C   UNK N   1      24.663  12.327  10.763  0.00  0.00     0.017 A 
HETATM   20  C   UNK N   1      25.227  13.199   9.823  0.00  0.00     0.088 A 
HETATM   21  N   UNK N   1      24.594  13.455   8.640  0.00  0.00    -0.368 N 
ATOM     22  HN  UNK N   1      25.025  14.093   7.972  1.00  0.00     0.165 HD
ENDBRANCH  15  16
ENDBRANCH  10  15
BRANCH   1  23
HETATM   23  N   UNK N   1      24.683  18.231   5.289  0.00  0.00    -0.332 N 
HETATM   24  C   UNK N   1      25.664  18.503   4.380  0.00  0.00     0.361 C 
HETATM   25  O   UNK N   1      25.593  18.089   3.231  0.00  0.00    -0.238 OA
HETATM   26  H   UNK N   1      24.772  18.624   6.187  0.00  0.00     0.165 HD
BRANCH  24  27
HETATM   27  O   UNK N   1      26.809  19.077   4.800  0.00  0.00    -0.299 OA
BRANCH  27  28
HETATM   28  C   UNK N   1      26.785  19.795   5.973  0.00  0.00     0.125 C 
HETATM   29  C   UNK N   1      27.065  21.249   5.707  0.00  0.00     0.040 C 
HETATM   30  C   UNK N   1      27.893  19.302   6.872  0.00  0.00     0.040 C 
ENDBRANCH  27  28
ENDBRANCH  24  27
ENDBRANCH   1  23
TORSDOF 5
ENDMDL
MODEL 2
REMARK VINA RESULT:      -7.2      4.142      7.732
REMARK  5 active torsions:
REMARK  status: ('A' for Active; 'I' for Inactive)
REMARK    1  A    between atoms: C_2  and  O_4 
REMARK    2  A    between atoms: O_4  and  C_5 
REMARK       I    between atoms: C_5  and  N_7 
REMARK    3  A    between atoms: C_8  and  N_7 
REMARK    4  A    between atoms: N_17  and  C_20 
REMARK    5  A    between atoms: C_20  and  C_21 
ROOT
HETATM    1  C   UNK N   1      20.311  15.775   7.405  0.00  0.00     0.096 A 
HETATM    2  C   UNK N   1      19.798  14.880   6.235  0.00  0.00     0.067 A 
HETATM    3  C   UNK N   1      20.185  15.700   5.079  0.00  0.00    -0.021 A 
HETATM    4  C   UNK N   1      20.106  15.638   3.712  0.00  0.00     0.001 A 
HETATM    5  C   UNK N   1      19.597  14.661   2.890  0.00  0.00     0.037 A 
HETATM    6  C   UNK N   1      19.595  14.889   1.512  0.00  0.00     0.045 A 
HETATM    7  C   UNK N   1      20.107  16.113   0.981  0.00  0.00     0.025 A 
HETATM    8  C   UNK N   1      20.607  17.112   1.853  0.00  0.00     0.032 A 
HETATM    9  C   UNK N   1      20.590  16.829   3.231  0.00  0.00     0.046 A 
HETATM   10  N   UNK N   1      20.933  17.627   4.275  0.00  0.00    -0.344 N 
HETATM   11  C   UNK N   1      20.700  16.890   5.389  0.00  0.00     0.021 A 
HETATM   12  C   UNK N   1      20.820  17.143   6.836  0.00  0.00     0.083 A 
HETATM   13  C   UNK N   1      19.045  13.863   0.662  0.00  0.00     0.099 C 
HETATM   14  N   UNK N   1      18.613  13.061  -0.054  0.00  0.00    -0.191 NA
ENDROOT
BRANCH  10  15
HETATM   15  C   UNK N   1      21.328  19.028   4.204  0.00  0.00     0.186 C 
BRANCH  15  16
HETATM   16  C   UNK N   1      22.800  19.136   3.840  0.00  0.00     0.027 A 
HETATM   17  C   UNK N   1      23.742  18.192   4.301  0.00  0.00     0.027 A 
HETATM   18  C   UNK N   1      25.101  18.362   4.039  0.00  0.00     0.003 A 
HETATM   19  C   UNK N   1      25.519  19.475   3.316  0.00  0.00     0.017 A 
HETATM   20  C   UNK N   1      24.561  20.380   2.840  0.00  0.00     0.088 A 
HETATM   21  N   UNK N   1      23.234  20.196   3.108  0.00  0.00    -0.368 N 
ATOM     22  HN  UNK N   1      22.556  20.868   2.751  1.00  0.00     0.165 HD
ENDBRANCH  15  16
ENDBRANCH  10  15
BRANCH   1  23
HETATM   23  N   UNK N   1      21.298  15.072   8.214  0.00  0.00    -0.332 N 
HETATM   24  C   UNK N   1      21.003  14.192   9.215  0.00  0.00     0.361 C 
HETATM   25  O   UNK N   1      19.845  13.892   9.471  0.00  0.00    -0.238 OA
HETATM   26  H   UNK N   1      22.248  15.244   8.025  0.00  0.00     0.165 HD
BRANCH  24  27
HETATM   27  O   UNK N   1      21.983  13.789  10.048  0.00  0.00    -0.299 OA
BRANCH  27  28
HETATM   28  C   UNK N   1      22.116  12.442  10.293  0.00  0.00     0.125 C 
HETATM   29  C   UNK N   1      22.878  12.212  11.569  0.00  0.00     0.040 C 
HETATM   30  C   UNK N   1      22.934  11.820   9.187  0.00  0.00     0.040 C 
ENDBRANCH  27  28
ENDBRANCH  24  27
ENDBRANCH   1  23
TORSDOF 5
ENDMDL
MODEL 3
REMARK VINA RESULT:      -7.1      7.292     10.559
REMARK  5 active torsions:
REMARK  status: ('A' for Active; 'I' for Inactive)
REMARK    1  A    between atoms: C_2  and  O_4 
REMARK    2  A    between atoms: O_4  and  C_5 
REMARK       I    between atoms: C_5  and  N_7 
REMARK    3  A    between atoms: C_8  and  N_7 
REMARK    4  A    between atoms: N_17  and  C_20 
REMARK    5  A    between atoms: C_20  and  C_21 
ROOT
HETATM    1  C   UNK N   1      33.670  16.552   8.554  0.00  0.00     0.096 A 
HETATM    2  C   UNK N   1      32.588  17.675   8.571  0.00  0.00     0.067 A 
HETATM    3  C   UNK N   1      31.541  17.054   7.748  0.00  0.00    -0.021 A 
HETATM    4  C   UNK N   1      30.288  17.364   7.286  0.00  0.00     0.001 A 
HETATM    5  C   UNK N   1      29.513  18.481   7.488  0.00  0.00     0.037 A 
HETATM    6  C   UNK N   1      28.279  18.557   6.840  0.00  0.00     0.045 A 
HETATM    7  C   UNK N   1      27.844  17.496   5.986  0.00  0.00     0.025 A 
HETATM    8  C   UNK N   1      28.672  16.365   5.780  0.00  0.00     0.032 A 
HETATM    9  C   UNK N   1      29.904  16.338   6.461  0.00  0.00     0.046 A 
HETATM   10  N   UNK N   1      30.905  15.425   6.385  0.00  0.00    -0.344 N 
HETATM   11  C   UNK N   1      31.879  15.882   7.210  0.00  0.00     0.021 A 
HETATM   12  C   UNK N   1      33.228  15.411   7.574  0.00  0.00     0.083 A 
HETATM   13  C   UNK N   1      27.481  19.740   7.047  0.00  0.00     0.099 C 
HETATM   14  N   UNK N   1      26.812  20.674   7.191  0.00  0.00    -0.191 NA
ENDROOT
BRANCH  10  15
HETATM   15  C   UNK N   1      30.968  14.276   5.489  0.00  0.00     0.186 C 
BRANCH  15  16
HETATM   16  C   UNK N   1      32.110  14.448   4.501  0.00  0.00     0.027 A 
HETATM   17  C   UNK N   1      32.288  15.651   3.785  0.00  0.00     0.027 A 
HETATM   18  C   UNK N   1      33.281  15.755   2.812  0.00  0.00     0.003 A 
HETATM   19  C   UNK N   1      34.097  14.657   2.553  0.00  0.00     0.017 A 
HETATM   20  C   UNK N   1      33.922  13.485   3.301  0.00  0.00     0.088 A 
HETATM   21  N   UNK N   1      32.942  13.403   4.250  0.00  0.00    -0.368 N 
ATOM     22  HN  UNK N   1      32.836  12.540   4.781  1.00  0.00     0.165 HD
ENDBRANCH  15  16
ENDBRANCH  10  15
BRANCH   1  23
HETATM   23  N   UNK N   1      33.967  16.085   9.902  0.00  0.00    -0.332 N 
HETATM   24  C   UNK N   1      35.003  16.531  10.671  0.00  0.00     0.361 C 
HETATM   25  O   UNK N   1      35.744  17.421  10.278  0.00  0.00    -0.238 OA
HETATM   26  H   UNK N   1      33.379  15.396  10.285  0.00  0.00     0.165 HD
BRANCH  24  27
HETATM   27  O   UNK N   1      35.323  15.862  11.796  0.00  0.00    -0.299 OA
BRANCH  27  28
HETATM   28  C   UNK N   1      35.410  14.490  11.734  0.00  0.00     0.125 C 
HETATM   29  C   UNK N   1      35.512  13.907  13.117  0.00  0.00     0.040 C 
HETATM   30  C   UNK N   1      36.682  14.112  11.015  0.00  0.00     0.040 C 
ENDBRANCH  27  28
ENDBRANCH  24  27
ENDBRANCH   1  23
TORSDOF 5
ENDMDL
MODEL 4
REMARK VINA RESULT:      -7.1      6.602     10.277
REMARK  5 active torsions:
REMARK  status: ('A' for Active; 'I' for Inactive)
REMARK    1  A    between atoms: C_2  and  O_4 
REMARK    2  A    between atoms: O_4  and  C_5 
REMARK       I    between atoms: C_5  and  N_7 
REMARK    3  A    between atoms: C_8  and  N_7 
REMARK    4  A    between atoms: N_17  and  C_20 
REMARK    5  A    between atoms: C_20  and  C_21 
ROOT
HETATM    1  C   UNK N   1      30.551  15.083   3.112  0.00  0.00     0.096 A 
HETATM    2  C   UNK N   1      31.801  15.701   3.811  0.00  0.00     0.067 A 
HETATM    3  C   UNK N   1      31.193  16.213   5.046  0.00  0.00    -0.021 A 
HETATM    4  C   UNK N   1      31.588  16.875   6.180  0.00  0.00     0.001 A 
HETATM    5  C   UNK N   1      32.833  17.302   6.577  0.00  0.00     0.037 A 
HETATM    6  C   UNK N   1      32.939  18.013   7.774  0.00  0.00     0.045 A 
HETATM    7  C   UNK N   1      31.775  18.289   8.557  0.00  0.00     0.025 A 
HETATM    8  C   UNK N   1      30.501  17.854   8.113  0.00  0.00     0.032 A 
HETATM    9  C   UNK N   1      30.452  17.139   6.903  0.00  0.00     0.046 A 
HETATM   10  N   UNK N   1      29.371  16.681   6.221  0.00  0.00    -0.344 N 
HETATM   11  C   UNK N   1      29.866  16.093   5.105  0.00  0.00     0.021 A 
HETATM   12  C   UNK N   1      29.263  15.432   3.933  0.00  0.00     0.083 A 
HETATM   13  C   UNK N   1      34.248  18.467   8.173  0.00  0.00     0.099 C 
HETATM   14  N   UNK N   1      35.283  18.848   8.526  0.00  0.00    -0.191 NA
ENDROOT
BRANCH  10  15
HETATM   15  C   UNK N   1      27.971  16.908   6.559  0.00  0.00     0.186 C 
BRANCH  15  16
HETATM   16  C   UNK N   1      27.550  18.303   6.124  0.00  0.00     0.027 A 
HETATM   17  C   UNK N   1      27.460  18.650   4.759  0.00  0.00     0.027 A 
HETATM   18  C   UNK N   1      27.168  19.961   4.381  0.00  0.00     0.003 A 
HETATM   19  C   UNK N   1      26.966  20.923   5.366  0.00  0.00     0.017 A 
HETATM   20  C   UNK N   1      27.027  20.544   6.714  0.00  0.00     0.088 A 
HETATM   21  N   UNK N   1      27.315  19.256   7.064  0.00  0.00    -0.368 N 
ATOM     22  HN  UNK N   1      27.354  19.005   8.051  1.00  0.00     0.165 HD
ENDBRANCH  15  16
ENDBRANCH  10  15
BRANCH   1  23
HETATM   23  N   UNK N   1      30.729  13.655   2.878  0.00  0.00    -0.332 N 
HETATM   24  C   UNK N   1      30.025  12.921   1.968  0.00  0.00     0.361 C 
HETATM   25  O   UNK N   1      29.204  13.447   1.230  0.00  0.00    -0.238 OA
HETATM   26  H   UNK N   1      31.406  13.186   3.416  0.00  0.00     0.165 HD
BRANCH  24  27
HETATM   27  O   UNK N   1      30.103  11.576   2.006  0.00  0.00    -0.299 OA
BRANCH  27  28
HETATM   28  C   UNK N   1      28.941  10.853   1.865  0.00  0.00     0.125 C 
HETATM   29  C   UNK N   1      28.777   9.892   3.011  0.00  0.00     0.040 C 
HETATM   30  C   UNK N   1      29.033  10.015   0.613  0.00  0.00     0.040 C 
ENDBRANCH  27  28
ENDBRANCH  24  27
ENDBRANCH   1  23
TORSDOF 5
ENDMDL
MODEL 5
REMARK VINA RESULT:      -7.0      7.243     10.760
REMARK  5 active torsions:
REMARK  status: ('A' for Active; 'I' for Inactive)
REMARK    1  A    between atoms: C_2  and  O_4 
REMARK    2  A    between atoms: O_4  and  C_5 
REMARK       I    between atoms: C_5  and  N_7 
REMARK    3  A    between atoms: C_8  and  N_7 
REMARK    4  A    between atoms: N_17  and  C_20 
REMARK    5  A    between atoms: C_20  and  C_21 
ROOT
HETATM    1  C   UNK N   1      32.980  17.680   8.353  0.00  0.00     0.096 A 
HETATM    2  C   UNK N   1      31.424  17.657   8.246  0.00  0.00     0.067 A 
HETATM    3  C   UNK N   1      31.256  17.256   6.842  0.00  0.00    -0.021 A 
HETATM    4  C   UNK N   1      30.230  17.007   5.968  0.00  0.00     0.001 A 
HETATM    5  C   UNK N   1      28.869  17.036   6.156  0.00  0.00     0.037 A 
HETATM    6  C   UNK N   1      28.042  16.791   5.058  0.00  0.00     0.045 A 
HETATM    7  C   UNK N   1      28.608  16.522   3.773  0.00  0.00     0.025 A 
HETATM    8  C   UNK N   1      30.015  16.518   3.603  0.00  0.00     0.032 A 
HETATM    9  C   UNK N   1      30.801  16.766   4.743  0.00  0.00     0.046 A 
HETATM   10  N   UNK N   1      32.148  16.894   4.844  0.00  0.00    -0.344 N 
HETATM   11  C   UNK N   1      32.392  17.164   6.151  0.00  0.00     0.021 A 
HETATM   12  C   UNK N   1      33.607  17.444   6.936  0.00  0.00     0.083 A 
HETATM   13  C   UNK N   1      26.616  16.839   5.265  0.00  0.00     0.099 C 
HETATM   14  N   UNK N   1      25.466  16.867   5.393  0.00  0.00    -0.191 NA
ENDROOT
BRANCH  10  15
HETATM   15  C   UNK N   1      33.107  16.885   3.746  0.00  0.00     0.186 C 
BRANCH  15  16
HETATM   16  C   UNK N   1      33.629  15.475   3.521  0.00  0.00     0.027 A 
HETATM   17  C   UNK N   1      34.414  14.820   4.494  0.00  0.00     0.027 A 
HETATM   18  C   UNK N   1      34.966  13.566   4.230  0.00  0.00     0.003 A 
HETATM   19  C   UNK N   1      34.733  12.968   2.995  0.00  0.00     0.017 A 
HETATM   20  C   UNK N   1      33.922  13.625   2.060  0.00  0.00     0.088 A 
HETATM   21  N   UNK N   1      33.392  14.853   2.337  0.00  0.00    -0.368 N 
ATOM     22  HN  UNK N   1      32.804  15.310   1.641  1.00  0.00     0.165 HD
ENDBRANCH  15  16
ENDBRANCH  10  15
BRANCH   1  23
HETATM   23  N   UNK N   1      33.453  16.747   9.367  0.00  0.00    -0.332 N 
HETATM   24  C   UNK N   1      34.654  16.837  10.010  0.00  0.00     0.361 C 
HETATM   25  O   UNK N   1      35.414  17.771   9.800  0.00  0.00    -0.238 OA
HETATM   26  H   UNK N   1      32.864  15.996   9.605  0.00  0.00     0.165 HD
BRANCH  24  27
HETATM   27  O   UNK N   1      35.086  15.794  10.746  0.00  0.00    -0.299 OA
BRANCH  27  28
HETATM   28  C   UNK N   1      34.942  14.527  10.227  0.00  0.00     0.125 C 
HETATM   29  C   UNK N   1      35.048  13.497  11.318  0.00  0.00     0.040 C 
HETATM   30  C   UNK N   1      36.077  14.257   9.270  0.00  0.00     0.040 C 
ENDBRANCH  27  28
ENDBRANCH  24  27
ENDBRANCH   1  23
TORSDOF 5
ENDMDL
MODEL 6
REMARK VINA RESULT:      -7.0      2.673      4.726
REMARK  5 active torsions:
REMARK  status: ('A' for Active; 'I' for Inactive)
REMARK    1  A    between atoms: C_2  and  O_4 
REMARK    2  A    between atoms: O_4  and  C_5 
REMARK       I    between atoms: C_5  and  N_7 
REMARK    3  A    between atoms: C_8  and  N_7 
REMARK    4  A    between atoms: N_17  and  C_20 
REMARK    5  A    between atoms: C_20  and  C_21 
ROOT
HETATM    1  C   UNK N   1      25.394  16.227   5.275  0.00  0.00     0.096 A 
HETATM    2  C   UNK N   1      24.925  17.425   4.393  0.00  0.00     0.067 A 
HETATM    3  C   UNK N   1      23.474  17.198   4.380  0.00  0.00    -0.021 A 
HETATM    4  C   UNK N   1      22.354  17.785   3.850  0.00  0.00     0.001 A 
HETATM    5  C   UNK N   1      22.216  18.919   3.087  0.00  0.00     0.037 A 
HETATM    6  C   UNK N   1      20.942  19.259   2.628  0.00  0.00     0.045 A 
HETATM    7  C   UNK N   1      19.816  18.438   2.946  0.00  0.00     0.025 A 
HETATM    8  C   UNK N   1      19.990  17.263   3.719  0.00  0.00     0.032 A 
HETATM    9  C   UNK N   1      21.294  16.970   4.159  0.00  0.00     0.046 A 
HETATM   10  N   UNK N   1      21.746  15.884   4.837  0.00  0.00    -0.344 N 
HETATM   11  C   UNK N   1      23.081  16.075   4.981  0.00  0.00     0.021 A 
HETATM   12  C   UNK N   1      24.176  15.289   5.579  0.00  0.00     0.083 A 
HETATM   13  C   UNK N   1      20.813  20.443   1.816  0.00  0.00     0.099 C 
HETATM   14  N   UNK N   1      20.670  21.389   1.162  0.00  0.00    -0.191 NA
ENDROOT
BRANCH  10  15
HETATM   15  C   UNK N   1      20.973  14.703   5.201  0.00  0.00     0.186 C 
BRANCH  15  16
HETATM   16  C   UNK N   1      20.871  14.592   6.713  0.00  0.00     0.027 A 
HETATM   17  C   UNK N   1      20.456  15.685   7.504  0.00  0.00     0.027 A 
HETATM   18  C   UNK N   1      20.463  15.594   8.895  0.00  0.00     0.003 A 
HETATM   19  C   UNK N   1      20.884  14.413   9.497  0.00  0.00     0.017 A 
HETATM   20  C   UNK N   1      21.259  13.331   8.690  0.00  0.00     0.088 A 
HETATM   21  N   UNK N   1      21.246  13.439   7.328  0.00  0.00    -0.368 N 
ATOM     22  HN  UNK N   1      21.523  12.638   6.762  1.00  0.00     0.165 HD
ENDBRANCH  15  16
ENDBRANCH  10  15
BRANCH   1  23
HETATM   23  N   UNK N   1      26.090  16.691   6.468  0.00  0.00    -0.332 N 
HETATM   24  C   UNK N   1      27.445  16.692   6.630  0.00  0.00     0.361 C 
HETATM   25  O   UNK N   1      28.190  16.335   5.727  0.00  0.00    -0.238 OA
HETATM   26  H   UNK N   1      25.543  17.027   7.213  0.00  0.00     0.165 HD
BRANCH  24  27
HETATM   27  O   UNK N   1      27.962  16.915   7.854  0.00  0.00    -0.299 OA
BRANCH  27  28
HETATM   28  C   UNK N   1      28.802  17.993   8.020  0.00  0.00     0.125 C 
HETATM   29  C   UNK N   1      29.146  18.174   9.473  0.00  0.00     0.040 C 
HETATM   30  C   UNK N   1      28.080  19.247   7.590  0.00  0.00     0.040 C 
ENDBRANCH  27  28
ENDBRANCH  24  27
ENDBRANCH   1  23
TORSDOF 5
ENDMDL
MODEL 7
REMARK VINA RESULT:      -6.9      4.257      9.578
REMARK  5 active torsions:
REMARK  status: ('A' for Active; 'I' for Inactive)
REMARK    1  A    between atoms: C_2  and  O_4 
REMARK    2  A    between atoms: O_4  and  C_5 
REMARK       I    between atoms: C_5  and  N_7 
REMARK    3  A    between atoms: C_8  and  N_7 
REMARK    4  A    between atoms: N_17  and  C_20 
REMARK    5  A    between atoms: C_20  and  C_21 
ROOT
HETATM    1  C   UNK N   1      26.109  14.670   5.928  0.00  0.00     0.096 A 
HETATM    2  C   UNK N   1      27.293  14.330   4.971  0.00  0.00     0.067 A 
HETATM    3  C   UNK N   1      28.325  15.241   5.486  0.00  0.00    -0.021 A 
HETATM    4  C   UNK N   1      29.630  15.562   5.216  0.00  0.00     0.001 A 
HETATM    5  C   UNK N   1      30.497  15.057   4.277  0.00  0.00     0.037 A 
HETATM    6  C   UNK N   1      31.773  15.618   4.184  0.00  0.00     0.045 A 
HETATM    7  C   UNK N   1      32.156  16.692   5.046  0.00  0.00     0.025 A 
HETATM    8  C   UNK N   1      31.234  17.206   5.992  0.00  0.00     0.032 A 
HETATM    9  C   UNK N   1      29.964  16.601   6.047  0.00  0.00     0.046 A 
HETATM   10  N   UNK N   1      28.884  16.942   6.794  0.00  0.00    -0.344 N 
HETATM   11  C   UNK N   1      27.909  16.067   6.446  0.00  0.00     0.021 A 
HETATM   12  C   UNK N   1      26.499  15.885   6.837  0.00  0.00     0.083 A 
HETATM   13  C   UNK N   1      32.669  15.090   3.185  0.00  0.00     0.099 C 
HETATM   14  N   UNK N   1      33.416  14.692   2.395  0.00  0.00    -0.191 NA
ENDROOT
BRANCH  10  15
HETATM   15  C   UNK N   1      28.767  18.099   7.675  0.00  0.00     0.186 C 
BRANCH  15  16
HETATM   16  C   UNK N   1      27.944  19.185   7.001  0.00  0.00     0.027 A 
HETATM   17  C   UNK N   1      28.083  19.465   5.625  0.00  0.00     0.027 A 
HETATM   18  C   UNK N   1      27.392  20.530   5.047  0.00  0.00     0.003 A 
HETATM   19  C   UNK N   1      26.562  21.314   5.843  0.00  0.00     0.017 A 
HETATM   20  C   UNK N   1      26.415  20.994   7.199  0.00  0.00     0.088 A 
HETATM   21  N   UNK N   1      27.101  19.947   7.747  0.00  0.00    -0.368 N 
ATOM     22  HN  UNK N   1      26.976  19.734   8.736  1.00  0.00     0.165 HD
ENDBRANCH  15  16
ENDBRANCH  10  15
BRANCH   1  23
HETATM   23  N   UNK N   1      25.679  13.494   6.674  0.00  0.00    -0.332 N 
HETATM   24  C   UNK N   1      24.419  13.296   7.160  0.00  0.00     0.361 C 
HETATM   25  O   UNK N   1      23.526  14.104   6.948  0.00  0.00    -0.238 OA
HETATM   26  H   UNK N   1      26.347  12.791   6.840  0.00  0.00     0.165 HD
BRANCH  24  27
HETATM   27  O   UNK N   1      24.201  12.293   8.034  0.00  0.00    -0.299 OA
BRANCH  27  28
HETATM   28  C   UNK N   1      23.775  12.617   9.301  0.00  0.00     0.125 C 
HETATM   29  C   UNK N   1      24.952  12.812  10.218  0.00  0.00     0.040 C 
HETATM   30  C   UNK N   1      22.981  11.461   9.862  0.00  0.00     0.040 C 
ENDBRANCH  27  28
ENDBRANCH  24  27
ENDBRANCH   1  23
TORSDOF 5
ENDMDL
MODEL 8
REMARK VINA RESULT:      -6.9     15.454     17.904
REMARK  5 active torsions:
REMARK  status: ('A' for Active; 'I' for Inactive)
REMARK    1  A    between atoms: C_2  and  O_4 
REMARK    2  A    between atoms: O_4  and  C_5 
REMARK       I    between atoms: C_5  and  N_7 
REMARK    3  A    between atoms: C_8  and  N_7 
REMARK    4  A    between atoms: N_17  and  C_20 
REMARK    5  A    between atoms: C_20  and  C_21 
ROOT
HETATM    1  C   UNK N   1      27.301  25.248  -3.826  0.00  0.00     0.096 A 
HETATM    2  C   UNK N   1      28.488  24.284  -3.517  0.00  0.00     0.067 A 
HETATM    3  C   UNK N   1      28.541  23.513  -4.766  0.00  0.00    -0.021 A 
HETATM    4  C   UNK N   1      29.283  22.494  -5.306  0.00  0.00     0.001 A 
HETATM    5  C   UNK N   1      30.354  21.802  -4.794  0.00  0.00     0.037 A 
HETATM    6  C   UNK N   1      30.890  20.757  -5.550  0.00  0.00     0.045 A 
HETATM    7  C   UNK N   1      30.328  20.420  -6.820  0.00  0.00     0.025 A 
HETATM    8  C   UNK N   1      29.210  21.138  -7.314  0.00  0.00     0.032 A 
HETATM    9  C   UNK N   1      28.713  22.184  -6.515  0.00  0.00     0.046 A 
HETATM   10  N   UNK N   1      27.622  22.969  -6.710  0.00  0.00    -0.344 N 
HETATM   11  C   UNK N   1      27.567  23.790  -5.633  0.00  0.00     0.021 A 
HETATM   12  C   UNK N   1      26.641  24.849  -5.190  0.00  0.00     0.083 A 
HETATM   13  C   UNK N   1      32.005  20.029  -4.997  0.00  0.00     0.099 C 
HETATM   14  N   UNK N   1      32.901  19.422  -4.585  0.00  0.00    -0.191 NA
ENDROOT
BRANCH  10  15
HETATM   15  C   UNK N   1      26.644  22.844  -7.784  0.00  0.00     0.186 C 
BRANCH  15  16
HETATM   16  C   UNK N   1      26.700  24.068  -8.684  0.00  0.00     0.027 A 
HETATM   17  C   UNK N   1      25.569  24.892  -8.875  0.00  0.00     0.027 A 
HETATM   18  C   UNK N   1      25.612  25.952  -9.779  0.00  0.00     0.003 A 
HETATM   19  C   UNK N   1      26.783  26.190 -10.493  0.00  0.00     0.017 A 
HETATM   20  C   UNK N   1      27.901  25.379 -10.260  0.00  0.00     0.088 A 
HETATM   21  N   UNK N   1      27.840  24.345  -9.370  0.00  0.00    -0.368 N 
ATOM     22  HN  UNK N   1      28.667  23.769  -9.217  1.00  0.00     0.165 HD
ENDBRANCH  15  16
ENDBRANCH  10  15
BRANCH   1  23
HETATM   23  N   UNK N   1      27.724  26.642  -3.765  0.00  0.00    -0.332 N 
HETATM   24  C   UNK N   1      26.993  27.654  -3.213  0.00  0.00     0.361 C 
HETATM   25  O   UNK N   1      25.918  27.436  -2.672  0.00  0.00    -0.238 OA
HETATM   26  H   UNK N   1      28.600  26.870  -4.150  0.00  0.00     0.165 HD
BRANCH  24  27
HETATM   27  O   UNK N   1      27.371  28.930  -3.426  0.00  0.00    -0.299 OA
BRANCH  27  28
HETATM   28  C   UNK N   1      26.815  29.605  -4.488  0.00  0.00     0.125 C 
HETATM   29  C   UNK N   1      27.799  29.705  -5.622  0.00  0.00     0.040 C 
HETATM   30  C   UNK N   1      26.506  31.020  -4.063  0.00  0.00     0.040 C 
ENDBRANCH  27  28
ENDBRANCH  24  27
ENDBRANCH   1  23
TORSDOF 5
ENDMDL
MODEL 9
REMARK VINA RESULT:      -6.9      8.494     12.677
REMARK  5 active torsions:
REMARK  status: ('A' for Active; 'I' for Inactive)
REMARK    1  A    between atoms: C_2  and  O_4 
REMARK    2  A    between atoms: O_4  and  C_5 
REMARK       I    between atoms: C_5  and  N_7 
REMARK    3  A    between atoms: C_8  and  N_7 
REMARK    4  A    between atoms: N_17  and  C_20 
REMARK    5  A    between atoms: C_20  and  C_21 
ROOT
HETATM    1  C   UNK N   1      33.947  13.810   9.690  0.00  0.00     0.096 A 
HETATM    2  C   UNK N   1      34.075  13.371   8.199  0.00  0.00     0.067 A 
HETATM    3  C   UNK N   1      33.806  14.646   7.519  0.00  0.00    -0.021 A 
HETATM    4  C   UNK N   1      33.730  15.122   6.236  0.00  0.00     0.001 A 
HETATM    5  C   UNK N   1      33.927  14.485   5.034  0.00  0.00     0.037 A 
HETATM    6  C   UNK N   1      33.726  15.211   3.858  0.00  0.00     0.045 A 
HETATM    7  C   UNK N   1      33.321  16.581   3.915  0.00  0.00     0.025 A 
HETATM    8  C   UNK N   1      33.106  17.207   5.168  0.00  0.00     0.032 A 
HETATM    9  C   UNK N   1      33.327  16.431   6.321  0.00  0.00     0.046 A 
HETATM   10  N   UNK N   1      33.125  16.754   7.624  0.00  0.00    -0.344 N 
HETATM   11  C   UNK N   1      33.458  15.645   8.330  0.00  0.00     0.021 A 
HETATM   12  C   UNK N   1      33.447  15.293   9.761  0.00  0.00     0.083 A 
HETATM   13  C   UNK N   1      33.922  14.528   2.604  0.00  0.00     0.099 C 
HETATM   14  N   UNK N   1      34.070  14.014   1.577  0.00  0.00    -0.191 NA
ENDROOT
BRANCH  10  15
HETATM   15  C   UNK N   1      32.535  17.987   8.132  0.00  0.00     0.186 C 
BRANCH  15  16
HETATM   16  C   UNK N   1      31.049  17.788   8.383  0.00  0.00     0.027 A 
HETATM   17  C   UNK N   1      30.190  17.309   7.370  0.00  0.00     0.027 A 
HETATM   18  C   UNK N   1      28.816  17.227   7.589  0.00  0.00     0.003 A 
HETATM   19  C   UNK N   1      28.298  17.624   8.819  0.00  0.00     0.017 A 
HETATM   20  C   UNK N   1      29.176  18.064   9.819  0.00  0.00     0.088 A 
HETATM   21  N   UNK N   1      30.519  18.137   9.585  0.00  0.00    -0.368 N 
ATOM     22  HN  UNK N   1      31.137  18.460  10.329  1.00  0.00     0.165 HD
ENDBRANCH  15  16
ENDBRANCH  10  15
BRANCH   1  23
HETATM   23  N   UNK N   1      35.188  13.574  10.418  0.00  0.00    -0.332 N 
HETATM   24  C   UNK N   1      35.428  12.495  11.220  0.00  0.00     0.361 C 
HETATM   25  O   UNK N   1      34.602  11.602  11.342  0.00  0.00    -0.238 OA
HETATM   26  H   UNK N   1      35.904  14.241  10.326  0.00  0.00     0.165 HD
BRANCH  24  27
HETATM   27  O   UNK N   1      36.508  12.503  12.026  0.00  0.00    -0.299 OA
BRANCH  27  28
HETATM   28  C   UNK N   1      36.304  12.496  13.387  0.00  0.00     0.125 C 
HETATM   29  C   UNK N   1      36.344  13.898  13.931  0.00  0.00     0.040 C 
HETATM   30  C   UNK N   1      37.435  11.746  14.048  0.00  0.00     0.040 C 
ENDBRANCH  27  28
ENDBRANCH  24  27
ENDBRANCH   1  23
TORSDOF 5
ENDMDL
