REMARK  8 active torsions:
REMARK  status: ('A' for Active; 'I' for Inactive)
REMARK    1  A    between atoms: C_2  and  O_5 
REMARK    2  A    between atoms: O_5  and  C_6 
REMARK    3  A    between atoms: C_7  and  C_6 
REMARK       I    between atoms: N_13  and  C_14 
REMARK    4  A    between atoms: C_14  and  C_16 
REMARK    5  A    between atoms: C_16  and  C_17 
REMARK    6  A    between atoms: C_17  and  C_18 
REMARK    7  A    between atoms: C_17  and  N_28 
REMARK    8  A    between atoms: C_18  and  C_19 
ROOT
HETATM    1  C   UNK N   1      -2.138  -2.735  -0.778  0.00  0.00     0.203 C 
HETATM    2  C   UNK N   1      -3.213  -1.775  -0.273  0.00  0.00     0.242 C 
HETATM    3  O   UNK N   1      -4.384  -2.004  -0.522  0.00  0.00    -0.271 OA
HETATM    4  N   UNK N   1      -2.908  -0.704   0.509  0.00  0.00    -0.358 N 
HETATM    5  C   UNK N   1      -1.570  -0.415   0.954  0.00  0.00     0.142 C 
HETATM    6  C   UNK N   1      -0.583  -0.876  -0.075  0.00  0.00     0.146 C 
HETATM    7  N   UNK N   1      -0.796  -2.277  -0.399  0.00  0.00    -0.335 N 
HETATM    8  C   UNK N   1       0.254  -3.148  -0.290  0.00  0.00     0.222 C 
HETATM    9  O   UNK N   1       0.214  -4.237  -0.850  0.00  0.00    -0.273 OA
HETATM   10  H   UNK N   1      -3.636  -0.099   0.782  0.00  0.00     0.162 HD
ENDROOT
BRANCH   8  11
HETATM   11  C   UNK N   1       1.359  -2.919   0.701  0.00  0.00     0.127 C 
BRANCH  11  12
HETATM   12  C   UNK N   1       2.117  -1.620   0.667  0.00  0.00     0.087 C 
BRANCH  12  13
HETATM   13  C   UNK N   1       3.140  -1.588  -0.460  0.00  0.00     0.067 C 
BRANCH  13  14
HETATM   14  C   UNK N   1       4.331  -2.471  -0.230  0.00  0.00    -0.015 A 
HETATM   15  C   UNK N   1       5.559  -1.859   0.032  0.00  0.00     0.055 A 
HETATM   16  C   UNK N   1       6.706  -2.629   0.225  0.00  0.00     0.155 A 
HETATM   17  C   UNK N   1       6.630  -4.024   0.156  0.00  0.00     0.157 A 
HETATM   18  F   UNK N   1       7.891  -2.021   0.469  0.00  0.00    -0.203 F 
HETATM   19  C   UNK N   1       5.408  -4.645  -0.105  0.00  0.00     0.088 A 
HETATM   20  F   UNK N   1       7.742  -4.777   0.330  0.00  0.00    -0.203 F 
HETATM   21  C   UNK N   1       4.258  -3.878  -0.300  0.00  0.00     0.125 A 
HETATM   22  F   UNK N   1       3.097  -4.514  -0.583  0.00  0.00    -0.205 F 
ENDBRANCH  13  14
ENDBRANCH  12  13
BRANCH  12  23
HETATM   23  N   UNK N   1       2.756  -1.427   1.960  0.00  0.00    -0.425 N 
HETATM   24  H   UNK N   1       3.097  -1.747   2.867  0.00  0.00     0.150 HD
HETATM   25  H   UNK N   1       2.990  -0.434   1.960  0.00  0.00     0.150 HD
ENDBRANCH  12  23
ENDBRANCH  11  12
ENDBRANCH   8  11
BRANCH   1  26
HETATM   26  C   UNK N   1      -2.491  -4.041  -0.037  0.00  0.00     0.203 C 
BRANCH  26  27
HETATM   27  O   UNK N   1      -2.149  -5.186  -0.782  0.00  0.00    -0.379 OA
BRANCH  27  28
HETATM   28  C   UNK N   1      -2.265  -6.342   0.031  0.00  0.00     0.050 C 
HETATM   29  C   UNK N   1      -1.948  -7.546  -0.830  0.00  0.00     0.045 C 
HETATM   30  C   UNK N   1      -1.267  -6.341   1.186  0.00  0.00     0.045 C 
HETATM   31  C   UNK N   1      -3.684  -6.530   0.559  0.00  0.00     0.045 C 
ENDBRANCH  27  28
ENDBRANCH  26  27
ENDBRANCH   1  26
TORSDOF 8
