MODEL 1
REMARK VINA RESULT:      -8.1      0.000      0.000
REMARK  9 active torsions:
REMARK  status: ('A' for Active; 'I' for Inactive)
REMARK    1  A    between atoms: C_2  and  N_4 
REMARK    2  A    between atoms: C_12  and  C_15 
REMARK       I    between atoms: C_15  and  N_17 
REMARK    3  A    between atoms: C_18  and  N_17 
REMARK    4  A    between atoms: N_25  and  C_26 
REMARK    5  A    between atoms: C_26  and  C_27 
REMARK    6  A    between atoms: C_27  and  C_28 
REMARK    7  A    between atoms: C_27  and  O_35 
REMARK    8  A    between atoms: C_28  and  N_29 
REMARK    9  A    between atoms: N_29  and  S_31 
ROOT
HETATM    1  C   UNK N   1      34.725  15.311   8.535  0.00  0.00     0.088 C 
HETATM    2  C   UNK N   1      36.011  14.457   8.702  0.00  0.00     0.061 C 
HETATM    3  C   UNK N   1      36.366  14.196  10.190  0.00  0.00     0.225 C 
HETATM    4  C   UNK N   1      36.496  15.521  10.952  0.00  0.00     0.038 C 
HETATM    5  C   UNK N   1      35.085  15.791  11.466  0.00  0.00     0.038 C 
HETATM    6  C   UNK N   1      34.280  14.597  10.959  0.00  0.00     0.225 C 
HETATM    7  C   UNK N   1      33.668  14.875   9.567  0.00  0.00     0.061 C 
HETATM    8  N   UNK N   1      35.238  13.501  10.810  0.00  0.00     0.100 N 
ENDROOT
BRANCH   1   9
HETATM    9  N   UNK N   1      35.049  16.700   8.762  0.00  0.00    -0.352 N 
HETATM   10  C   UNK N   1      34.352  17.758   8.279  0.00  0.00     0.257 C 
HETATM   11  O   UNK N   1      34.885  18.856   8.299  0.00  0.00    -0.267 OA
HETATM   12  H   UNK N   1      35.843  16.896   9.312  0.00  0.00     0.163 HD
BRANCH  10  13
HETATM   13  C   UNK N   1      32.961  17.640   7.749  0.00  0.00     0.101 A 
HETATM   14  C   UNK N   1      31.874  17.986   8.554  0.00  0.00     0.036 A 
HETATM   15  C   UNK N   1      30.584  17.978   8.039  0.00  0.00    -0.008 A 
HETATM   16  C   UNK N   1      29.510  18.377   8.841  0.00  0.00     0.014 A 
HETATM   17  C   UNK N   1      30.366  17.582   6.702  0.00  0.00     0.048 A 
HETATM   18  C   UNK N   1      28.213  18.387   8.322  0.00  0.00     0.001 A 
HETATM   19  C   UNK N   1      27.983  17.988   7.004  0.00  0.00     0.002 A 
HETATM   20  C   UNK N   1      29.051  17.583   6.198  0.00  0.00     0.030 A 
HETATM   21  N   UNK N   1      31.425  17.208   5.912  0.00  0.00    -0.309 N 
HETATM   22  C   UNK N   1      32.720  17.255   6.412  0.00  0.00     0.264 A 
HETATM   23  O   UNK N   1      33.661  16.943   5.697  0.00  0.00    -0.267 OA
BRANCH  21  24
HETATM   24  C   UNK N   1      31.170  16.762   4.530  0.00  0.00     0.085 C 
HETATM   25  C   UNK N   1      31.314  15.253   4.402  0.00  0.00     0.032 C 
HETATM   26  C   UNK N   1      32.068  17.474   3.531  0.00  0.00     0.032 C 
ENDBRANCH  21  24
ENDBRANCH  10  13
ENDBRANCH   1   9
BRANCH   8  27
HETATM   27  C   UNK N   1      35.699  12.942  12.099  0.00  0.00     0.306 C 
BRANCH  27  28
HETATM   28  C   UNK N   1      35.104  11.580  12.483  0.00  0.00     0.160 C 
BRANCH  28  29
HETATM   29  C   UNK N   1      34.361  11.621  13.809  0.00  0.00     0.140 C 
BRANCH  29  30
HETATM   30  N   UNK N   1      35.283  11.312  14.890  0.00  0.00    -0.213 NA
HETATM   31  C   UNK N   1      34.747  10.179  15.628  0.00  0.00     0.129 C 
BRANCH  30  32
HETATM   32  S   UNK N   1      35.412  12.727  15.952  0.00  0.00     0.207 S 
HETATM   33  O   UNK N   1      35.591  12.129  17.356  0.00  0.00    -0.212 OA
HETATM   34  O   UNK N   1      34.009  13.349  16.044  0.00  0.00    -0.212 OA
HETATM   35  C   UNK N   1      36.710  13.943  15.584  0.00  0.00     0.180 C 
ENDBRANCH  30  32
ENDBRANCH  29  30
ENDBRANCH  28  29
BRANCH  28  36
HETATM   36  O   UNK N   1      34.237  11.160  11.476  0.00  0.00    -0.393 OA
HETATM   37  H   UNK N   1      33.273  11.168  11.579  0.00  0.00     0.210 HD
ENDBRANCH  28  36
ENDBRANCH  27  28
ENDBRANCH   8  27
TORSDOF 9
ENDMDL
MODEL 2
REMARK VINA RESULT:      -8.0      2.874      4.583
REMARK  9 active torsions:
REMARK  status: ('A' for Active; 'I' for Inactive)
REMARK    1  A    between atoms: C_2  and  N_4 
REMARK    2  A    between atoms: C_12  and  C_15 
REMARK       I    between atoms: C_15  and  N_17 
REMARK    3  A    between atoms: C_18  and  N_17 
REMARK    4  A    between atoms: N_25  and  C_26 
REMARK    5  A    between atoms: C_26  and  C_27 
REMARK    6  A    between atoms: C_27  and  C_28 
REMARK    7  A    between atoms: C_27  and  O_35 
REMARK    8  A    between atoms: C_28  and  N_29 
REMARK    9  A    between atoms: N_29  and  S_31 
ROOT
HETATM    1  C   UNK N   1      31.256  16.154   6.528  0.00  0.00     0.088 C 
HETATM    2  C   UNK N   1      32.031  14.926   7.075  0.00  0.00     0.061 C 
HETATM    3  C   UNK N   1      33.390  15.312   7.716  0.00  0.00     0.225 C 
HETATM    4  C   UNK N   1      34.253  16.093   6.717  0.00  0.00     0.038 C 
HETATM    5  C   UNK N   1      33.867  17.550   6.955  0.00  0.00     0.038 C 
HETATM    6  C   UNK N   1      32.827  17.472   8.070  0.00  0.00     0.225 C 
HETATM    7  C   UNK N   1      31.395  17.339   7.502  0.00  0.00     0.061 C 
HETATM    8  N   UNK N   1      33.124  16.245   8.811  0.00  0.00     0.100 N 
ENDROOT
BRANCH   1   9
HETATM    9  N   UNK N   1      31.816  16.535   5.252  0.00  0.00    -0.352 N 
HETATM   10  C   UNK N   1      31.101  16.861   4.147  0.00  0.00     0.257 C 
HETATM   11  O   UNK N   1      31.680  16.881   3.072  0.00  0.00    -0.267 OA
HETATM   12  H   UNK N   1      32.798  16.560   5.178  0.00  0.00     0.163 HD
BRANCH  10  13
HETATM   13  C   UNK N   1      29.651  17.215   4.192  0.00  0.00     0.101 A 
HETATM   14  C   UNK N   1      29.254  18.483   4.624  0.00  0.00     0.036 A 
HETATM   15  C   UNK N   1      27.918  18.858   4.574  0.00  0.00    -0.008 A 
HETATM   16  C   UNK N   1      27.541  20.148   4.960  0.00  0.00     0.014 A 
HETATM   17  C   UNK N   1      26.948  17.939   4.117  0.00  0.00     0.048 A 
HETATM   18  C   UNK N   1      26.201  20.536   4.896  0.00  0.00     0.001 A 
HETATM   19  C   UNK N   1      25.231  19.633   4.455  0.00  0.00     0.002 A 
HETATM   20  C   UNK N   1      25.599  18.341   4.072  0.00  0.00     0.030 A 
HETATM   21  N   UNK N   1      27.325  16.680   3.721  0.00  0.00    -0.309 N 
HETATM   22  C   UNK N   1      28.666  16.316   3.732  0.00  0.00     0.264 A 
HETATM   23  O   UNK N   1      28.997  15.200   3.356  0.00  0.00    -0.267 OA
BRANCH  21  24
HETATM   24  C   UNK N   1      26.292  15.724   3.283  0.00  0.00     0.085 C 
HETATM   25  C   UNK N   1      26.299  14.470   4.146  0.00  0.00     0.032 C 
HETATM   26  C   UNK N   1      26.439  15.365   1.814  0.00  0.00     0.032 C 
ENDBRANCH  21  24
ENDBRANCH  10  13
ENDBRANCH   1   9
BRANCH   8  27
HETATM   27  C   UNK N   1      34.347  16.337   9.638  0.00  0.00     0.306 C 
BRANCH  27  28
HETATM   28  C   UNK N   1      34.571  15.183  10.624  0.00  0.00     0.160 C 
BRANCH  28  29
HETATM   29  C   UNK N   1      35.644  15.496  11.654  0.00  0.00     0.140 C 
BRANCH  29  30
HETATM   30  N   UNK N   1      36.513  14.341  11.814  0.00  0.00    -0.213 NA
HETATM   31  C   UNK N   1      36.227  13.409  10.734  0.00  0.00     0.129 C 
BRANCH  30  32
HETATM   32  S   UNK N   1      36.173  13.584  13.382  0.00  0.00     0.207 S 
HETATM   33  O   UNK N   1      36.787  12.180  13.263  0.00  0.00    -0.212 OA
HETATM   34  O   UNK N   1      34.667  13.273  13.413  0.00  0.00    -0.212 OA
HETATM   35  C   UNK N   1      36.758  14.435  14.875  0.00  0.00     0.180 C 
ENDBRANCH  30  32
ENDBRANCH  29  30
ENDBRANCH  28  29
BRANCH  28  36
HETATM   36  O   UNK N   1      33.371  14.899  11.275  0.00  0.00    -0.393 OA
HETATM   37  H   UNK N   1      33.245  14.106  11.818  0.00  0.00     0.210 HD
ENDBRANCH  28  36
ENDBRANCH  27  28
ENDBRANCH   8  27
TORSDOF 9
ENDMDL
MODEL 3
REMARK VINA RESULT:      -7.6      1.368      2.745
REMARK  9 active torsions:
REMARK  status: ('A' for Active; 'I' for Inactive)
REMARK    1  A    between atoms: C_2  and  N_4 
REMARK    2  A    between atoms: C_12  and  C_15 
REMARK       I    between atoms: C_15  and  N_17 
REMARK    3  A    between atoms: C_18  and  N_17 
REMARK    4  A    between atoms: N_25  and  C_26 
REMARK    5  A    between atoms: C_26  and  C_27 
REMARK    6  A    between atoms: C_27  and  C_28 
REMARK    7  A    between atoms: C_27  and  O_35 
REMARK    8  A    between atoms: C_28  and  N_29 
REMARK    9  A    between atoms: N_29  and  S_31 
ROOT
HETATM    1  C   UNK N   1      34.268  15.200   8.398  0.00  0.00     0.088 C 
HETATM    2  C   UNK N   1      35.557  14.337   8.365  0.00  0.00     0.061 C 
HETATM    3  C   UNK N   1      36.130  14.062   9.781  0.00  0.00     0.225 C 
HETATM    4  C   UNK N   1      36.382  15.381  10.524  0.00  0.00     0.038 C 
HETATM    5  C   UNK N   1      35.066  15.656  11.244  0.00  0.00     0.038 C 
HETATM    6  C   UNK N   1      34.185  14.471  10.856  0.00  0.00     0.225 C 
HETATM    7  C   UNK N   1      33.374  14.764   9.573  0.00  0.00     0.061 C 
HETATM    8  N   UNK N   1      35.103  13.370  10.558  0.00  0.00     0.100 N 
ENDROOT
BRANCH   1   9
HETATM    9  N   UNK N   1      34.633  16.585   8.582  0.00  0.00    -0.352 N 
HETATM   10  C   UNK N   1      34.119  17.632   7.890  0.00  0.00     0.257 C 
HETATM   11  O   UNK N   1      34.710  18.698   7.937  0.00  0.00    -0.267 OA
HETATM   12  H   UNK N   1      35.311  16.788   9.268  0.00  0.00     0.163 HD
BRANCH  10  13
HETATM   13  C   UNK N   1      32.858  17.539   7.095  0.00  0.00     0.101 A 
HETATM   14  C   UNK N   1      32.914  17.282   5.723  0.00  0.00     0.036 A 
HETATM   15  C   UNK N   1      31.748  17.092   4.993  0.00  0.00    -0.008 A 
HETATM   16  C   UNK N   1      31.820  16.785   3.631  0.00  0.00     0.014 A 
HETATM   17  C   UNK N   1      30.494  17.195   5.635  0.00  0.00     0.048 A 
HETATM   18  C   UNK N   1      30.650  16.576   2.896  0.00  0.00     0.001 A 
HETATM   19  C   UNK N   1      29.404  16.684   3.518  0.00  0.00     0.002 A 
HETATM   20  C   UNK N   1      29.324  16.996   4.878  0.00  0.00     0.030 A 
HETATM   21  N   UNK N   1      30.429  17.478   6.977  0.00  0.00    -0.309 N 
HETATM   22  C   UNK N   1      31.595  17.628   7.717  0.00  0.00     0.264 A 
HETATM   23  O   UNK N   1      31.529  17.858   8.917  0.00  0.00    -0.267 OA
BRANCH  21  24
HETATM   24  C   UNK N   1      29.109  17.617   7.619  0.00  0.00     0.085 C 
HETATM   25  C   UNK N   1      28.612  19.054   7.552  0.00  0.00     0.032 C 
HETATM   26  C   UNK N   1      29.124  17.122   9.056  0.00  0.00     0.032 C 
ENDBRANCH  21  24
ENDBRANCH  10  13
ENDBRANCH   1   9
BRANCH   8  27
HETATM   27  C   UNK N   1      35.747  12.798  11.760  0.00  0.00     0.306 C 
BRANCH  27  28
HETATM   28  C   UNK N   1      35.420  11.327  12.053  0.00  0.00     0.160 C 
BRANCH  28  29
HETATM   29  C   UNK N   1      36.202  10.781  13.237  0.00  0.00     0.140 C 
BRANCH  29  30
HETATM   30  N   UNK N   1      36.344  11.821  14.244  0.00  0.00    -0.213 NA
HETATM   31  C   UNK N   1      37.674  11.707  14.823  0.00  0.00     0.129 C 
BRANCH  30  32
HETATM   32  S   UNK N   1      35.109  11.578  15.494  0.00  0.00     0.207 S 
HETATM   33  O   UNK N   1      34.509  10.202  15.168  0.00  0.00    -0.212 OA
HETATM   34  O   UNK N   1      33.943  12.524  15.162  0.00  0.00    -0.212 OA
HETATM   35  C   UNK N   1      35.635  11.674  17.229  0.00  0.00     0.180 C 
ENDBRANCH  30  32
ENDBRANCH  29  30
ENDBRANCH  28  29
BRANCH  28  36
HETATM   36  O   UNK N   1      34.054  11.204  12.302  0.00  0.00    -0.393 OA
HETATM   37  H   UNK N   1      33.703  10.828  13.123  0.00  0.00     0.210 HD
ENDBRANCH  28  36
ENDBRANCH  27  28
ENDBRANCH   8  27
TORSDOF 9
ENDMDL
MODEL 4
REMARK VINA RESULT:      -7.6      2.961      5.175
REMARK  9 active torsions:
REMARK  status: ('A' for Active; 'I' for Inactive)
REMARK    1  A    between atoms: C_2  and  N_4 
REMARK    2  A    between atoms: C_12  and  C_15 
REMARK       I    between atoms: C_15  and  N_17 
REMARK    3  A    between atoms: C_18  and  N_17 
REMARK    4  A    between atoms: N_25  and  C_26 
REMARK    5  A    between atoms: C_26  and  C_27 
REMARK    6  A    between atoms: C_27  and  C_28 
REMARK    7  A    between atoms: C_27  and  O_35 
REMARK    8  A    between atoms: C_28  and  N_29 
REMARK    9  A    between atoms: N_29  and  S_31 
ROOT
HETATM    1  C   UNK N   1      31.343  16.029   6.093  0.00  0.00     0.088 C 
HETATM    2  C   UNK N   1      32.221  14.882   6.661  0.00  0.00     0.061 C 
HETATM    3  C   UNK N   1      33.447  15.404   7.455  0.00  0.00     0.225 C 
HETATM    4  C   UNK N   1      34.289  16.347   6.586  0.00  0.00     0.038 C 
HETATM    5  C   UNK N   1      33.689  17.725   6.849  0.00  0.00     0.038 C 
HETATM    6  C   UNK N   1      32.567  17.448   7.846  0.00  0.00     0.225 C 
HETATM    7  C   UNK N   1      31.227  17.163   7.128  0.00  0.00     0.061 C 
HETATM    8  N   UNK N   1      32.955  16.229   8.558  0.00  0.00     0.100 N 
ENDROOT
BRANCH   1   9
HETATM    9  N   UNK N   1      31.966  16.553   4.900  0.00  0.00    -0.352 N 
HETATM   10  C   UNK N   1      31.365  16.679   3.691  0.00  0.00     0.257 C 
HETATM   11  O   UNK N   1      32.073  16.859   2.713  0.00  0.00    -0.267 OA
HETATM   12  H   UNK N   1      32.905  16.842   4.969  0.00  0.00     0.163 HD
BRANCH  10  13
HETATM   13  C   UNK N   1      29.883  16.629   3.511  0.00  0.00     0.101 A 
HETATM   14  C   UNK N   1      29.296  15.548   2.849  0.00  0.00     0.036 A 
HETATM   15  C   UNK N   1      27.914  15.439   2.766  0.00  0.00    -0.008 A 
HETATM   16  C   UNK N   1      27.339  14.326   2.145  0.00  0.00     0.014 A 
HETATM   17  C   UNK N   1      27.096  16.446   3.323  0.00  0.00     0.048 A 
HETATM   18  C   UNK N   1      25.949  14.203   2.074  0.00  0.00     0.001 A 
HETATM   19  C   UNK N   1      25.130  15.198   2.613  0.00  0.00     0.002 A 
HETATM   20  C   UNK N   1      25.698  16.315   3.230  0.00  0.00     0.030 A 
HETATM   21  N   UNK N   1      27.665  17.529   3.948  0.00  0.00    -0.309 N 
HETATM   22  C   UNK N   1      29.047  17.619   4.068  0.00  0.00     0.264 A 
HETATM   23  O   UNK N   1      29.546  18.574   4.647  0.00  0.00    -0.267 OA
BRANCH  21  24
HETATM   24  C   UNK N   1      26.794  18.587   4.490  0.00  0.00     0.085 C 
HETATM   25  C   UNK N   1      26.891  19.859   3.661  0.00  0.00     0.032 C 
HETATM   26  C   UNK N   1      27.095  18.874   5.952  0.00  0.00     0.032 C 
ENDBRANCH  21  24
ENDBRANCH  10  13
ENDBRANCH   1   9
BRANCH   8  27
HETATM   27  C   UNK N   1      34.068  16.432   9.509  0.00  0.00     0.306 C 
BRANCH  27  28
HETATM   28  C   UNK N   1      34.424  15.221  10.384  0.00  0.00     0.160 C 
BRANCH  28  29
HETATM   29  C   UNK N   1      35.662  15.459  11.233  0.00  0.00     0.140 C 
BRANCH  29  30
HETATM   30  N   UNK N   1      36.519  14.285  11.179  0.00  0.00    -0.213 NA
HETATM   31  C   UNK N   1      36.133  13.499  10.017  0.00  0.00     0.129 C 
BRANCH  30  32
HETATM   32  S   UNK N   1      36.286  13.339  12.661  0.00  0.00     0.207 S 
HETATM   33  O   UNK N   1      37.308  12.197  12.544  0.00  0.00    -0.212 OA
HETATM   34  O   UNK N   1      34.951  12.592  12.511  0.00  0.00    -0.212 OA
HETATM   35  C   UNK N   1      36.446  14.206  14.249  0.00  0.00     0.180 C 
ENDBRANCH  30  32
ENDBRANCH  29  30
ENDBRANCH  28  29
BRANCH  28  36
HETATM   36  O   UNK N   1      33.343  14.922  11.212  0.00  0.00    -0.393 OA
HETATM   37  H   UNK N   1      32.973  15.561  11.840  0.00  0.00     0.210 HD
ENDBRANCH  28  36
ENDBRANCH  27  28
ENDBRANCH   8  27
TORSDOF 9
ENDMDL
MODEL 5
REMARK VINA RESULT:      -7.4      3.043      4.984
REMARK  9 active torsions:
REMARK  status: ('A' for Active; 'I' for Inactive)
REMARK    1  A    between atoms: C_2  and  N_4 
REMARK    2  A    between atoms: C_12  and  C_15 
REMARK       I    between atoms: C_15  and  N_17 
REMARK    3  A    between atoms: C_18  and  N_17 
REMARK    4  A    between atoms: N_25  and  C_26 
REMARK    5  A    between atoms: C_26  and  C_27 
REMARK    6  A    between atoms: C_27  and  C_28 
REMARK    7  A    between atoms: C_27  and  O_35 
REMARK    8  A    between atoms: C_28  and  N_29 
REMARK    9  A    between atoms: N_29  and  S_31 
ROOT
HETATM    1  C   UNK N   1      31.294  16.323   6.364  0.00  0.00     0.088 C 
HETATM    2  C   UNK N   1      32.245  15.138   6.681  0.00  0.00     0.061 C 
HETATM    3  C   UNK N   1      33.526  15.583   7.434  0.00  0.00     0.225 C 
HETATM    4  C   UNK N   1      34.264  16.671   6.643  0.00  0.00     0.038 C 
HETATM    5  C   UNK N   1      33.659  17.975   7.155  0.00  0.00     0.038 C 
HETATM    6  C   UNK N   1      32.638  17.517   8.194  0.00  0.00     0.225 C 
HETATM    7  C   UNK N   1      31.246  17.291   7.560  0.00  0.00     0.061 C 
HETATM    8  N   UNK N   1      33.116  16.224   8.684  0.00  0.00     0.100 N 
ENDROOT
BRANCH   1   9
HETATM    9  N   UNK N   1      31.795  17.034   5.211  0.00  0.00    -0.352 N 
HETATM   10  C   UNK N   1      31.493  16.748   3.920  0.00  0.00     0.257 C 
HETATM   11  O   UNK N   1      32.196  17.229   3.046  0.00  0.00    -0.267 OA
HETATM   12  H   UNK N   1      32.406  17.789   5.375  0.00  0.00     0.163 HD
BRANCH  10  13
HETATM   13  C   UNK N   1      30.333  15.893   3.527  0.00  0.00     0.101 A 
HETATM   14  C   UNK N   1      29.062  16.457   3.397  0.00  0.00     0.036 A 
HETATM   15  C   UNK N   1      27.998  15.695   2.933  0.00  0.00    -0.008 A 
HETATM   16  C   UNK N   1      26.742  16.286   2.758  0.00  0.00     0.014 A 
HETATM   17  C   UNK N   1      28.193  14.331   2.626  0.00  0.00     0.048 A 
HETATM   18  C   UNK N   1      25.672  15.528   2.276  0.00  0.00     0.001 A 
HETATM   19  C   UNK N   1      25.850  14.175   1.978  0.00  0.00     0.002 A 
HETATM   20  C   UNK N   1      27.101  13.578   2.155  0.00  0.00     0.030 A 
HETATM   21  N   UNK N   1      29.432  13.760   2.782  0.00  0.00    -0.309 N 
HETATM   22  C   UNK N   1      30.508  14.530   3.206  0.00  0.00     0.264 A 
HETATM   23  O   UNK N   1      31.613  14.021   3.320  0.00  0.00    -0.267 OA
BRANCH  21  24
HETATM   24  C   UNK N   1      29.605  12.326   2.490  0.00  0.00     0.085 C 
HETATM   25  C   UNK N   1      30.023  11.557   3.735  0.00  0.00     0.032 C 
HETATM   26  C   UNK N   1      30.592  12.093   1.358  0.00  0.00     0.032 C 
ENDBRANCH  21  24
ENDBRANCH  10  13
ENDBRANCH   1   9
BRANCH   8  27
HETATM   27  C   UNK N   1      34.306  16.327   9.555  0.00  0.00     0.306 C 
BRANCH  27  28
HETATM   28  C   UNK N   1      34.520  15.160  10.530  0.00  0.00     0.160 C 
BRANCH  28  29
HETATM   29  C   UNK N   1      35.671  15.407  11.491  0.00  0.00     0.140 C 
BRANCH  29  30
HETATM   30  N   UNK N   1      36.443  14.184  11.646  0.00  0.00    -0.213 NA
HETATM   31  C   UNK N   1      36.013  13.247  10.620  0.00  0.00     0.129 C 
BRANCH  30  32
HETATM   32  S   UNK N   1      36.130  13.512  13.257  0.00  0.00     0.207 S 
HETATM   33  O   UNK N   1      36.795  12.127  13.224  0.00  0.00    -0.212 OA
HETATM   34  O   UNK N   1      34.636  13.149  13.310  0.00  0.00    -0.212 OA
HETATM   35  C   UNK N   1      36.683  14.474  14.695  0.00  0.00     0.180 C 
ENDBRANCH  30  32
ENDBRANCH  29  30
ENDBRANCH  28  29
BRANCH  28  36
HETATM   36  O   UNK N   1      33.347  14.949  11.254  0.00  0.00    -0.393 OA
HETATM   37  H   UNK N   1      33.239  15.242  12.172  0.00  0.00     0.210 HD
ENDBRANCH  28  36
ENDBRANCH  27  28
ENDBRANCH   8  27
TORSDOF 9
ENDMDL
MODEL 6
REMARK VINA RESULT:      -7.2      3.914      9.578
REMARK  9 active torsions:
REMARK  status: ('A' for Active; 'I' for Inactive)
REMARK    1  A    between atoms: C_2  and  N_4 
REMARK    2  A    between atoms: C_12  and  C_15 
REMARK       I    between atoms: C_15  and  N_17 
REMARK    3  A    between atoms: C_18  and  N_17 
REMARK    4  A    between atoms: N_25  and  C_26 
REMARK    5  A    between atoms: C_26  and  C_27 
REMARK    6  A    between atoms: C_27  and  C_28 
REMARK    7  A    between atoms: C_27  and  O_35 
REMARK    8  A    between atoms: C_28  and  N_29 
REMARK    9  A    between atoms: N_29  and  S_31 
ROOT
HETATM    1  C   UNK N   1      33.538  15.147   9.186  0.00  0.00     0.088 C 
HETATM    2  C   UNK N   1      32.066  15.607   9.365  0.00  0.00     0.061 C 
HETATM    3  C   UNK N   1      31.487  16.269   8.086  0.00  0.00     0.225 C 
HETATM    4  C   UNK N   1      32.369  17.444   7.643  0.00  0.00     0.038 C 
HETATM    5  C   UNK N   1      33.387  16.806   6.702  0.00  0.00     0.038 C 
HETATM    6  C   UNK N   1      32.993  15.332   6.686  0.00  0.00     0.225 C 
HETATM    7  C   UNK N   1      33.731  14.535   7.787  0.00  0.00     0.061 C 
HETATM    8  N   UNK N   1      31.563  15.295   6.998  0.00  0.00     0.100 N 
ENDROOT
BRANCH   1   9
HETATM    9  N   UNK N   1      34.408  16.293   9.316  0.00  0.00    -0.352 N 
HETATM   10  C   UNK N   1      35.429  16.407  10.201  0.00  0.00     0.257 C 
HETATM   11  O   UNK N   1      35.893  17.518  10.403  0.00  0.00    -0.267 OA
HETATM   12  H   UNK N   1      34.248  17.054   8.712  0.00  0.00     0.163 HD
BRANCH  10  13
HETATM   13  C   UNK N   1      36.018  15.237  10.917  0.00  0.00     0.101 A 
HETATM   14  C   UNK N   1      35.814  15.083  12.290  0.00  0.00     0.036 A 
HETATM   15  C   UNK N   1      36.270  13.947  12.948  0.00  0.00    -0.008 A 
HETATM   16  C   UNK N   1      36.013  13.782  14.313  0.00  0.00     0.014 A 
HETATM   17  C   UNK N   1      36.976  12.958  12.230  0.00  0.00     0.048 A 
HETATM   18  C   UNK N   1      36.454  12.634  14.975  0.00  0.00     0.001 A 
HETATM   19  C   UNK N   1      37.162  11.652  14.278  0.00  0.00     0.002 A 
HETATM   20  C   UNK N   1      37.426  11.813  12.915  0.00  0.00     0.030 A 
HETATM   21  N   UNK N   1      37.209  13.115  10.886  0.00  0.00    -0.309 N 
HETATM   22  C   UNK N   1      36.719  14.231  10.218  0.00  0.00     0.264 A 
HETATM   23  O   UNK N   1      36.910  14.354   9.017  0.00  0.00    -0.267 OA
BRANCH  21  24
HETATM   24  C   UNK N   1      37.980  12.087  10.164  0.00  0.00     0.085 C 
HETATM   25  C   UNK N   1      39.242  12.675   9.550  0.00  0.00     0.032 C 
HETATM   26  C   UNK N   1      37.142  11.391   9.104  0.00  0.00     0.032 C 
ENDBRANCH  21  24
ENDBRANCH  10  13
ENDBRANCH   1   9
BRANCH   8  27
HETATM   27  C   UNK N   1      30.707  15.778   5.893  0.00  0.00     0.306 C 
BRANCH  27  28
HETATM   28  C   UNK N   1      29.467  16.579   6.315  0.00  0.00     0.160 C 
BRANCH  28  29
HETATM   29  C   UNK N   1      29.166  17.729   5.367  0.00  0.00     0.140 C 
BRANCH  29  30
HETATM   30  N   UNK N   1      27.797  17.617   4.889  0.00  0.00    -0.213 NA
HETATM   31  C   UNK N   1      27.840  17.305   3.468  0.00  0.00     0.129 C 
BRANCH  30  32
HETATM   32  S   UNK N   1      26.972  19.165   5.151  0.00  0.00     0.207 S 
HETATM   33  O   UNK N   1      27.723  20.150   4.242  0.00  0.00    -0.212 OA
HETATM   34  O   UNK N   1      27.371  19.655   6.553  0.00  0.00    -0.212 OA
HETATM   35  C   UNK N   1      25.182  19.229   4.855  0.00  0.00     0.180 C 
ENDBRANCH  30  32
ENDBRANCH  29  30
ENDBRANCH  28  29
BRANCH  28  36
HETATM   36  O   UNK N   1      28.368  15.724   6.372  0.00  0.00    -0.393 OA
HETATM   37  H   UNK N   1      28.382  14.885   6.857  0.00  0.00     0.210 HD
ENDBRANCH  28  36
ENDBRANCH  27  28
ENDBRANCH   8  27
TORSDOF 9
ENDMDL
MODEL 7
REMARK VINA RESULT:      -7.0     14.876     16.899
REMARK  9 active torsions:
REMARK  status: ('A' for Active; 'I' for Inactive)
REMARK    1  A    between atoms: C_2  and  N_4 
REMARK    2  A    between atoms: C_12  and  C_15 
REMARK       I    between atoms: C_15  and  N_17 
REMARK    3  A    between atoms: C_18  and  N_17 
REMARK    4  A    between atoms: N_25  and  C_26 
REMARK    5  A    between atoms: C_26  and  C_27 
REMARK    6  A    between atoms: C_27  and  C_28 
REMARK    7  A    between atoms: C_27  and  O_35 
REMARK    8  A    between atoms: C_28  and  N_29 
REMARK    9  A    between atoms: N_29  and  S_31 
ROOT
HETATM    1  C   UNK N   1      31.971  22.919  -4.748  0.00  0.00     0.088 C 
HETATM    2  C   UNK N   1      33.475  22.540  -4.810  0.00  0.00     0.061 C 
HETATM    3  C   UNK N   1      33.702  21.018  -5.007  0.00  0.00     0.225 C 
HETATM    4  C   UNK N   1      32.990  20.222  -3.905  0.00  0.00     0.038 C 
HETATM    5  C   UNK N   1      31.599  19.963  -4.477  0.00  0.00     0.038 C 
HETATM    6  C   UNK N   1      31.643  20.626  -5.852  0.00  0.00     0.225 C 
HETATM    7  C   UNK N   1      31.181  22.100  -5.785  0.00  0.00     0.061 C 
HETATM    8  N   UNK N   1      33.050  20.621  -6.255  0.00  0.00     0.100 N 
ENDROOT
BRANCH   1   9
HETATM    9  N   UNK N   1      31.462  22.614  -3.431  0.00  0.00    -0.352 N 
HETATM   10  C   UNK N   1      30.526  23.335  -2.765  0.00  0.00     0.257 C 
HETATM   11  O   UNK N   1      30.398  23.142  -1.567  0.00  0.00    -0.267 OA
HETATM   12  H   UNK N   1      31.824  21.817  -2.979  0.00  0.00     0.163 HD
BRANCH  10  13
HETATM   13  C   UNK N   1      29.639  24.331  -3.436  0.00  0.00     0.101 A 
HETATM   14  C   UNK N   1      28.379  23.945  -3.897  0.00  0.00     0.036 A 
HETATM   15  C   UNK N   1      27.505  24.885  -4.430  0.00  0.00    -0.008 A 
HETATM   16  C   UNK N   1      26.227  24.494  -4.840  0.00  0.00     0.014 A 
HETATM   17  C   UNK N   1      27.908  26.234  -4.539  0.00  0.00     0.048 A 
HETATM   18  C   UNK N   1      25.338  25.438  -5.361  0.00  0.00     0.001 A 
HETATM   19  C   UNK N   1      25.728  26.774  -5.483  0.00  0.00     0.002 A 
HETATM   20  C   UNK N   1      27.006  27.170  -5.079  0.00  0.00     0.030 A 
HETATM   21  N   UNK N   1      29.157  26.616  -4.118  0.00  0.00    -0.309 N 
HETATM   22  C   UNK N   1      30.017  25.686  -3.547  0.00  0.00     0.264 A 
HETATM   23  O   UNK N   1      31.120  26.038  -3.153  0.00  0.00    -0.267 OA
BRANCH  21  24
HETATM   24  C   UNK N   1      29.571  28.022  -4.275  0.00  0.00     0.085 C 
HETATM   25  C   UNK N   1      30.758  28.146  -5.218  0.00  0.00     0.032 C 
HETATM   26  C   UNK N   1      29.877  28.675  -2.937  0.00  0.00     0.032 C 
ENDBRANCH  21  24
ENDBRANCH  10  13
ENDBRANCH   1   9
BRANCH   8  27
HETATM   27  C   UNK N   1      33.552  19.281  -6.625  0.00  0.00     0.306 C 
BRANCH  27  28
HETATM   28  C   UNK N   1      35.077  19.110  -6.595  0.00  0.00     0.160 C 
BRANCH  28  29
HETATM   29  C   UNK N   1      35.499  17.695  -6.234  0.00  0.00     0.140 C 
BRANCH  29  30
HETATM   30  N   UNK N   1      36.078  17.688  -4.901  0.00  0.00    -0.213 NA
HETATM   31  C   UNK N   1      37.526  17.674  -5.039  0.00  0.00     0.129 C 
BRANCH  30  32
HETATM   32  S   UNK N   1      35.532  16.232  -4.048  0.00  0.00     0.207 S 
HETATM   33  O   UNK N   1      34.229  16.667  -3.357  0.00  0.00    -0.212 OA
HETATM   34  O   UNK N   1      36.477  16.031  -2.852  0.00  0.00    -0.212 OA
HETATM   35  C   UNK N   1      35.286  14.722  -5.027  0.00  0.00     0.180 C 
ENDBRANCH  30  32
ENDBRANCH  29  30
ENDBRANCH  28  29
BRANCH  28  36
HETATM   36  O   UNK N   1      35.599  19.447  -7.843  0.00  0.00    -0.393 OA
HETATM   37  H   UNK N   1      36.007  20.307  -8.026  0.00  0.00     0.210 HD
ENDBRANCH  28  36
ENDBRANCH  27  28
ENDBRANCH   8  27
TORSDOF 9
ENDMDL
MODEL 8
REMARK VINA RESULT:      -7.0      3.363      9.233
REMARK  9 active torsions:
REMARK  status: ('A' for Active; 'I' for Inactive)
REMARK    1  A    between atoms: C_2  and  N_4 
REMARK    2  A    between atoms: C_12  and  C_15 
REMARK       I    between atoms: C_15  and  N_17 
REMARK    3  A    between atoms: C_18  and  N_17 
REMARK    4  A    between atoms: N_25  and  C_26 
REMARK    5  A    between atoms: C_26  and  C_27 
REMARK    6  A    between atoms: C_27  and  C_28 
REMARK    7  A    between atoms: C_27  and  O_35 
REMARK    8  A    between atoms: C_28  and  N_29 
REMARK    9  A    between atoms: N_29  and  S_31 
ROOT
HETATM    1  C   UNK N   1      33.915  14.756   9.186  0.00  0.00     0.088 C 
HETATM    2  C   UNK N   1      32.556  15.499   9.294  0.00  0.00     0.061 C 
HETATM    3  C   UNK N   1      32.303  16.460   8.102  0.00  0.00     0.225 C 
HETATM    4  C   UNK N   1      33.456  17.462   7.965  0.00  0.00     0.038 C 
HETATM    5  C   UNK N   1      34.442  16.764   7.033  0.00  0.00     0.038 C 
HETATM    6  C   UNK N   1      33.764  15.434   6.716  0.00  0.00     0.225 C 
HETATM    7  C   UNK N   1      34.169  14.336   7.727  0.00  0.00     0.061 C 
HETATM    8  N   UNK N   1      32.327  15.670   6.872  0.00  0.00     0.100 N 
ENDROOT
BRANCH   1   9
HETATM    9  N   UNK N   1      34.973  15.646   9.603  0.00  0.00    -0.352 N 
HETATM   10  C   UNK N   1      35.955  15.340  10.488  0.00  0.00     0.257 C 
HETATM   11  O   UNK N   1      36.604  16.256  10.966  0.00  0.00    -0.267 OA
HETATM   12  H   UNK N   1      34.984  16.551   9.213  0.00  0.00     0.163 HD
BRANCH  10  13
HETATM   13  C   UNK N   1      36.284  13.937  10.881  0.00  0.00     0.101 A 
HETATM   14  C   UNK N   1      37.071  13.143  10.044  0.00  0.00     0.036 A 
HETATM   15  C   UNK N   1      37.469  11.875  10.446  0.00  0.00    -0.008 A 
HETATM   16  C   UNK N   1      38.300  11.111   9.620  0.00  0.00     0.014 A 
HETATM   17  C   UNK N   1      37.045  11.369  11.694  0.00  0.00     0.048 A 
HETATM   18  C   UNK N   1      38.716   9.841  10.027  0.00  0.00     0.001 A 
HETATM   19  C   UNK N   1      38.295   9.326  11.255  0.00  0.00     0.002 A 
HETATM   20  C   UNK N   1      37.462  10.082  12.083  0.00  0.00     0.030 A 
HETATM   21  N   UNK N   1      36.244  12.130  12.510  0.00  0.00    -0.309 N 
HETATM   22  C   UNK N   1      35.879  13.415  12.128  0.00  0.00     0.264 A 
HETATM   23  O   UNK N   1      35.185  14.096  12.870  0.00  0.00    -0.267 OA
BRANCH  21  24
HETATM   24  C   UNK N   1      35.783  11.569  13.792  0.00  0.00     0.085 C 
HETATM   25  C   UNK N   1      34.267  11.435  13.822  0.00  0.00     0.032 C 
HETATM   26  C   UNK N   1      36.273  12.385  14.977  0.00  0.00     0.032 C 
ENDBRANCH  21  24
ENDBRANCH  10  13
ENDBRANCH   1   9
BRANCH   8  27
HETATM   27  C   UNK N   1      31.745  16.492   5.790  0.00  0.00     0.306 C 
BRANCH  27  28
HETATM   28  C   UNK N   1      30.248  16.277   5.524  0.00  0.00     0.160 C 
BRANCH  28  29
HETATM   29  C   UNK N   1      29.388  17.389   6.103  0.00  0.00     0.140 C 
BRANCH  29  30
HETATM   30  N   UNK N   1      28.702  16.902   7.289  0.00  0.00    -0.213 NA
HETATM   31  C   UNK N   1      27.377  16.452   6.891  0.00  0.00     0.129 C 
BRANCH  30  32
HETATM   32  S   UNK N   1      28.570  18.231   8.457  0.00  0.00     0.207 S 
HETATM   33  O   UNK N   1      27.577  17.711   9.508  0.00  0.00    -0.212 OA
HETATM   34  O   UNK N   1      27.762  19.349   7.777  0.00  0.00    -0.212 OA
HETATM   35  C   UNK N   1      30.100  18.827   9.234  0.00  0.00     0.180 C 
ENDBRANCH  30  32
ENDBRANCH  29  30
ENDBRANCH  28  29
BRANCH  28  36
HETATM   36  O   UNK N   1      30.036  16.193   4.149  0.00  0.00    -0.393 OA
HETATM   37  H   UNK N   1      30.193  15.381   3.644  0.00  0.00     0.210 HD
ENDBRANCH  28  36
ENDBRANCH  27  28
ENDBRANCH   8  27
TORSDOF 9
ENDMDL
MODEL 9
REMARK VINA RESULT:      -6.9      3.915     11.848
REMARK  9 active torsions:
REMARK  status: ('A' for Active; 'I' for Inactive)
REMARK    1  A    between atoms: C_2  and  N_4 
REMARK    2  A    between atoms: C_12  and  C_15 
REMARK       I    between atoms: C_15  and  N_17 
REMARK    3  A    between atoms: C_18  and  N_17 
REMARK    4  A    between atoms: N_25  and  C_26 
REMARK    5  A    between atoms: C_26  and  C_27 
REMARK    6  A    between atoms: C_27  and  C_28 
REMARK    7  A    between atoms: C_27  and  O_35 
REMARK    8  A    between atoms: C_28  and  N_29 
REMARK    9  A    between atoms: N_29  and  S_31 
ROOT
HETATM    1  C   UNK N   1      34.880  10.718  16.032  0.00  0.00     0.088 C 
HETATM    2  C   UNK N   1      34.419  12.094  15.479  0.00  0.00     0.061 C 
HETATM    3  C   UNK N   1      35.432  12.704  14.474  0.00  0.00     0.225 C 
HETATM    4  C   UNK N   1      36.822  12.817  15.113  0.00  0.00     0.038 C 
HETATM    5  C   UNK N   1      37.488  11.484  14.785  0.00  0.00     0.038 C 
HETATM    6  C   UNK N   1      36.426  10.734  13.985  0.00  0.00     0.225 C 
HETATM    7  C   UNK N   1      35.518   9.886  14.905  0.00  0.00     0.061 C 
HETATM    8  N   UNK N   1      35.591  11.763  13.365  0.00  0.00     0.100 N 
ENDROOT
BRANCH   1   9
HETATM    9  N   UNK N   1      35.866  10.932  17.066  0.00  0.00    -0.352 N 
HETATM   10  C   UNK N   1      35.836  10.382  18.305  0.00  0.00     0.257 C 
HETATM   11  O   UNK N   1      36.558  10.862  19.165  0.00  0.00    -0.267 OA
HETATM   12  H   UNK N   1      36.622  11.526  16.854  0.00  0.00     0.163 HD
BRANCH  10  13
HETATM   13  C   UNK N   1      34.980   9.209  18.653  0.00  0.00     0.101 A 
HETATM   14  C   UNK N   1      33.779   9.400  19.339  0.00  0.00     0.036 A 
HETATM   15  C   UNK N   1      32.926   8.330  19.577  0.00  0.00    -0.008 A 
HETATM   16  C   UNK N   1      31.702   8.544  20.219  0.00  0.00     0.014 A 
HETATM   17  C   UNK N   1      33.292   7.034  19.156  0.00  0.00     0.048 A 
HETATM   18  C   UNK N   1      30.833   7.474  20.446  0.00  0.00     0.001 A 
HETATM   19  C   UNK N   1      31.188   6.185  20.043  0.00  0.00     0.002 A 
HETATM   20  C   UNK N   1      32.412   5.964  19.405  0.00  0.00     0.030 A 
HETATM   21  N   UNK N   1      34.487   6.831  18.510  0.00  0.00    -0.309 N 
HETATM   22  C   UNK N   1      35.323   7.906  18.233  0.00  0.00     0.264 A 
HETATM   23  O   UNK N   1      36.374   7.722  17.637  0.00  0.00    -0.267 OA
BRANCH  21  24
HETATM   24  C   UNK N   1      34.866   5.464  18.111  0.00  0.00     0.085 C 
HETATM   25  C   UNK N   1      36.153   5.027  18.796  0.00  0.00     0.032 C 
HETATM   26  C   UNK N   1      34.988   5.327  16.602  0.00  0.00     0.032 C 
ENDBRANCH  21  24
ENDBRANCH  10  13
ENDBRANCH   1   9
BRANCH   8  27
HETATM   27  C   UNK N   1      36.259  12.475  12.255  0.00  0.00     0.306 C 
BRANCH  27  28
HETATM   28  C   UNK N   1      35.415  13.544  11.547  0.00  0.00     0.160 C 
BRANCH  28  29
HETATM   29  C   UNK N   1      36.096  14.095  10.304  0.00  0.00     0.140 C 
BRANCH  29  30
HETATM   30  N   UNK N   1      36.002  15.546  10.304  0.00  0.00    -0.213 NA
HETATM   31  C   UNK N   1      35.659  15.975  11.651  0.00  0.00     0.129 C 
BRANCH  30  32
HETATM   32  S   UNK N   1      34.734  16.037   9.165  0.00  0.00     0.207 S 
HETATM   33  O   UNK N   1      34.625  17.558   9.354  0.00  0.00    -0.212 OA
HETATM   34  O   UNK N   1      33.396  15.545   9.743  0.00  0.00    -0.212 OA
HETATM   35  C   UNK N   1      34.958  15.604   7.415  0.00  0.00     0.180 C 
ENDBRANCH  30  32
ENDBRANCH  29  30
ENDBRANCH  28  29
BRANCH  28  36
HETATM   36  O   UNK N   1      34.183  12.995  11.197  0.00  0.00    -0.393 OA
HETATM   37  H   UNK N   1      33.355  13.498  11.236  0.00  0.00     0.210 HD
ENDBRANCH  28  36
ENDBRANCH  27  28
ENDBRANCH   8  27
TORSDOF 9
ENDMDL
