MODEL 1
REMARK VINA RESULT:      -5.1      0.000      0.000
REMARK  2 active torsions:
REMARK  status: ('A' for Active; 'I' for Inactive)
REMARK    1  A    between atoms: C_5  and  C_10 
REMARK    2  A    between atoms: C_6  and  O_9 
REMARK       I    between atoms: C_10  and  N_12 
ROOT
HETATM    1  C   UNK N   1      30.820  17.018   6.909  0.00  0.00     0.151 A 
HETATM    2  C   UNK N   1      30.931  17.197   8.286  0.00  0.00     0.204 A 
HETATM    3  N   UNK N   1      32.126  17.546   8.823  0.00  0.00    -0.324 N 
ATOM      4  HN  UNK N   1      32.200  17.674   9.833  1.00  0.00     0.168 HD
HETATM    5  C   UNK N   1      33.231  17.731   8.050  0.00  0.00     0.154 A 
HETATM    6  C   UNK N   1      33.116  17.550   6.652  0.00  0.00     0.173 A 
HETATM    7  N   UNK N   1      31.913  17.199   6.122  0.00  0.00    -0.341 N 
ATOM      8  HN  UNK N   1      31.830  17.067   5.113  1.00  0.00     0.167 HD
HETATM    9  F   UNK N   1      29.853  17.025   9.088  0.00  0.00    -0.185 F 
ENDROOT
BRANCH   5  10
HETATM   10  C   UNK N   1      34.501  18.111   8.716  0.00  0.00     0.270 C 
HETATM   11  O   UNK N   1      35.095  19.113   8.348  0.00  0.00    -0.266 OA
HETATM   12  N   UNK N   1      35.014  17.375   9.723  0.00  0.00    -0.365 N 
HETATM   13  H   UNK N   1      34.545  16.566  10.029  0.00  0.00     0.159 HD
HETATM   14  H   UNK N   1      35.857  17.647  10.150  0.00  0.00     0.159 HD
ENDBRANCH   5  10
BRANCH   6  15
HETATM   15  O   UNK N   1      34.170  17.719   5.834  0.00  0.00    -0.344 OA
HETATM   16  H   UNK N   1      34.632  18.534   5.828  0.00  0.00     0.219 HD
ENDBRANCH   6  15
TORSDOF 2
ENDMDL
MODEL 2
REMARK VINA RESULT:      -5.0      2.423      2.779
REMARK  2 active torsions:
REMARK  status: ('A' for Active; 'I' for Inactive)
REMARK    1  A    between atoms: C_5  and  C_10 
REMARK    2  A    between atoms: C_6  and  O_9 
REMARK       I    between atoms: C_10  and  N_12 
ROOT
HETATM    1  C   UNK N   1      31.571  17.135   5.578  0.00  0.00     0.151 A 
HETATM    2  C   UNK N   1      32.902  17.380   5.248  0.00  0.00     0.204 A 
HETATM    3  N   UNK N   1      33.791  17.681   6.228  0.00  0.00    -0.324 N 
ATOM      4  HN  UNK N   1      34.764  17.860   5.978  1.00  0.00     0.168 HD
HETATM    5  C   UNK N   1      33.418  17.751   7.535  0.00  0.00     0.154 A 
HETATM    6  C   UNK N   1      32.066  17.500   7.867  0.00  0.00     0.173 A 
HETATM    7  N   UNK N   1      31.182  17.200   6.878  0.00  0.00    -0.341 N 
ATOM      8  HN  UNK N   1      30.206  17.021   7.117  1.00  0.00     0.167 HD
HETATM    9  F   UNK N   1      33.312  17.318   3.959  0.00  0.00    -0.185 F 
ENDROOT
BRANCH   5  10
HETATM   10  C   UNK N   1      34.452  18.087   8.545  0.00  0.00     0.270 C 
HETATM   11  O   UNK N   1      35.174  19.056   8.364  0.00  0.00    -0.266 OA
HETATM   12  N   UNK N   1      34.612  17.347   9.660  0.00  0.00    -0.365 N 
HETATM   13  H   UNK N   1      34.037  16.564   9.817  0.00  0.00     0.159 HD
HETATM   14  H   UNK N   1      35.304  17.589  10.316  0.00  0.00     0.159 HD
ENDBRANCH   5  10
BRANCH   6  15
HETATM   15  O   UNK N   1      31.636  17.553   9.140  0.00  0.00    -0.344 OA
HETATM   16  H   UNK N   1      31.642  18.368   9.603  0.00  0.00     0.219 HD
ENDBRANCH   6  15
TORSDOF 2
ENDMDL
MODEL 3
REMARK VINA RESULT:      -4.9      5.848      6.932
REMARK  2 active torsions:
REMARK  status: ('A' for Active; 'I' for Inactive)
REMARK    1  A    between atoms: C_5  and  C_10 
REMARK    2  A    between atoms: C_6  and  O_9 
REMARK       I    between atoms: C_10  and  N_12 
ROOT
HETATM    1  C   UNK N   1      35.496  12.947  14.034  0.00  0.00     0.151 A 
HETATM    2  C   UNK N   1      36.363  14.023  14.212  0.00  0.00     0.204 A 
HETATM    3  N   UNK N   1      36.448  14.982  13.256  0.00  0.00    -0.324 N 
ATOM      4  HN  UNK N   1      37.086  15.766  13.394  1.00  0.00     0.168 HD
HETATM    5  C   UNK N   1      35.703  14.924  12.118  0.00  0.00     0.154 A 
HETATM    6  C   UNK N   1      34.823  13.831  11.941  0.00  0.00     0.173 A 
HETATM    7  N   UNK N   1      34.746  12.874  12.904  0.00  0.00    -0.341 N 
ATOM      8  HN  UNK N   1      34.111  12.085  12.775  1.00  0.00     0.167 HD
HETATM    9  F   UNK N   1      37.118  14.116  15.333  0.00  0.00    -0.185 F 
ENDROOT
BRANCH   5  10
HETATM   10  C   UNK N   1      35.856  16.012  11.122  0.00  0.00     0.270 C 
HETATM   11  O   UNK N   1      36.935  16.177  10.573  0.00  0.00    -0.266 OA
HETATM   12  N   UNK N   1      34.828  16.826  10.806  0.00  0.00    -0.365 N 
HETATM   13  H   UNK N   1      33.954  16.703  11.241  0.00  0.00     0.159 HD
HETATM   14  H   UNK N   1      34.952  17.540  10.142  0.00  0.00     0.159 HD
ENDBRANCH   5  10
BRANCH   6  15
HETATM   15  O   UNK N   1      34.060  13.718  10.838  0.00  0.00    -0.344 OA
HETATM   16  H   UNK N   1      34.108  14.371  10.167  0.00  0.00     0.219 HD
ENDBRANCH   6  15
TORSDOF 2
ENDMDL
MODEL 4
REMARK VINA RESULT:      -4.9     13.454     14.031
REMARK  2 active torsions:
REMARK  status: ('A' for Active; 'I' for Inactive)
REMARK    1  A    between atoms: C_5  and  C_10 
REMARK    2  A    between atoms: C_6  and  O_9 
REMARK       I    between atoms: C_10  and  N_12 
ROOT
HETATM    1  C   UNK N   1      19.980  16.732   2.781  0.00  0.00     0.151 A 
HETATM    2  C   UNK N   1      20.039  17.053   1.426  0.00  0.00     0.204 A 
HETATM    3  N   UNK N   1      20.330  18.324   1.051  0.00  0.00    -0.324 N 
ATOM      4  HN  UNK N   1      20.371  18.551   0.057  1.00  0.00     0.168 HD
HETATM    5  C   UNK N   1      20.570  19.303   1.966  0.00  0.00     0.154 A 
HETATM    6  C   UNK N   1      20.511  18.973   3.340  0.00  0.00     0.173 A 
HETATM    7  N   UNK N   1      20.217  17.697   3.707  0.00  0.00    -0.341 N 
ATOM      8  HN  UNK N   1      20.173  17.459   4.699  1.00  0.00     0.167 HD
HETATM    9  F   UNK N   1      19.809  16.106   0.487  0.00  0.00    -0.185 F 
ENDROOT
BRANCH   5  10
HETATM   10  C   UNK N   1      20.880  20.667   1.472  0.00  0.00     0.270 C 
HETATM   11  O   UNK N   1      21.644  21.376   2.108  0.00  0.00    -0.266 OA
HETATM   12  N   UNK N   1      20.337  21.142   0.332  0.00  0.00    -0.365 N 
HETATM   13  H   UNK N   1      19.720  20.580  -0.190  0.00  0.00     0.159 HD
HETATM   14  H   UNK N   1      20.558  22.049   0.023  0.00  0.00     0.159 HD
ENDBRANCH   5  10
BRANCH   6  15
HETATM   15  O   UNK N   1      20.739  19.895   4.292  0.00  0.00    -0.344 OA
HETATM   16  H   UNK N   1      21.618  20.102   4.542  0.00  0.00     0.219 HD
ENDBRANCH   6  15
TORSDOF 2
ENDMDL
MODEL 5
REMARK VINA RESULT:      -4.8     12.122     12.834
REMARK  2 active torsions:
REMARK  status: ('A' for Active; 'I' for Inactive)
REMARK    1  A    between atoms: C_5  and  C_10 
REMARK    2  A    between atoms: C_6  and  O_9 
REMARK       I    between atoms: C_10  and  N_12 
ROOT
HETATM    1  C   UNK N   1      31.481  19.951  -5.150  0.00  0.00     0.151 A 
HETATM    2  C   UNK N   1      30.447  20.836  -5.448  0.00  0.00     0.204 A 
HETATM    3  N   UNK N   1      30.180  21.863  -4.603  0.00  0.00    -0.324 N 
ATOM      4  HN  UNK N   1      29.421  22.507  -4.828  1.00  0.00     0.168 HD
HETATM    5  C   UNK N   1      30.898  22.058  -3.463  0.00  0.00     0.154 A 
HETATM    6  C   UNK N   1      31.948  21.158  -3.164  0.00  0.00     0.173 A 
HETATM    7  N   UNK N   1      32.208  20.131  -4.016  0.00  0.00    -0.341 N 
ATOM      8  HN  UNK N   1      32.965  19.481  -3.800  1.00  0.00     0.167 HD
HETATM    9  F   UNK N   1      29.713  20.677  -6.574  0.00  0.00    -0.185 F 
ENDROOT
BRANCH   5  10
HETATM   10  C   UNK N   1      30.540  23.205  -2.593  0.00  0.00     0.270 C 
HETATM   11  O   UNK N   1      30.412  23.029  -1.391  0.00  0.00    -0.266 OA
HETATM   12  N   UNK N   1      30.354  24.440  -3.100  0.00  0.00    -0.365 N 
HETATM   13  H   UNK N   1      30.455  24.595  -4.067  0.00  0.00     0.159 HD
HETATM   14  H   UNK N   1      30.118  25.186  -2.504  0.00  0.00     0.159 HD
ENDBRANCH   5  10
BRANCH   6  15
HETATM   15  O   UNK N   1      32.695  21.297  -2.054  0.00  0.00    -0.344 OA
HETATM   16  H   UNK N   1      32.974  20.539  -1.580  0.00  0.00     0.219 HD
ENDBRANCH   6  15
TORSDOF 2
ENDMDL
MODEL 6
REMARK VINA RESULT:      -4.6     11.508     12.213
REMARK  2 active torsions:
REMARK  status: ('A' for Active; 'I' for Inactive)
REMARK    1  A    between atoms: C_5  and  C_10 
REMARK    2  A    between atoms: C_6  and  O_9 
REMARK       I    between atoms: C_10  and  N_12 
ROOT
HETATM    1  C   UNK N   1      40.586  22.262   1.519  0.00  0.00     0.151 A 
HETATM    2  C   UNK N   1      41.212  23.497   1.674  0.00  0.00     0.204 A 
HETATM    3  N   UNK N   1      42.350  23.584   2.408  0.00  0.00    -0.324 N 
ATOM      4  HN  UNK N   1      42.802  24.492   2.518  1.00  0.00     0.168 HD
HETATM    5  C   UNK N   1      42.903  22.492   3.002  0.00  0.00     0.154 A 
HETATM    6  C   UNK N   1      42.265  21.239   2.842  0.00  0.00     0.173 A 
HETATM    7  N   UNK N   1      41.125  21.161   2.106  0.00  0.00    -0.341 N 
ATOM      8  HN  UNK N   1      40.664  20.258   1.991  1.00  0.00     0.167 HD
HETATM    9  F   UNK N   1      40.693  24.606   1.095  0.00  0.00    -0.185 F 
ENDROOT
BRANCH   5  10
HETATM   10  C   UNK N   1      44.147  22.673   3.789  0.00  0.00     0.270 C 
HETATM   11  O   UNK N   1      44.144  22.420   4.984  0.00  0.00    -0.266 OA
HETATM   12  N   UNK N   1      45.285  23.111   3.213  0.00  0.00    -0.365 N 
HETATM   13  H   UNK N   1      45.300  23.319   2.251  0.00  0.00     0.159 HD
HETATM   14  H   UNK N   1      46.099  23.224   3.754  0.00  0.00     0.159 HD
ENDBRANCH   5  10
BRANCH   6  15
HETATM   15  O   UNK N   1      42.763  20.123   3.404  0.00  0.00    -0.344 OA
HETATM   16  H   UNK N   1      42.684  19.301   2.960  0.00  0.00     0.219 HD
ENDBRANCH   6  15
TORSDOF 2
ENDMDL
MODEL 7
REMARK VINA RESULT:      -4.5      3.842      4.588
REMARK  2 active torsions:
REMARK  status: ('A' for Active; 'I' for Inactive)
REMARK    1  A    between atoms: C_5  and  C_10 
REMARK    2  A    between atoms: C_6  and  O_9 
REMARK       I    between atoms: C_10  and  N_12 
ROOT
HETATM    1  C   UNK N   1      33.755  16.652   8.989  0.00  0.00     0.151 A 
HETATM    2  C   UNK N   1      32.926  15.687   9.556  0.00  0.00     0.204 A 
HETATM    3  N   UNK N   1      33.395  14.908  10.562  0.00  0.00    -0.324 N 
ATOM      4  HN  UNK N   1      32.782  14.203  10.972  1.00  0.00     0.168 HD
HETATM    5  C   UNK N   1      34.663  15.041  11.039  0.00  0.00     0.154 A 
HETATM    6  C   UNK N   1      35.502  16.022  10.461  0.00  0.00     0.173 A 
HETATM    7  N   UNK N   1      35.024  16.799   9.453  0.00  0.00    -0.341 N 
ATOM      8  HN  UNK N   1      35.630  17.506   9.035  1.00  0.00     0.167 HD
HETATM    9  F   UNK N   1      31.657  15.527   9.111  0.00  0.00    -0.185 F 
ENDROOT
BRANCH   5  10
HETATM   10  C   UNK N   1      35.098  14.148  12.140  0.00  0.00     0.270 C 
HETATM   11  O   UNK N   1      35.847  14.580  13.003  0.00  0.00    -0.266 OA
HETATM   12  N   UNK N   1      34.683  12.867  12.212  0.00  0.00    -0.365 N 
HETATM   13  H   UNK N   1      34.080  12.507  11.523  0.00  0.00     0.159 HD
HETATM   14  H   UNK N   1      34.984  12.293  12.951  0.00  0.00     0.159 HD
ENDBRANCH   5  10
BRANCH   6  15
HETATM   15  O   UNK N   1      36.765  16.204  10.889  0.00  0.00    -0.344 OA
HETATM   16  H   UNK N   1      37.318  15.463  11.042  0.00  0.00     0.219 HD
ENDBRANCH   6  15
TORSDOF 2
ENDMDL
MODEL 8
REMARK VINA RESULT:      -4.5      3.057      4.129
REMARK  2 active torsions:
REMARK  status: ('A' for Active; 'I' for Inactive)
REMARK    1  A    between atoms: C_5  and  C_10 
REMARK    2  A    between atoms: C_6  and  O_9 
REMARK       I    between atoms: C_10  and  N_12 
ROOT
HETATM    1  C   UNK N   1      35.550  14.608  10.495  0.00  0.00     0.151 A 
HETATM    2  C   UNK N   1      35.467  15.829  11.162  0.00  0.00     0.204 A 
HETATM    3  N   UNK N   1      35.114  16.945  10.476  0.00  0.00    -0.324 N 
ATOM      4  HN  UNK N   1      35.056  17.835  10.970  1.00  0.00     0.168 HD
HETATM    5  C   UNK N   1      34.835  16.907   9.144  0.00  0.00     0.154 A 
HETATM    6  C   UNK N   1      34.919  15.666   8.470  0.00  0.00     0.173 A 
HETATM    7  N   UNK N   1      35.275  14.553   9.166  0.00  0.00    -0.341 N 
ATOM      8  HN  UNK N   1      35.337  13.657   8.680  1.00  0.00     0.167 HD
HETATM    9  F   UNK N   1      35.734  15.905  12.487  0.00  0.00    -0.185 F 
ENDROOT
BRANCH   5  10
HETATM   10  C   UNK N   1      34.458  18.173   8.468  0.00  0.00     0.270 C 
HETATM   11  O   UNK N   1      35.227  19.121   8.499  0.00  0.00    -0.266 OA
HETATM   12  N   UNK N   1      33.284  18.299   7.817  0.00  0.00    -0.365 N 
HETATM   13  H   UNK N   1      32.656  17.541   7.785  0.00  0.00     0.159 HD
HETATM   14  H   UNK N   1      33.055  19.147   7.376  0.00  0.00     0.159 HD
ENDBRANCH   5  10
BRANCH   6  15
HETATM   15  O   UNK N   1      34.655  15.563   7.155  0.00  0.00    -0.344 OA
HETATM   16  H   UNK N   1      34.070  14.899   6.846  0.00  0.00     0.219 HD
ENDBRANCH   6  15
TORSDOF 2
ENDMDL
MODEL 9
REMARK VINA RESULT:      -4.4      4.975      6.197
REMARK  2 active torsions:
REMARK  status: ('A' for Active; 'I' for Inactive)
REMARK    1  A    between atoms: C_5  and  C_10 
REMARK    2  A    between atoms: C_6  and  O_9 
REMARK       I    between atoms: C_10  and  N_12 
ROOT
HETATM    1  C   UNK N   1      36.603  12.786  12.488  0.00  0.00     0.151 A 
HETATM    2  C   UNK N   1      35.281  13.191  12.658  0.00  0.00     0.204 A 
HETATM    3  N   UNK N   1      34.827  14.289  12.002  0.00  0.00    -0.324 N 
ATOM      4  HN  UNK N   1      33.858  14.580  12.132  1.00  0.00     0.168 HD
HETATM    5  C   UNK N   1      35.631  15.011  11.175  0.00  0.00     0.154 A 
HETATM    6  C   UNK N   1      36.972  14.596  11.003  0.00  0.00     0.173 A 
HETATM    7  N   UNK N   1      37.419  13.495  11.666  0.00  0.00    -0.341 N 
ATOM      8  HN  UNK N   1      38.388  13.196  11.543  1.00  0.00     0.167 HD
HETATM    9  F   UNK N   1      34.451  12.497  13.471  0.00  0.00    -0.185 F 
ENDROOT
BRANCH   5  10
HETATM   10  C   UNK N   1      35.057  16.198  10.496  0.00  0.00     0.270 C 
HETATM   11  O   UNK N   1      35.696  17.239  10.464  0.00  0.00    -0.266 OA
HETATM   12  N   UNK N   1      33.843  16.154   9.911  0.00  0.00    -0.365 N 
HETATM   13  H   UNK N   1      33.318  15.322   9.930  0.00  0.00     0.159 HD
HETATM   14  H   UNK N   1      33.482  16.954   9.466  0.00  0.00     0.159 HD
ENDBRANCH   5  10
BRANCH   6  15
HETATM   15  O   UNK N   1      37.816  15.267  10.199  0.00  0.00    -0.344 OA
HETATM   16  H   UNK N   1      38.550  15.720  10.564  0.00  0.00     0.219 HD
ENDBRANCH   6  15
TORSDOF 2
ENDMDL
