MODEL 1
REMARK VINA RESULT:      -7.1      0.000      0.000
REMARK  4 active torsions:
REMARK  status: ('A' for Active; 'I' for Inactive)
REMARK    1  A    between atoms: C_10  and  C_11 
REMARK    2  A    between atoms: C_11  and  N_12 
REMARK       I    between atoms: N_12  and  C_14 
REMARK    3  A    between atoms: C_14  and  C_16 
REMARK    4  A    between atoms: C_17  and  C_18 
ROOT
HETATM    1  N   UNK N   1      25.668  22.264  -8.252  0.00  0.00    -0.347 N 
HETATM    2  C   UNK N   1      24.815  21.578  -7.305  0.00  0.00     0.153 C 
HETATM    3  C   UNK N   1      26.890  21.745  -8.562  0.00  0.00     0.243 C 
HETATM    4  O   UNK N   1      27.248  20.681  -8.078  0.00  0.00    -0.268 OA
ENDROOT
BRANCH   3   5
HETATM    5  C   UNK N   1      27.827  22.469  -9.448  0.00  0.00     0.075 C 
HETATM    6  C   UNK N   1      29.005  22.933  -9.009  0.00  0.00     0.018 C 
BRANCH   6   7
HETATM    7  C   UNK N   1      29.434  22.827  -7.603  0.00  0.00    -0.020 A 
HETATM    8  C   UNK N   1      28.907  23.696  -6.649  0.00  0.00     0.023 A 
HETATM    9  C   UNK N   1      29.307  23.585  -5.319  0.00  0.00    -0.013 A 
HETATM   10  C   UNK N   1      30.228  22.590  -4.954  0.00  0.00     0.114 A 
HETATM   11  C   UNK N   1      28.787  24.537  -4.286  0.00  0.00     0.051 C 
HETATM   12  N   UNK N   1      30.740  21.758  -5.902  0.00  0.00    -0.351 N 
HETATM   13  N   UNK N   1      30.610  22.443  -3.594  0.00  0.00    -0.313 N 
HETATM   14  C   UNK N   1      30.367  21.858  -7.207  0.00  0.00     0.101 A 
ATOM     15  HN  UNK N   1      31.418  21.045  -5.629  1.00  0.00     0.166 HD
HETATM   16  C   UNK N   1      29.921  23.071  -2.606  0.00  0.00     0.223 C 
HETATM   17  H   UNK N   1      31.384  21.880  -3.366  0.00  0.00     0.170 HD
HETATM   18  O   UNK N   1      30.286  22.961  -1.448  0.00  0.00    -0.273 OA
HETATM   19  C   UNK N   1      28.673  23.853  -2.925  0.00  0.00     0.108 C 
ENDBRANCH   6   7
ENDBRANCH   3   5
BRANCH   1  20
HETATM   20  C   UNK N   1      25.240  23.538  -8.790  0.00  0.00     0.191 C 
BRANCH  20  21
HETATM   21  C   UNK N   1      25.646  24.672  -7.903  0.00  0.00     0.078 A 
HETATM   22  O   UNK N   1      25.288  24.744  -6.635  0.00  0.00    -0.312 OA
HETATM   23  C   UNK N   1      25.776  25.851  -6.130  0.00  0.00     0.086 A 
HETATM   24  C   UNK N   1      25.633  26.325  -4.831  0.00  0.00     0.038 A 
HETATM   25  C   UNK N   1      26.483  26.536  -7.084  0.00  0.00     0.006 A 
HETATM   26  C   UNK N   1      26.248  27.548  -4.512  0.00  0.00     0.003 A 
HETATM   27  C   UNK N   1      26.982  28.258  -5.492  0.00  0.00     0.001 A 
HETATM   28  C   UNK N   1      27.105  27.750  -6.800  0.00  0.00     0.015 A 
HETATM   29  C   UNK N   1      26.407  25.789  -8.237  0.00  0.00    -0.018 A 
HETATM   30  C   UNK N   1      27.018  26.112  -9.559  0.00  0.00     0.052 C 
ENDBRANCH  20  21
ENDBRANCH   1  20
TORSDOF 4
ENDMDL
MODEL 2
REMARK VINA RESULT:      -7.1     14.130     16.961
REMARK  4 active torsions:
REMARK  status: ('A' for Active; 'I' for Inactive)
REMARK    1  A    between atoms: C_10  and  C_11 
REMARK    2  A    between atoms: C_11  and  N_12 
REMARK       I    between atoms: N_12  and  C_14 
REMARK    3  A    between atoms: C_14  and  C_16 
REMARK    4  A    between atoms: C_17  and  C_18 
ROOT
HETATM    1  N   UNK N   1      23.020  14.860   4.873  0.00  0.00    -0.347 N 
HETATM    2  C   UNK N   1      24.280  14.987   4.173  0.00  0.00     0.153 C 
HETATM    3  C   UNK N   1      22.024  14.095   4.342  0.00  0.00     0.243 C 
HETATM    4  O   UNK N   1      22.206  13.481   3.302  0.00  0.00    -0.268 OA
ENDROOT
BRANCH   3   5
HETATM    5  C   UNK N   1      20.691  14.024   4.981  0.00  0.00     0.075 C 
HETATM    6  C   UNK N   1      19.689  14.841   4.626  0.00  0.00     0.018 C 
BRANCH   6   7
HETATM    7  C   UNK N   1      19.847  15.919   3.633  0.00  0.00    -0.020 A 
HETATM    8  C   UNK N   1      20.161  17.210   4.054  0.00  0.00     0.023 A 
HETATM    9  C   UNK N   1      20.320  18.223   3.111  0.00  0.00    -0.013 A 
HETATM   10  C   UNK N   1      20.175  17.927   1.746  0.00  0.00     0.114 A 
HETATM   11  C   UNK N   1      20.614  19.627   3.544  0.00  0.00     0.051 C 
HETATM   12  N   UNK N   1      19.858  16.662   1.356  0.00  0.00    -0.351 N 
HETATM   13  N   UNK N   1      20.376  18.944   0.775  0.00  0.00    -0.313 N 
HETATM   14  C   UNK N   1      19.690  15.662   2.264  0.00  0.00     0.101 A 
ATOM     15  HN  UNK N   1      19.742  16.459   0.362  1.00  0.00     0.166 HD
HETATM   16  C   UNK N   1      20.950  20.127   1.116  0.00  0.00     0.223 C 
HETATM   17  H   UNK N   1      20.096  18.789  -0.155  0.00  0.00     0.170 HD
HETATM   18  O   UNK N   1      21.081  21.001   0.276  0.00  0.00    -0.273 OA
HETATM   19  C   UNK N   1      21.479  20.345   2.510  0.00  0.00     0.108 C 
ENDBRANCH   6   7
ENDBRANCH   3   5
BRANCH   1  20
HETATM   20  C   UNK N   1      22.811  15.620   6.088  0.00  0.00     0.191 C 
BRANCH  20  21
HETATM   21  C   UNK N   1      22.655  14.724   7.275  0.00  0.00     0.078 A 
HETATM   22  O   UNK N   1      23.464  13.708   7.509  0.00  0.00    -0.312 OA
HETATM   23  C   UNK N   1      23.064  13.105   8.602  0.00  0.00     0.086 A 
HETATM   24  C   UNK N   1      23.625  11.984   9.205  0.00  0.00     0.038 A 
HETATM   25  C   UNK N   1      21.962  13.735   9.116  0.00  0.00     0.006 A 
HETATM   26  C   UNK N   1      23.022  11.507  10.381  0.00  0.00     0.003 A 
HETATM   27  C   UNK N   1      21.886  12.156  10.918  0.00  0.00     0.001 A 
HETATM   28  C   UNK N   1      21.341  13.288  10.281  0.00  0.00     0.015 A 
HETATM   29  C   UNK N   1      21.681  14.784   8.270  0.00  0.00    -0.018 A 
HETATM   30  C   UNK N   1      20.572  15.772   8.399  0.00  0.00     0.052 C 
ENDBRANCH  20  21
ENDBRANCH   1  20
TORSDOF 4
ENDMDL
MODEL 3
REMARK VINA RESULT:      -6.9     14.596     17.359
REMARK  4 active torsions:
REMARK  status: ('A' for Active; 'I' for Inactive)
REMARK    1  A    between atoms: C_10  and  C_11 
REMARK    2  A    between atoms: C_11  and  N_12 
REMARK       I    between atoms: N_12  and  C_14 
REMARK    3  A    between atoms: C_14  and  C_16 
REMARK    4  A    between atoms: C_17  and  C_18 
ROOT
HETATM    1  N   UNK N   1      20.410  15.408   6.535  0.00  0.00    -0.347 N 
HETATM    2  C   UNK N   1      19.566  16.157   7.441  0.00  0.00     0.153 C 
HETATM    3  C   UNK N   1      19.850  14.729   5.493  0.00  0.00     0.243 C 
HETATM    4  O   UNK N   1      18.646  14.788   5.295  0.00  0.00    -0.268 OA
ENDROOT
BRANCH   3   5
HETATM    5  C   UNK N   1      20.671  13.875   4.608  0.00  0.00     0.075 C 
HETATM    6  C   UNK N   1      21.170  14.326   3.449  0.00  0.00     0.018 C 
BRANCH   6   7
HETATM    7  C   UNK N   1      20.887  15.674   2.925  0.00  0.00    -0.020 A 
HETATM    8  C   UNK N   1      21.541  16.780   3.467  0.00  0.00     0.023 A 
HETATM    9  C   UNK N   1      21.278  18.052   2.961  0.00  0.00    -0.013 A 
HETATM   10  C   UNK N   1      20.367  18.202   1.902  0.00  0.00     0.114 A 
HETATM   11  C   UNK N   1      21.935  19.259   3.558  0.00  0.00     0.051 C 
HETATM   12  N   UNK N   1      19.731  17.110   1.395  0.00  0.00    -0.351 N 
HETATM   13  N   UNK N   1      20.125  19.489   1.354  0.00  0.00    -0.313 N 
HETATM   14  C   UNK N   1      19.969  15.862   1.883  0.00  0.00     0.101 A 
ATOM     15  HN  UNK N   1      19.062  17.231   0.634  1.00  0.00     0.166 HD
HETATM   16  C   UNK N   1      20.934  20.537   1.655  0.00  0.00     0.223 C 
HETATM   17  H   UNK N   1      19.360  19.622   0.749  0.00  0.00     0.170 HD
HETATM   18  O   UNK N   1      20.689  21.642   1.202  0.00  0.00    -0.273 OA
HETATM   19  C   UNK N   1      22.168  20.332   2.496  0.00  0.00     0.108 C 
ENDBRANCH   6   7
ENDBRANCH   3   5
BRANCH   1  20
HETATM   20  C   UNK N   1      21.831  15.325   6.804  0.00  0.00     0.191 C 
BRANCH  20  21
HETATM   21  C   UNK N   1      22.117  14.416   7.957  0.00  0.00     0.078 A 
HETATM   22  O   UNK N   1      21.191  14.054   8.824  0.00  0.00    -0.312 OA
HETATM   23  C   UNK N   1      21.745  13.277   9.722  0.00  0.00     0.086 A 
HETATM   24  C   UNK N   1      21.134  12.680  10.819  0.00  0.00     0.038 A 
HETATM   25  C   UNK N   1      23.077  13.108   9.446  0.00  0.00     0.006 A 
HETATM   26  C   UNK N   1      21.933  11.881  11.655  0.00  0.00     0.003 A 
HETATM   27  C   UNK N   1      23.308  11.701  11.373  0.00  0.00     0.001 A 
HETATM   28  C   UNK N   1      23.896  12.322  10.253  0.00  0.00     0.015 A 
HETATM   29  C   UNK N   1      23.335  13.839   8.309  0.00  0.00    -0.018 A 
HETATM   30  C   UNK N   1      24.644  13.976   7.607  0.00  0.00     0.052 C 
ENDBRANCH  20  21
ENDBRANCH   1  20
TORSDOF 4
ENDMDL
MODEL 4
REMARK VINA RESULT:      -6.9      2.640      4.095
REMARK  4 active torsions:
REMARK  status: ('A' for Active; 'I' for Inactive)
REMARK    1  A    between atoms: C_10  and  C_11 
REMARK    2  A    between atoms: C_11  and  N_12 
REMARK       I    between atoms: N_12  and  C_14 
REMARK    3  A    between atoms: C_14  and  C_16 
REMARK    4  A    between atoms: C_17  and  C_18 
ROOT
HETATM    1  N   UNK N   1      25.938  24.953  -6.815  0.00  0.00    -0.347 N 
HETATM    2  C   UNK N   1      26.159  24.646  -8.211  0.00  0.00     0.153 C 
HETATM    3  C   UNK N   1      26.280  24.042  -5.859  0.00  0.00     0.243 C 
HETATM    4  O   UNK N   1      26.811  22.988  -6.174  0.00  0.00    -0.268 OA
ENDROOT
BRANCH   3   5
HETATM    5  C   UNK N   1      25.978  24.283  -4.431  0.00  0.00     0.075 C 
HETATM    6  C   UNK N   1      26.936  24.593  -3.545  0.00  0.00     0.018 C 
BRANCH   6   7
HETATM    7  C   UNK N   1      28.365  24.650  -3.898  0.00  0.00    -0.020 A 
HETATM    8  C   UNK N   1      28.927  25.851  -4.329  0.00  0.00     0.023 A 
HETATM    9  C   UNK N   1      30.282  25.902  -4.650  0.00  0.00    -0.013 A 
HETATM   10  C   UNK N   1      31.068  24.745  -4.524  0.00  0.00     0.114 A 
HETATM   11  C   UNK N   1      30.896  27.171  -5.157  0.00  0.00     0.051 C 
HETATM   12  N   UNK N   1      30.498  23.579  -4.113  0.00  0.00    -0.351 N 
HETATM   13  N   UNK N   1      32.457  24.798  -4.811  0.00  0.00    -0.313 N 
HETATM   14  C   UNK N   1      29.174  23.509  -3.803  0.00  0.00     0.101 A 
ATOM     15  HN  UNK N   1      31.075  22.740  -4.036  1.00  0.00     0.166 HD
HETATM   16  C   UNK N   1      33.092  25.990  -4.958  0.00  0.00     0.223 C 
HETATM   17  H   UNK N   1      32.966  23.961  -4.904  0.00  0.00     0.170 HD
HETATM   18  O   UNK N   1      34.278  26.015  -5.239  0.00  0.00    -0.273 OA
HETATM   19  C   UNK N   1      32.355  27.282  -4.718  0.00  0.00     0.108 C 
ENDBRANCH   6   7
ENDBRANCH   3   5
BRANCH   1  20
HETATM   20  C   UNK N   1      25.279  26.194  -6.463  0.00  0.00     0.191 C 
BRANCH  20  21
HETATM   21  C   UNK N   1      26.259  27.315  -6.325  0.00  0.00     0.078 A 
HETATM   22  O   UNK N   1      27.128  27.618  -7.271  0.00  0.00    -0.312 OA
HETATM   23  C   UNK N   1      27.857  28.625  -6.855  0.00  0.00     0.086 A 
HETATM   24  C   UNK N   1      28.895  29.256  -7.531  0.00  0.00     0.038 A 
HETATM   25  C   UNK N   1      27.464  29.009  -5.600  0.00  0.00     0.006 A 
HETATM   26  C   UNK N   1      29.542  30.322  -6.883  0.00  0.00     0.003 A 
HETATM   27  C   UNK N   1      29.137  30.725  -5.588  0.00  0.00     0.001 A 
HETATM   28  C   UNK N   1      28.082  30.062  -4.931  0.00  0.00     0.015 A 
HETATM   29  C   UNK N   1      26.432  28.172  -5.241  0.00  0.00    -0.018 A 
HETATM   30  C   UNK N   1      25.665  28.187  -3.962  0.00  0.00     0.052 C 
ENDBRANCH  20  21
ENDBRANCH   1  20
TORSDOF 4
ENDMDL
MODEL 5
REMARK VINA RESULT:      -6.9     19.008     23.714
REMARK  4 active torsions:
REMARK  status: ('A' for Active; 'I' for Inactive)
REMARK    1  A    between atoms: C_10  and  C_11 
REMARK    2  A    between atoms: C_11  and  N_12 
REMARK       I    between atoms: N_12  and  C_14 
REMARK    3  A    between atoms: C_14  and  C_16 
REMARK    4  A    between atoms: C_17  and  C_18 
ROOT
HETATM    1  N   UNK N   1      35.807  12.421  12.680  0.00  0.00    -0.347 N 
HETATM    2  C   UNK N   1      34.573  11.857  13.180  0.00  0.00     0.153 C 
HETATM    3  C   UNK N   1      36.071  12.395  11.343  0.00  0.00     0.243 C 
HETATM    4  O   UNK N   1      35.250  11.937  10.561  0.00  0.00    -0.268 OA
ENDROOT
BRANCH   3   5
HETATM    5  C   UNK N   1      37.365  12.874  10.809  0.00  0.00     0.075 C 
HETATM    6  C   UNK N   1      37.481  14.051  10.178  0.00  0.00     0.018 C 
BRANCH   6   7
HETATM    7  C   UNK N   1      36.330  14.928   9.900  0.00  0.00    -0.020 A 
HETATM    8  C   UNK N   1      35.600  14.763   8.724  0.00  0.00     0.023 A 
HETATM    9  C   UNK N   1      34.505  15.587   8.470  0.00  0.00    -0.013 A 
HETATM   10  C   UNK N   1      34.143  16.566   9.410  0.00  0.00     0.114 A 
HETATM   11  C   UNK N   1      33.734  15.456   7.192  0.00  0.00     0.051 C 
HETATM   12  N   UNK N   1      34.875  16.719  10.547  0.00  0.00    -0.351 N 
HETATM   13  N   UNK N   1      33.005  17.382   9.178  0.00  0.00    -0.313 N 
HETATM   14  C   UNK N   1      35.953  15.929  10.806  0.00  0.00     0.101 A 
ATOM     15  HN  UNK N   1      34.612  17.442  11.218  1.00  0.00     0.166 HD
HETATM   16  C   UNK N   1      32.114  17.074   8.200  0.00  0.00     0.223 C 
HETATM   17  H   UNK N   1      32.861  18.182   9.733  0.00  0.00     0.170 HD
HETATM   18  O   UNK N   1      31.162  17.807   7.993  0.00  0.00    -0.273 OA
HETATM   19  C   UNK N   1      32.261  15.800   7.408  0.00  0.00     0.108 C 
ENDBRANCH   6   7
ENDBRANCH   3   5
BRANCH   1  20
HETATM   20  C   UNK N   1      36.780  12.931  13.624  0.00  0.00     0.191 C 
BRANCH  20  21
HETATM   21  C   UNK N   1      36.393  12.615  15.033  0.00  0.00     0.078 A 
HETATM   22  O   UNK N   1      35.856  13.510  15.840  0.00  0.00    -0.312 OA
HETATM   23  C   UNK N   1      35.647  12.946  17.004  0.00  0.00     0.086 A 
HETATM   24  C   UNK N   1      35.105  13.529  18.144  0.00  0.00     0.038 A 
HETATM   25  C   UNK N   1      36.050  11.636  16.975  0.00  0.00     0.006 A 
HETATM   26  C   UNK N   1      34.975  12.724  19.289  0.00  0.00     0.003 A 
HETATM   27  C   UNK N   1      35.386  11.371  19.264  0.00  0.00     0.001 A 
HETATM   28  C   UNK N   1      35.933  10.811  18.092  0.00  0.00     0.015 A 
HETATM   29  C   UNK N   1      36.537  11.405  15.709  0.00  0.00    -0.018 A 
HETATM   30  C   UNK N   1      37.094  10.127  15.179  0.00  0.00     0.052 C 
ENDBRANCH  20  21
ENDBRANCH   1  20
TORSDOF 4
ENDMDL
MODEL 6
REMARK VINA RESULT:      -6.8      1.703      2.527
REMARK  4 active torsions:
REMARK  status: ('A' for Active; 'I' for Inactive)
REMARK    1  A    between atoms: C_10  and  C_11 
REMARK    2  A    between atoms: C_11  and  N_12 
REMARK       I    between atoms: N_12  and  C_14 
REMARK    3  A    between atoms: C_14  and  C_16 
REMARK    4  A    between atoms: C_17  and  C_18 
ROOT
HETATM    1  N   UNK N   1      29.391  24.424  -9.833  0.00  0.00    -0.347 N 
HETATM    2  C   UNK N   1      30.480  25.375  -9.872  0.00  0.00     0.153 C 
HETATM    3  C   UNK N   1      29.652  23.102  -9.626  0.00  0.00     0.243 C 
HETATM    4  O   UNK N   1      30.797  22.724  -9.428  0.00  0.00    -0.268 OA
ENDROOT
BRANCH   3   5
HETATM    5  C   UNK N   1      28.573  22.091  -9.679  0.00  0.00     0.075 C 
HETATM    6  C   UNK N   1      28.151  21.446  -8.582  0.00  0.00     0.018 C 
BRANCH   6   7
HETATM    7  C   UNK N   1      28.767  21.631  -7.256  0.00  0.00    -0.020 A 
HETATM    8  C   UNK N   1      28.377  22.702  -6.454  0.00  0.00     0.023 A 
HETATM    9  C   UNK N   1      28.954  22.866  -5.196  0.00  0.00    -0.013 A 
HETATM   10  C   UNK N   1      29.912  21.942  -4.748  0.00  0.00     0.114 A 
HETATM   11  C   UNK N   1      28.582  24.035  -4.335  0.00  0.00     0.051 C 
HETATM   12  N   UNK N   1      30.287  20.910  -5.551  0.00  0.00    -0.351 N 
HETATM   13  N   UNK N   1      30.475  22.080  -3.451  0.00  0.00    -0.313 N 
HETATM   14  C   UNK N   1      29.740  20.739  -6.786  0.00  0.00     0.101 A 
ATOM     15  HN  UNK N   1      30.993  20.251  -5.221  1.00  0.00     0.166 HD
HETATM   16  C   UNK N   1      29.929  22.928  -2.541  0.00  0.00     0.223 C 
HETATM   17  H   UNK N   1      31.271  21.553  -3.210  0.00  0.00     0.170 HD
HETATM   18  O   UNK N   1      30.447  23.058  -1.446  0.00  0.00    -0.273 OA
HETATM   19  C   UNK N   1      28.652  23.664  -2.855  0.00  0.00     0.108 C 
ENDBRANCH   6   7
ENDBRANCH   3   5
BRANCH   1  20
HETATM   20  C   UNK N   1      28.044  24.886 -10.101  0.00  0.00     0.191 C 
BRANCH  20  21
HETATM   21  C   UNK N   1      27.446  25.551  -8.903  0.00  0.00     0.078 A 
HETATM   22  O   UNK N   1      27.955  26.645  -8.370  0.00  0.00    -0.312 OA
HETATM   23  C   UNK N   1      27.229  26.976  -7.330  0.00  0.00     0.086 A 
HETATM   24  C   UNK N   1      27.416  28.055  -6.474  0.00  0.00     0.038 A 
HETATM   25  C   UNK N   1      26.202  26.083  -7.165  0.00  0.00     0.006 A 
HETATM   26  C   UNK N   1      26.505  28.213  -5.415  0.00  0.00     0.003 A 
HETATM   27  C   UNK N   1      25.441  27.296  -5.242  0.00  0.00     0.001 A 
HETATM   28  C   UNK N   1      25.282  26.211  -6.128  0.00  0.00     0.015 A 
HETATM   29  C   UNK N   1      26.328  25.154  -8.173  0.00  0.00    -0.018 A 
HETATM   30  C   UNK N   1      25.448  23.976  -8.424  0.00  0.00     0.052 C 
ENDBRANCH  20  21
ENDBRANCH   1  20
TORSDOF 4
ENDMDL
MODEL 7
REMARK VINA RESULT:      -6.7     13.120     16.818
REMARK  4 active torsions:
REMARK  status: ('A' for Active; 'I' for Inactive)
REMARK    1  A    between atoms: C_10  and  C_11 
REMARK    2  A    between atoms: C_11  and  N_12 
REMARK       I    between atoms: N_12  and  C_14 
REMARK    3  A    between atoms: C_14  and  C_16 
REMARK    4  A    between atoms: C_17  and  C_18 
ROOT
HETATM    1  N   UNK N   1      31.078  17.705   8.035  0.00  0.00    -0.347 N 
HETATM    2  C   UNK N   1      30.615  18.501   9.151  0.00  0.00     0.153 C 
HETATM    3  C   UNK N   1      32.388  17.760   7.660  0.00  0.00     0.243 C 
HETATM    4  O   UNK N   1      33.180  18.444   8.291  0.00  0.00    -0.268 OA
ENDROOT
BRANCH   3   5
HETATM    5  C   UNK N   1      32.873  17.036   6.465  0.00  0.00     0.075 C 
HETATM    6  C   UNK N   1      33.457  15.833   6.553  0.00  0.00     0.018 C 
BRANCH   6   7
HETATM    7  C   UNK N   1      33.731  15.166   7.838  0.00  0.00    -0.020 A 
HETATM    8  C   UNK N   1      34.847  15.535   8.587  0.00  0.00     0.023 A 
HETATM    9  C   UNK N   1      35.096  14.910   9.807  0.00  0.00    -0.013 A 
HETATM   10  C   UNK N   1      34.210  13.924  10.273  0.00  0.00     0.114 A 
HETATM   11  C   UNK N   1      36.313  15.259  10.608  0.00  0.00     0.051 C 
HETATM   12  N   UNK N   1      33.132  13.570   9.522  0.00  0.00    -0.351 N 
HETATM   13  N   UNK N   1      34.434  13.311  11.535  0.00  0.00    -0.313 N 
HETATM   14  C   UNK N   1      32.879  14.164   8.323  0.00  0.00     0.101 A 
ATOM     15  HN  UNK N   1      32.501  12.844   9.863  1.00  0.00     0.166 HD
HETATM   16  C   UNK N   1      35.333  13.829  12.411  0.00  0.00     0.223 C 
HETATM   17  H   UNK N   1      33.931  12.500  11.776  0.00  0.00     0.170 HD
HETATM   18  O   UNK N   1      35.536  13.268  13.474  0.00  0.00    -0.273 OA
HETATM   19  C   UNK N   1      36.037  15.126  12.104  0.00  0.00     0.108 C 
ENDBRANCH   6   7
ENDBRANCH   3   5
BRANCH   1  20
HETATM   20  C   UNK N   1      30.118  16.924   7.282  0.00  0.00     0.191 C 
BRANCH  20  21
HETATM   21  C   UNK N   1      29.194  17.801   6.499  0.00  0.00     0.078 A 
HETATM   22  O   UNK N   1      28.451  18.735   7.064  0.00  0.00    -0.312 OA
HETATM   23  C   UNK N   1      27.740  19.318   6.130  0.00  0.00     0.086 A 
HETATM   24  C   UNK N   1      26.819  20.348   6.287  0.00  0.00     0.038 A 
HETATM   25  C   UNK N   1      28.016  18.765   4.907  0.00  0.00     0.006 A 
HETATM   26  C   UNK N   1      26.167  20.819   5.134  0.00  0.00     0.003 A 
HETATM   27  C   UNK N   1      26.451  20.254   3.868  0.00  0.00     0.001 A 
HETATM   28  C   UNK N   1      27.389  19.210   3.746  0.00  0.00     0.015 A 
HETATM   29  C   UNK N   1      28.953  17.781   5.127  0.00  0.00    -0.018 A 
HETATM   30  C   UNK N   1      29.576  16.889   4.106  0.00  0.00     0.052 C 
ENDBRANCH  20  21
ENDBRANCH   1  20
TORSDOF 4
ENDMDL
MODEL 8
REMARK VINA RESULT:      -6.7      2.409      6.801
REMARK  4 active torsions:
REMARK  status: ('A' for Active; 'I' for Inactive)
REMARK    1  A    between atoms: C_10  and  C_11 
REMARK    2  A    between atoms: C_11  and  N_12 
REMARK       I    between atoms: N_12  and  C_14 
REMARK    3  A    between atoms: C_14  and  C_16 
REMARK    4  A    between atoms: C_17  and  C_18 
ROOT
HETATM    1  N   UNK N   1      29.675  26.619  -4.642  0.00  0.00    -0.347 N 
HETATM    2  C   UNK N   1      30.485  27.322  -5.613  0.00  0.00     0.153 C 
HETATM    3  C   UNK N   1      28.317  26.741  -4.677  0.00  0.00     0.243 C 
HETATM    4  O   UNK N   1      27.780  27.404  -5.552  0.00  0.00    -0.268 OA
ENDROOT
BRANCH   3   5
HETATM    5  C   UNK N   1      27.466  26.116  -3.640  0.00  0.00     0.075 C 
HETATM    6  C   UNK N   1      26.719  25.032  -3.894  0.00  0.00     0.018 C 
BRANCH   6   7
HETATM    7  C   UNK N   1      26.625  24.418  -5.230  0.00  0.00    -0.020 A 
HETATM    8  C   UNK N   1      27.544  23.442  -5.612  0.00  0.00     0.023 A 
HETATM    9  C   UNK N   1      27.444  22.857  -6.872  0.00  0.00    -0.013 A 
HETATM   10  C   UNK N   1      26.410  23.248  -7.738  0.00  0.00     0.114 A 
HETATM   11  C   UNK N   1      28.448  21.838  -7.320  0.00  0.00     0.051 C 
HETATM   12  N   UNK N   1      25.529  24.211  -7.350  0.00  0.00    -0.351 N 
HETATM   13  N   UNK N   1      26.276  22.628  -9.008  0.00  0.00    -0.313 N 
HETATM   14  C   UNK N   1      25.617  24.800  -6.126  0.00  0.00     0.101 A 
ATOM     15  HN  UNK N   1      24.788  24.498  -7.991  1.00  0.00     0.166 HD
HETATM   16  C   UNK N   1      26.964  21.495  -9.304  0.00  0.00     0.223 C 
HETATM   17  H   UNK N   1      25.678  23.024  -9.681  0.00  0.00     0.170 HD
HETATM   18  O   UNK N   1      26.863  20.996 -10.413  0.00  0.00    -0.273 OA
HETATM   19  C   UNK N   1      27.805  20.815  -8.254  0.00  0.00     0.108 C 
ENDBRANCH   6   7
ENDBRANCH   3   5
BRANCH   1  20
HETATM   20  C   UNK N   1      30.331  25.864  -3.594  0.00  0.00     0.191 C 
BRANCH  20  21
HETATM   21  C   UNK N   1      30.631  24.466  -4.033  0.00  0.00     0.078 A 
HETATM   22  O   UNK N   1      31.293  24.197  -5.142  0.00  0.00    -0.312 OA
HETATM   23  C   UNK N   1      31.382  22.895  -5.265  0.00  0.00     0.086 A 
HETATM   24  C   UNK N   1      31.991  22.180  -6.290  0.00  0.00     0.038 A 
HETATM   25  C   UNK N   1      30.767  22.276  -4.209  0.00  0.00     0.006 A 
HETATM   26  C   UNK N   1      31.961  20.777  -6.213  0.00  0.00     0.003 A 
HETATM   27  C   UNK N   1      31.330  20.133  -5.123  0.00  0.00     0.001 A 
HETATM   28  C   UNK N   1      30.721  20.888  -4.101  0.00  0.00     0.015 A 
HETATM   29  C   UNK N   1      30.273  23.276  -3.403  0.00  0.00    -0.018 A 
HETATM   30  C   UNK N   1      29.521  23.113  -2.126  0.00  0.00     0.052 C 
ENDBRANCH  20  21
ENDBRANCH   1  20
TORSDOF 4
ENDMDL
MODEL 9
REMARK VINA RESULT:      -6.6     19.179     23.817
REMARK  4 active torsions:
REMARK  status: ('A' for Active; 'I' for Inactive)
REMARK    1  A    between atoms: C_10  and  C_11 
REMARK    2  A    between atoms: C_11  and  N_12 
REMARK       I    between atoms: N_12  and  C_14 
REMARK    3  A    between atoms: C_14  and  C_16 
REMARK    4  A    between atoms: C_17  and  C_18 
ROOT
HETATM    1  N   UNK N   1      35.837  12.930  13.003  0.00  0.00    -0.347 N 
HETATM    2  C   UNK N   1      36.515  14.122  13.465  0.00  0.00     0.153 C 
HETATM    3  C   UNK N   1      36.323  12.248  11.928  0.00  0.00     0.243 C 
HETATM    4  O   UNK N   1      37.353  12.614  11.380  0.00  0.00    -0.268 OA
ENDROOT
BRANCH   3   5
HETATM    5  C   UNK N   1      35.601  11.084  11.370  0.00  0.00     0.075 C 
HETATM    6  C   UNK N   1      35.021  11.121  10.162  0.00  0.00     0.018 C 
BRANCH   6   7
HETATM    7  C   UNK N   1      34.989  12.333   9.325  0.00  0.00    -0.020 A 
HETATM    8  C   UNK N   1      34.099  13.362   9.628  0.00  0.00     0.023 A 
HETATM    9  C   UNK N   1      34.080  14.511   8.840  0.00  0.00    -0.013 A 
HETATM   10  C   UNK N   1      34.967  14.624   7.758  0.00  0.00     0.114 A 
HETATM   11  C   UNK N   1      33.100  15.611   9.121  0.00  0.00     0.051 C 
HETATM   12  N   UNK N   1      35.821  13.603   7.472  0.00  0.00    -0.351 N 
HETATM   13  N   UNK N   1      34.983  15.809   6.975  0.00  0.00    -0.313 N 
HETATM   14  C   UNK N   1      35.847  12.470   8.225  0.00  0.00     0.101 A 
ATOM     15  HN  UNK N   1      36.454  13.689   6.675  1.00  0.00     0.166 HD
HETATM   16  C   UNK N   1      34.343  16.930   7.397  0.00  0.00     0.223 C 
HETATM   17  H   UNK N   1      35.463  15.816   6.116  0.00  0.00     0.170 HD
HETATM   18  O   UNK N   1      34.338  17.926   6.695  0.00  0.00    -0.273 OA
HETATM   19  C   UNK N   1      33.691  16.971   8.755  0.00  0.00     0.108 C 
ENDBRANCH   6   7
ENDBRANCH   3   5
BRANCH   1  20
HETATM   20  C   UNK N   1      34.602  12.530  13.645  0.00  0.00     0.191 C 
BRANCH  20  21
HETATM   21  C   UNK N   1      34.801  12.275  15.105  0.00  0.00     0.078 A 
HETATM   22  O   UNK N   1      34.811  13.243  16.001  0.00  0.00    -0.312 OA
HETATM   23  C   UNK N   1      35.024  12.714  17.181  0.00  0.00     0.086 A 
HETATM   24  C   UNK N   1      35.118  13.373  18.401  0.00  0.00     0.038 A 
HETATM   25  C   UNK N   1      35.155  11.354  17.074  0.00  0.00     0.006 A 
HETATM   26  C   UNK N   1      35.354  12.593  19.546  0.00  0.00     0.003 A 
HETATM   27  C   UNK N   1      35.487  11.189  19.442  0.00  0.00     0.001 A 
HETATM   28  C   UNK N   1      35.387  10.552  18.189  0.00  0.00     0.015 A 
HETATM   29  C   UNK N   1      35.016  11.052  15.738  0.00  0.00    -0.018 A 
HETATM   30  C   UNK N   1      35.078   9.701  15.110  0.00  0.00     0.052 C 
ENDBRANCH  20  21
ENDBRANCH   1  20
TORSDOF 4
ENDMDL
