MODEL 1
REMARK VINA RESULT:      -7.9      0.000      0.000
REMARK  12 active torsions:
REMARK  status: ('A' for Active; 'I' for Inactive)
REMARK    1  A    between atoms: C_2  and  C_3 
REMARK    2  A    between atoms: C_3  and  C_4 
REMARK    3  A    between atoms: C_4  and  C_5 
REMARK    4  A    between atoms: N_15  and  C_16 
REMARK    5  A    between atoms: C_16  and  C_17 
REMARK    6  A    between atoms: C_20  and  C_27 
REMARK    7  A    between atoms: C_21  and  C_23 
REMARK    8  A    between atoms: C_23  and  O_24 
REMARK    9  A    between atoms: O_24  and  C_25 
REMARK   10  A    between atoms: C_32  and  S_33 
REMARK   11  A    between atoms: S_33  and  N_36 
REMARK   12  A    between atoms: N_36  and  C_37 
ROOT
HETATM    1  C   UNK N   1      25.598  15.895   3.708  0.00  0.00    -0.039 A 
HETATM    2  C   UNK N   1      25.706  15.922   5.104  0.00  0.00     0.010 A 
HETATM    3  C   UNK N   1      24.583  15.897   5.905  0.00  0.00     0.013 A 
HETATM    4  C   UNK N   1      23.316  15.794   5.344  0.00  0.00    -0.016 A 
HETATM    5  C   UNK N   1      23.187  15.636   3.937  0.00  0.00    -0.023 A 
HETATM    6  C   UNK N   1      24.335  15.721   3.127  0.00  0.00     0.019 A 
ENDROOT
BRANCH   4   7
HETATM    7  C   UNK N   1      22.151  16.030   6.231  0.00  0.00    -0.002 A 
HETATM    8  C   UNK N   1      21.756  17.352   6.477  0.00  0.00     0.014 A 
HETATM    9  C   UNK N   1      20.688  17.634   7.325  0.00  0.00     0.001 A 
HETATM   10  C   UNK N   1      20.003  16.600   7.953  0.00  0.00     0.002 A 
HETATM   11  C   UNK N   1      20.395  15.280   7.755  0.00  0.00     0.026 A 
HETATM   12  C   UNK N   1      21.457  14.940   6.906  0.00  0.00     0.090 A 
BRANCH  12  13
HETATM   13  S   UNK N   1      21.878  13.113   6.956  0.00  0.00     0.265 S 
HETATM   14  O   UNK N   1      20.918  12.063   7.540  0.00  0.00    -0.200 OA
HETATM   15  O   UNK N   1      20.652  13.195   6.047  0.00  0.00    -0.200 OA
BRANCH  13  16
HETATM   16  N   UNK N   1      21.556  13.600   8.615  0.00  0.00    -0.264 N 
HETATM   17  H   UNK N   1      20.854  14.255   8.830  0.00  0.00     0.180 HD
BRANCH  16  18
HETATM   18  C   UNK N   1      22.355  13.009   9.632  0.00  0.00     0.143 A 
HETATM   19  C   UNK N   1      21.915  12.516  10.840  0.00  0.00     0.016 A 
HETATM   20  C   UNK N   1      23.066  12.223  11.531  0.00  0.00     0.082 A 
HETATM   21  C   UNK N   1      20.510  12.349  11.310  0.00  0.00     0.055 C 
HETATM   22  O   UNK N   1      24.096  12.525  10.769  0.00  0.00    -0.240 OA
HETATM   23  C   UNK N   1      23.162  11.688  12.917  0.00  0.00     0.079 C 
HETATM   24  N   UNK N   1      23.702  13.002   9.618  0.00  0.00    -0.244 N 
ATOM     25  HN  UNK N   1      24.301  13.310   8.852  1.00  0.00     0.196 HD
ENDBRANCH  16  18
ENDBRANCH  13  16
ENDBRANCH  12  13
ENDBRANCH   4   7
BRANCH   5  26
HETATM   26  C   UNK N   1      21.850  15.552   3.266  0.00  0.00     0.207 C 
BRANCH  26  27
HETATM   27  O   UNK N   1      21.491  16.796   2.737  0.00  0.00    -0.387 OA
BRANCH  27  28
HETATM   28  C   UNK N   1      20.110  16.722   2.539  0.00  0.00     0.163 C 
HETATM   29  C   UNK N   1      19.401  16.564   3.870  0.00  0.00     0.033 C 
ENDBRANCH  27  28
ENDBRANCH  26  27
ENDBRANCH   5  26
BRANCH   1  30
HETATM   30  C   UNK N   1      26.802  16.262   2.858  0.00  0.00     0.172 C 
BRANCH  30  31
HETATM   31  N   UNK N   1      27.888  16.729   3.706  0.00  0.00    -0.301 N 
HETATM   32  C   UNK N   1      28.907  15.977   4.161  0.00  0.00     0.254 A 
HETATM   33  C   UNK N   1      29.979  16.841   4.742  0.00  0.00     0.113 A 
HETATM   34  O   UNK N   1      28.973  14.761   4.020  0.00  0.00    -0.270 OA
HETATM   35  N   UNK N   1      29.335  18.150   4.636  0.00  0.00    -0.362 N 
HETATM   36  C   UNK N   1      30.379  16.531   6.159  0.00  0.00     0.041 C 
HETATM   37  C   UNK N   1      31.264  16.795   3.947  0.00  0.00     0.041 C 
HETATM   38  C   UNK N   1      28.191  18.055   4.060  0.00  0.00     0.083 A 
ATOM     39  HN  UNK N   1      29.740  19.023   4.975  1.00  0.00     0.162 HD
HETATM   40  C   UNK N   1      31.737  17.205   6.302  0.00  0.00     0.003 C 
HETATM   41  C   UNK N   1      32.311  17.349   4.893  0.00  0.00     0.003 C 
BRANCH  38  42
HETATM   42  C   UNK N   1      27.281  19.245   3.935  0.00  0.00     0.076 C 
BRANCH  42  43
HETATM   43  C   UNK N   1      26.232  19.387   5.024  0.00  0.00     0.007 C 
BRANCH  43  44
HETATM   44  C   UNK N   1      24.834  19.409   4.416  0.00  0.00    -0.004 C 
HETATM   45  C   UNK N   1      24.825  20.124   3.075  0.00  0.00     0.005 C 
ENDBRANCH  43  44
ENDBRANCH  42  43
ENDBRANCH  38  42
ENDBRANCH  30  31
ENDBRANCH   1  30
TORSDOF 12
ENDMDL
MODEL 2
REMARK VINA RESULT:      -7.7      3.493      5.800
REMARK  12 active torsions:
REMARK  status: ('A' for Active; 'I' for Inactive)
REMARK    1  A    between atoms: C_2  and  C_3 
REMARK    2  A    between atoms: C_3  and  C_4 
REMARK    3  A    between atoms: C_4  and  C_5 
REMARK    4  A    between atoms: N_15  and  C_16 
REMARK    5  A    between atoms: C_16  and  C_17 
REMARK    6  A    between atoms: C_20  and  C_27 
REMARK    7  A    between atoms: C_21  and  C_23 
REMARK    8  A    between atoms: C_23  and  O_24 
REMARK    9  A    between atoms: O_24  and  C_25 
REMARK   10  A    between atoms: C_32  and  S_33 
REMARK   11  A    between atoms: S_33  and  N_36 
REMARK   12  A    between atoms: N_36  and  C_37 
ROOT
HETATM    1  C   UNK N   1      26.110  15.882   2.788  0.00  0.00    -0.039 A 
HETATM    2  C   UNK N   1      24.965  15.077   2.765  0.00  0.00     0.010 A 
HETATM    3  C   UNK N   1      23.842  15.416   3.491  0.00  0.00     0.013 A 
HETATM    4  C   UNK N   1      23.803  16.596   4.224  0.00  0.00    -0.016 A 
HETATM    5  C   UNK N   1      24.904  17.493   4.161  0.00  0.00    -0.023 A 
HETATM    6  C   UNK N   1      26.066  17.108   3.464  0.00  0.00     0.019 A 
ENDROOT
BRANCH   4   7
HETATM    7  C   UNK N   1      22.681  16.775   5.177  0.00  0.00    -0.002 A 
HETATM    8  C   UNK N   1      22.642  15.969   6.322  0.00  0.00     0.014 A 
HETATM    9  C   UNK N   1      21.596  16.074   7.236  0.00  0.00     0.001 A 
HETATM   10  C   UNK N   1      20.563  16.978   7.015  0.00  0.00     0.002 A 
HETATM   11  C   UNK N   1      20.558  17.768   5.869  0.00  0.00     0.026 A 
HETATM   12  C   UNK N   1      21.589  17.708   4.922  0.00  0.00     0.090 A 
BRANCH  12  13
HETATM   13  S   UNK N   1      21.246  18.748   3.400  0.00  0.00     0.265 S 
HETATM   14  O   UNK N   1      19.866  19.368   3.120  0.00  0.00    -0.200 OA
HETATM   15  O   UNK N   1      21.034  19.708   4.571  0.00  0.00    -0.200 OA
BRANCH  13  16
HETATM   16  N   UNK N   1      20.098  17.415   3.367  0.00  0.00    -0.264 N 
HETATM   17  H   UNK N   1      19.402  17.321   4.056  0.00  0.00     0.180 HD
BRANCH  16  18
HETATM   18  C   UNK N   1      20.221  16.480   2.304  0.00  0.00     0.143 A 
HETATM   19  C   UNK N   1      20.373  15.116   2.424  0.00  0.00     0.016 A 
HETATM   20  C   UNK N   1      20.624  14.686   1.143  0.00  0.00     0.082 A 
HETATM   21  C   UNK N   1      20.303  14.286   3.659  0.00  0.00     0.055 C 
HETATM   22  O   UNK N   1      20.612  15.731   0.344  0.00  0.00    -0.240 OA
HETATM   23  C   UNK N   1      20.900  13.288   0.710  0.00  0.00     0.079 C 
HETATM   24  N   UNK N   1      20.373  16.828   1.012  0.00  0.00    -0.244 N 
ATOM     25  HN  UNK N   1      20.312  17.771   0.628  1.00  0.00     0.196 HD
ENDBRANCH  16  18
ENDBRANCH  13  16
ENDBRANCH  12  13
ENDBRANCH   4   7
BRANCH   5  26
HETATM   26  C   UNK N   1      24.940  18.765   4.951  0.00  0.00     0.207 C 
BRANCH  26  27
HETATM   27  O   UNK N   1      26.261  19.174   5.157  0.00  0.00    -0.387 OA
BRANCH  27  28
HETATM   28  C   UNK N   1      26.206  20.570   5.203  0.00  0.00     0.163 C 
HETATM   29  C   UNK N   1      27.327  21.107   6.071  0.00  0.00     0.033 C 
ENDBRANCH  27  28
ENDBRANCH  26  27
ENDBRANCH   5  26
BRANCH   1  30
HETATM   30  C   UNK N   1      27.425  15.327   2.269  0.00  0.00     0.172 C 
BRANCH  30  31
HETATM   31  N   UNK N   1      28.407  15.285   3.342  0.00  0.00    -0.301 N 
HETATM   32  C   UNK N   1      29.579  15.946   3.359  0.00  0.00     0.254 A 
HETATM   33  C   UNK N   1      30.183  15.909   4.725  0.00  0.00     0.113 A 
HETATM   34  O   UNK N   1      30.025  16.569   2.401  0.00  0.00    -0.270 OA
HETATM   35  N   UNK N   1      29.224  15.038   5.404  0.00  0.00    -0.362 N 
HETATM   36  C   UNK N   1      31.584  15.366   4.812  0.00  0.00     0.041 C 
HETATM   37  C   UNK N   1      30.245  17.271   5.375  0.00  0.00     0.041 C 
HETATM   38  C   UNK N   1      28.260  14.716   4.620  0.00  0.00     0.083 A 
ATOM     39  HN  UNK N   1      29.309  14.727   6.372  1.00  0.00     0.162 HD
HETATM   40  C   UNK N   1      32.082  15.876   6.158  0.00  0.00     0.003 C 
HETATM   41  C   UNK N   1      31.244  17.105   6.504  0.00  0.00     0.003 C 
BRANCH  38  42
HETATM   42  C   UNK N   1      27.203  13.735   5.045  0.00  0.00     0.076 C 
BRANCH  42  43
HETATM   43  C   UNK N   1      26.243  14.228   6.115  0.00  0.00     0.007 C 
BRANCH  43  44
HETATM   44  C   UNK N   1      25.154  13.192   6.369  0.00  0.00    -0.004 C 
HETATM   45  C   UNK N   1      24.765  13.145   7.838  0.00  0.00     0.005 C 
ENDBRANCH  43  44
ENDBRANCH  42  43
ENDBRANCH  38  42
ENDBRANCH  30  31
ENDBRANCH   1  30
TORSDOF 12
ENDMDL
MODEL 3
REMARK VINA RESULT:      -7.7      3.696      5.290
REMARK  12 active torsions:
REMARK  status: ('A' for Active; 'I' for Inactive)
REMARK    1  A    between atoms: C_2  and  C_3 
REMARK    2  A    between atoms: C_3  and  C_4 
REMARK    3  A    between atoms: C_4  and  C_5 
REMARK    4  A    between atoms: N_15  and  C_16 
REMARK    5  A    between atoms: C_16  and  C_17 
REMARK    6  A    between atoms: C_20  and  C_27 
REMARK    7  A    between atoms: C_21  and  C_23 
REMARK    8  A    between atoms: C_23  and  O_24 
REMARK    9  A    between atoms: O_24  and  C_25 
REMARK   10  A    between atoms: C_32  and  S_33 
REMARK   11  A    between atoms: S_33  and  N_36 
REMARK   12  A    between atoms: N_36  and  C_37 
ROOT
HETATM    1  C   UNK N   1      26.058  16.083   3.737  0.00  0.00    -0.039 A 
HETATM    2  C   UNK N   1      24.972  16.967   3.685  0.00  0.00     0.010 A 
HETATM    3  C   UNK N   1      23.699  16.513   3.411  0.00  0.00     0.013 A 
HETATM    4  C   UNK N   1      23.454  15.157   3.229  0.00  0.00    -0.016 A 
HETATM    5  C   UNK N   1      24.515  14.227   3.405  0.00  0.00    -0.023 A 
HETATM    6  C   UNK N   1      25.820  14.707   3.626  0.00  0.00     0.019 A 
ENDROOT
BRANCH   4   7
HETATM    7  C   UNK N   1      22.130  14.764   2.689  0.00  0.00    -0.002 A 
HETATM    8  C   UNK N   1      21.994  14.606   1.303  0.00  0.00     0.014 A 
HETATM    9  C   UNK N   1      20.768  14.268   0.738  0.00  0.00     0.001 A 
HETATM   10  C   UNK N   1      19.650  14.093   1.547  0.00  0.00     0.002 A 
HETATM   11  C   UNK N   1      19.746  14.277   2.923  0.00  0.00     0.026 A 
HETATM   12  C   UNK N   1      20.958  14.611   3.544  0.00  0.00     0.090 A 
BRANCH  12  13
HETATM   13  S   UNK N   1      20.769  14.964   5.376  0.00  0.00     0.265 S 
HETATM   14  O   UNK N   1      19.397  14.992   6.071  0.00  0.00    -0.200 OA
HETATM   15  O   UNK N   1      20.247  13.537   5.209  0.00  0.00    -0.200 OA
BRANCH  13  16
HETATM   16  N   UNK N   1      19.806  16.168   4.529  0.00  0.00    -0.264 N 
HETATM   17  H   UNK N   1      18.917  15.951   4.166  0.00  0.00     0.180 HD
BRANCH  16  18
HETATM   18  C   UNK N   1      20.366  17.467   4.391  0.00  0.00     0.143 A 
HETATM   19  C   UNK N   1      20.475  18.195   3.227  0.00  0.00     0.016 A 
HETATM   20  C   UNK N   1      21.234  19.286   3.575  0.00  0.00     0.082 A 
HETATM   21  C   UNK N   1      19.918  17.872   1.883  0.00  0.00     0.055 C 
HETATM   22  O   UNK N   1      21.535  19.192   4.852  0.00  0.00    -0.240 OA
HETATM   23  C   UNK N   1      21.682  20.385   2.675  0.00  0.00     0.079 C 
HETATM   24  N   UNK N   1      21.028  18.107   5.374  0.00  0.00    -0.244 N 
ATOM     25  HN  UNK N   1      21.116  17.801   6.343  1.00  0.00     0.196 HD
ENDBRANCH  16  18
ENDBRANCH  13  16
ENDBRANCH  12  13
ENDBRANCH   4   7
BRANCH   5  26
HETATM   26  C   UNK N   1      24.327  12.756   3.193  0.00  0.00     0.207 C 
BRANCH  26  27
HETATM   27  O   UNK N   1      23.751  12.171   4.325  0.00  0.00    -0.387 OA
BRANCH  27  28
HETATM   28  C   UNK N   1      22.786  11.292   3.828  0.00  0.00     0.163 C 
HETATM   29  C   UNK N   1      22.952  11.129   2.329  0.00  0.00     0.033 C 
ENDBRANCH  27  28
ENDBRANCH  26  27
ENDBRANCH   5  26
BRANCH   1  30
HETATM   30  C   UNK N   1      27.472  16.634   3.700  0.00  0.00     0.172 C 
BRANCH  30  31
HETATM   31  N   UNK N   1      27.803  17.246   4.979  0.00  0.00    -0.301 N 
HETATM   32  C   UNK N   1      28.194  16.588   6.085  0.00  0.00     0.254 A 
HETATM   33  C   UNK N   1      28.732  17.542   7.101  0.00  0.00     0.113 A 
HETATM   34  O   UNK N   1      28.194  15.366   6.188  0.00  0.00    -0.270 OA
HETATM   35  N   UNK N   1      28.464  18.811   6.425  0.00  0.00    -0.362 N 
HETATM   36  C   UNK N   1      28.087  17.490   8.460  0.00  0.00     0.041 C 
HETATM   37  C   UNK N   1      30.210  17.356   7.356  0.00  0.00     0.041 C 
HETATM   38  C   UNK N   1      27.959  18.615   5.261  0.00  0.00     0.083 A 
ATOM     39  HN  UNK N   1      28.655  19.730   6.824  1.00  0.00     0.162 HD
HETATM   40  C   UNK N   1      29.101  18.179   9.363  0.00  0.00     0.003 C 
HETATM   41  C   UNK N   1      30.458  18.070   8.670  0.00  0.00     0.003 C 
BRANCH  38  42
HETATM   42  C   UNK N   1      27.489  19.762   4.412  0.00  0.00     0.076 C 
BRANCH  42  43
HETATM   43  C   UNK N   1      26.320  20.557   4.970  0.00  0.00     0.007 C 
BRANCH  43  44
HETATM   44  C   UNK N   1      25.104  20.423   4.060  0.00  0.00    -0.004 C 
HETATM   45  C   UNK N   1      25.504  20.447   2.594  0.00  0.00     0.005 C 
ENDBRANCH  43  44
ENDBRANCH  42  43
ENDBRANCH  38  42
ENDBRANCH  30  31
ENDBRANCH   1  30
TORSDOF 12
ENDMDL
MODEL 4
REMARK VINA RESULT:      -7.5      6.421     11.427
REMARK  12 active torsions:
REMARK  status: ('A' for Active; 'I' for Inactive)
REMARK    1  A    between atoms: C_2  and  C_3 
REMARK    2  A    between atoms: C_3  and  C_4 
REMARK    3  A    between atoms: C_4  and  C_5 
REMARK    4  A    between atoms: N_15  and  C_16 
REMARK    5  A    between atoms: C_16  and  C_17 
REMARK    6  A    between atoms: C_20  and  C_27 
REMARK    7  A    between atoms: C_21  and  C_23 
REMARK    8  A    between atoms: C_23  and  O_24 
REMARK    9  A    between atoms: O_24  and  C_25 
REMARK   10  A    between atoms: C_32  and  S_33 
REMARK   11  A    between atoms: S_33  and  N_36 
REMARK   12  A    between atoms: N_36  and  C_37 
ROOT
HETATM    1  C   UNK N   1      32.149  16.657   7.341  0.00  0.00    -0.039 A 
HETATM    2  C   UNK N   1      33.395  17.259   7.123  0.00  0.00     0.010 A 
HETATM    3  C   UNK N   1      34.567  16.573   7.359  0.00  0.00     0.013 A 
HETATM    4  C   UNK N   1      34.540  15.246   7.770  0.00  0.00    -0.016 A 
HETATM    5  C   UNK N   1      33.292  14.573   7.874  0.00  0.00    -0.023 A 
HETATM    6  C   UNK N   1      32.101  15.301   7.688  0.00  0.00     0.019 A 
ENDROOT
BRANCH   4   7
HETATM    7  C   UNK N   1      35.810  14.649   8.250  0.00  0.00    -0.002 A 
HETATM    8  C   UNK N   1      36.582  13.906   7.348  0.00  0.00     0.014 A 
HETATM    9  C   UNK N   1      37.768  13.298   7.751  0.00  0.00     0.001 A 
HETATM   10  C   UNK N   1      38.198  13.410   9.069  0.00  0.00     0.002 A 
HETATM   11  C   UNK N   1      37.434  14.113   9.996  0.00  0.00     0.026 A 
HETATM   12  C   UNK N   1      36.237  14.750   9.641  0.00  0.00     0.090 A 
BRANCH  12  13
HETATM   13  S   UNK N   1      35.329  15.475  11.113  0.00  0.00     0.265 S 
HETATM   14  O   UNK N   1      36.063  15.963  12.375  0.00  0.00    -0.200 OA
HETATM   15  O   UNK N   1      36.204  16.621  10.605  0.00  0.00    -0.200 OA
BRANCH  13  16
HETATM   16  N   UNK N   1      36.251  14.103  11.716  0.00  0.00    -0.264 N 
HETATM   17  H   UNK N   1      37.138  13.881  11.352  0.00  0.00     0.180 HD
BRANCH  16  18
HETATM   18  C   UNK N   1      35.660  13.328  12.751  0.00  0.00     0.143 A 
HETATM   19  C   UNK N   1      35.016  12.119  12.606  0.00  0.00     0.016 A 
HETATM   20  C   UNK N   1      34.474  11.869  13.844  0.00  0.00     0.082 A 
HETATM   21  C   UNK N   1      34.907  11.274  11.384  0.00  0.00     0.055 C 
HETATM   22  O   UNK N   1      34.790  12.865  14.644  0.00  0.00    -0.240 OA
HETATM   23  C   UNK N   1      33.639  10.699  14.232  0.00  0.00     0.079 C 
HETATM   24  N   UNK N   1      35.503  13.761  14.017  0.00  0.00    -0.244 N 
ATOM     25  HN  UNK N   1      35.874  14.626  14.410  1.00  0.00     0.196 HD
ENDBRANCH  16  18
ENDBRANCH  13  16
ENDBRANCH  12  13
ENDBRANCH   4   7
BRANCH   5  26
HETATM   26  C   UNK N   1      33.190  13.154   8.343  0.00  0.00     0.207 C 
BRANCH  26  27
HETATM   27  O   UNK N   1      32.735  12.330   7.308  0.00  0.00    -0.387 OA
BRANCH  27  28
HETATM   28  C   UNK N   1      33.775  11.424   7.084  0.00  0.00     0.163 C 
HETATM   29  C   UNK N   1      34.281  11.554   5.660  0.00  0.00     0.033 C 
ENDBRANCH  27  28
ENDBRANCH  26  27
ENDBRANCH   5  26
BRANCH   1  30
HETATM   30  C   UNK N   1      30.902  17.521   7.403  0.00  0.00     0.172 C 
BRANCH  30  31
HETATM   31  N   UNK N   1      30.061  17.269   6.243  0.00  0.00    -0.301 N 
HETATM   32  C   UNK N   1      28.750  16.967   6.275  0.00  0.00     0.254 A 
HETATM   33  C   UNK N   1      28.154  17.071   4.909  0.00  0.00     0.113 A 
HETATM   34  O   UNK N   1      28.128  16.737   7.306  0.00  0.00    -0.270 OA
HETATM   35  N   UNK N   1      29.357  17.359   4.127  0.00  0.00    -0.362 N 
HETATM   36  C   UNK N   1      27.444  15.844   4.404  0.00  0.00     0.041 C 
HETATM   37  C   UNK N   1      27.144  18.189   4.794  0.00  0.00     0.041 C 
HETATM   38  C   UNK N   1      30.385  17.465   4.889  0.00  0.00     0.083 A 
ATOM     39  HN  UNK N   1      29.376  17.462   3.113  1.00  0.00     0.162 HD
HETATM   40  C   UNK N   1      26.575  16.374   3.272  0.00  0.00     0.003 C 
HETATM   41  C   UNK N   1      26.363  17.864   3.535  0.00  0.00     0.003 C 
BRANCH  38  42
HETATM   42  C   UNK N   1      31.763  17.646   4.316  0.00  0.00     0.076 C 
BRANCH  42  43
HETATM   43  C   UNK N   1      32.010  16.974   2.975  0.00  0.00     0.007 C 
BRANCH  43  44
HETATM   44  C   UNK N   1      33.313  16.182   3.010  0.00  0.00    -0.004 C 
HETATM   45  C   UNK N   1      33.286  15.118   4.095  0.00  0.00     0.005 C 
ENDBRANCH  43  44
ENDBRANCH  42  43
ENDBRANCH  38  42
ENDBRANCH  30  31
ENDBRANCH   1  30
TORSDOF 12
ENDMDL
MODEL 5
REMARK VINA RESULT:      -7.5      2.246      3.238
REMARK  12 active torsions:
REMARK  status: ('A' for Active; 'I' for Inactive)
REMARK    1  A    between atoms: C_2  and  C_3 
REMARK    2  A    between atoms: C_3  and  C_4 
REMARK    3  A    between atoms: C_4  and  C_5 
REMARK    4  A    between atoms: N_15  and  C_16 
REMARK    5  A    between atoms: C_16  and  C_17 
REMARK    6  A    between atoms: C_20  and  C_27 
REMARK    7  A    between atoms: C_21  and  C_23 
REMARK    8  A    between atoms: C_23  and  O_24 
REMARK    9  A    between atoms: O_24  and  C_25 
REMARK   10  A    between atoms: C_32  and  S_33 
REMARK   11  A    between atoms: S_33  and  N_36 
REMARK   12  A    between atoms: N_36  and  C_37 
ROOT
HETATM    1  C   UNK N   1      26.363  16.619   3.406  0.00  0.00    -0.039 A 
HETATM    2  C   UNK N   1      25.951  15.878   2.291  0.00  0.00     0.010 A 
HETATM    3  C   UNK N   1      24.660  15.403   2.191  0.00  0.00     0.013 A 
HETATM    4  C   UNK N   1      23.721  15.691   3.173  0.00  0.00    -0.016 A 
HETATM    5  C   UNK N   1      24.079  16.549   4.250  0.00  0.00    -0.023 A 
HETATM    6  C   UNK N   1      25.414  16.979   4.371  0.00  0.00     0.019 A 
ENDROOT
BRANCH   4   7
HETATM    7  C   UNK N   1      22.440  14.946   3.139  0.00  0.00    -0.002 A 
HETATM    8  C   UNK N   1      21.298  15.601   2.660  0.00  0.00     0.014 A 
HETATM    9  C   UNK N   1      20.062  14.960   2.634  0.00  0.00     0.001 A 
HETATM   10  C   UNK N   1      19.942  13.655   3.099  0.00  0.00     0.002 A 
HETATM   11  C   UNK N   1      21.051  12.991   3.613  0.00  0.00     0.026 A 
HETATM   12  C   UNK N   1      22.319  13.587   3.656  0.00  0.00     0.090 A 
BRANCH  12  13
HETATM   13  S   UNK N   1      23.592  12.538   4.549  0.00  0.00     0.265 S 
HETATM   14  O   UNK N   1      23.196  11.367   5.465  0.00  0.00    -0.200 OA
HETATM   15  O   UNK N   1      22.889  11.561   3.607  0.00  0.00    -0.200 OA
BRANCH  13  16
HETATM   16  N   UNK N   1      22.533  13.207   5.785  0.00  0.00    -0.264 N 
HETATM   17  H   UNK N   1      21.712  13.694   5.548  0.00  0.00     0.180 HD
BRANCH  16  18
HETATM   18  C   UNK N   1      22.915  13.015   7.140  0.00  0.00     0.143 A 
HETATM   19  C   UNK N   1      24.056  13.491   7.747  0.00  0.00     0.016 A 
HETATM   20  C   UNK N   1      24.058  12.898   8.987  0.00  0.00     0.082 A 
HETATM   21  C   UNK N   1      25.076  14.423   7.190  0.00  0.00     0.055 C 
HETATM   22  O   UNK N   1      22.988  12.137   9.085  0.00  0.00    -0.240 OA
HETATM   23  C   UNK N   1      25.096  13.045  10.045  0.00  0.00     0.079 C 
HETATM   24  N   UNK N   1      22.279  12.185   7.989  0.00  0.00    -0.244 N 
ATOM     25  HN  UNK N   1      21.406  11.687   7.809  1.00  0.00     0.196 HD
ENDBRANCH  16  18
ENDBRANCH  13  16
ENDBRANCH  12  13
ENDBRANCH   4   7
BRANCH   5  26
HETATM   26  C   UNK N   1      23.125  16.874   5.358  0.00  0.00     0.207 C 
BRANCH  26  27
HETATM   27  O   UNK N   1      22.843  18.244   5.372  0.00  0.00    -0.387 OA
BRANCH  27  28
HETATM   28  C   UNK N   1      21.451  18.328   5.282  0.00  0.00     0.163 C 
HETATM   29  C   UNK N   1      21.057  19.197   4.103  0.00  0.00     0.033 C 
ENDBRANCH  27  28
ENDBRANCH  26  27
ENDBRANCH   5  26
BRANCH   1  30
HETATM   30  C   UNK N   1      27.845  16.836   3.653  0.00  0.00     0.172 C 
BRANCH  30  31
HETATM   31  N   UNK N   1      28.053  17.400   4.978  0.00  0.00    -0.301 N 
HETATM   32  C   UNK N   1      28.316  16.699   6.096  0.00  0.00     0.254 A 
HETATM   33  C   UNK N   1      28.763  17.610   7.194  0.00  0.00     0.113 A 
HETATM   34  O   UNK N   1      28.284  15.475   6.158  0.00  0.00    -0.270 OA
HETATM   35  N   UNK N   1      28.589  18.905   6.536  0.00  0.00    -0.362 N 
HETATM   36  C   UNK N   1      27.981  17.529   8.477  0.00  0.00     0.041 C 
HETATM   37  C   UNK N   1      30.203  17.385   7.592  0.00  0.00     0.041 C 
HETATM   38  C   UNK N   1      28.202  18.755   5.321  0.00  0.00     0.083 A 
ATOM     39  HN  UNK N   1      28.753  19.807   6.983  1.00  0.00     0.162 HD
HETATM   40  C   UNK N   1      28.908  18.168   9.501  0.00  0.00     0.003 C 
HETATM   41  C   UNK N   1      30.327  18.053   8.948  0.00  0.00     0.003 C 
BRANCH  38  42
HETATM   42  C   UNK N   1      27.843  19.939   4.466  0.00  0.00     0.076 C 
BRANCH  42  43
HETATM   43  C   UNK N   1      26.372  20.320   4.458  0.00  0.00     0.007 C 
BRANCH  43  44
HETATM   44  C   UNK N   1      25.848  20.387   3.028  0.00  0.00    -0.004 C 
HETATM   45  C   UNK N   1      24.331  20.478   2.997  0.00  0.00     0.005 C 
ENDBRANCH  43  44
ENDBRANCH  42  43
ENDBRANCH  38  42
ENDBRANCH  30  31
ENDBRANCH   1  30
TORSDOF 12
ENDMDL
MODEL 6
REMARK VINA RESULT:      -7.4      3.074      6.009
REMARK  12 active torsions:
REMARK  status: ('A' for Active; 'I' for Inactive)
REMARK    1  A    between atoms: C_2  and  C_3 
REMARK    2  A    between atoms: C_3  and  C_4 
REMARK    3  A    between atoms: C_4  and  C_5 
REMARK    4  A    between atoms: N_15  and  C_16 
REMARK    5  A    between atoms: C_16  and  C_17 
REMARK    6  A    between atoms: C_20  and  C_27 
REMARK    7  A    between atoms: C_21  and  C_23 
REMARK    8  A    between atoms: C_23  and  O_24 
REMARK    9  A    between atoms: O_24  and  C_25 
REMARK   10  A    between atoms: C_32  and  S_33 
REMARK   11  A    between atoms: S_33  and  N_36 
REMARK   12  A    between atoms: N_36  and  C_37 
ROOT
HETATM    1  C   UNK N   1      26.698  17.265   4.073  0.00  0.00    -0.039 A 
HETATM    2  C   UNK N   1      25.467  17.876   3.802  0.00  0.00     0.010 A 
HETATM    3  C   UNK N   1      24.351  17.125   3.500  0.00  0.00     0.013 A 
HETATM    4  C   UNK N   1      24.409  15.737   3.508  0.00  0.00    -0.016 A 
HETATM    5  C   UNK N   1      25.612  15.091   3.906  0.00  0.00    -0.023 A 
HETATM    6  C   UNK N   1      26.759  15.868   4.154  0.00  0.00     0.019 A 
ENDROOT
BRANCH   4   7
HETATM    7  C   UNK N   1      23.260  14.998   2.931  0.00  0.00    -0.002 A 
HETATM    8  C   UNK N   1      23.257  14.738   1.554  0.00  0.00     0.014 A 
HETATM    9  C   UNK N   1      22.190  14.075   0.953  0.00  0.00     0.001 A 
HETATM   10  C   UNK N   1      21.100  13.670   1.715  0.00  0.00     0.002 A 
HETATM   11  C   UNK N   1      21.060  13.944   3.079  0.00  0.00     0.026 A 
HETATM   12  C   UNK N   1      22.110  14.602   3.735  0.00  0.00     0.090 A 
BRANCH  12  13
HETATM   13  S   UNK N   1      21.722  14.992   5.528  0.00  0.00     0.265 S 
HETATM   14  O   UNK N   1      20.343  14.714   6.152  0.00  0.00    -0.200 OA
HETATM   15  O   UNK N   1      21.579  13.474   5.431  0.00  0.00    -0.200 OA
BRANCH  13  16
HETATM   16  N   UNK N   1      20.548  15.872   4.556  0.00  0.00    -0.264 N 
HETATM   17  H   UNK N   1      19.786  15.414   4.135  0.00  0.00     0.180 HD
BRANCH  16  18
HETATM   18  C   UNK N   1      20.749  17.271   4.404  0.00  0.00     0.143 A 
HETATM   19  C   UNK N   1      20.706  17.984   3.227  0.00  0.00     0.016 A 
HETATM   20  C   UNK N   1      21.135  19.243   3.573  0.00  0.00     0.082 A 
HETATM   21  C   UNK N   1      20.305  17.505   1.874  0.00  0.00     0.055 C 
HETATM   22  O   UNK N   1      21.402  19.251   4.861  0.00  0.00    -0.240 OA
HETATM   23  C   UNK N   1      21.311  20.407   2.661  0.00  0.00     0.079 C 
HETATM   24  N   UNK N   1      21.181  18.078   5.392  0.00  0.00    -0.244 N 
ATOM     25  HN  UNK N   1      21.310  17.822   6.371  1.00  0.00     0.196 HD
ENDBRANCH  16  18
ENDBRANCH  13  16
ENDBRANCH  12  13
ENDBRANCH   4   7
BRANCH   5  26
HETATM   26  C   UNK N   1      25.751  13.599   3.905  0.00  0.00     0.207 C 
BRANCH  26  27
HETATM   27  O   UNK N   1      26.238  13.155   5.139  0.00  0.00    -0.387 OA
BRANCH  27  28
HETATM   28  C   UNK N   1      25.101  12.935   5.920  0.00  0.00     0.163 C 
HETATM   29  C   UNK N   1      25.239  13.644   7.253  0.00  0.00     0.033 C 
ENDBRANCH  27  28
ENDBRANCH  26  27
ENDBRANCH   5  26
BRANCH   1  30
HETATM   30  C   UNK N   1      27.966  18.100   4.065  0.00  0.00     0.172 C 
BRANCH  30  31
HETATM   31  N   UNK N   1      28.601  18.057   5.374  0.00  0.00    -0.301 N 
HETATM   32  C   UNK N   1      28.120  18.618   6.498  0.00  0.00     0.254 A 
HETATM   33  C   UNK N   1      28.867  18.124   7.693  0.00  0.00     0.113 A 
HETATM   34  O   UNK N   1      27.140  19.356   6.527  0.00  0.00    -0.270 OA
HETATM   35  N   UNK N   1      29.888  17.308   7.036  0.00  0.00    -0.362 N 
HETATM   36  C   UNK N   1      29.481  19.180   8.571  0.00  0.00     0.041 C 
HETATM   37  C   UNK N   1      28.009  17.291   8.617  0.00  0.00     0.041 C 
HETATM   38  C   UNK N   1      29.712  17.288   5.764  0.00  0.00     0.083 A 
ATOM     39  HN  UNK N   1      30.639  16.819   7.523  1.00  0.00     0.162 HD
HETATM   40  C   UNK N   1      29.736  18.451   9.883  0.00  0.00     0.003 C 
HETATM   41  C   UNK N   1      28.779  17.261   9.923  0.00  0.00     0.003 C 
BRANCH  38  42
HETATM   42  C   UNK N   1      30.696  16.612   4.852  0.00  0.00     0.076 C 
BRANCH  42  43
HETATM   43  C   UNK N   1      31.753  17.517   4.240  0.00  0.00     0.007 C 
BRANCH  43  44
HETATM   44  C   UNK N   1      33.148  17.061   4.657  0.00  0.00    -0.004 C 
HETATM   45  C   UNK N   1      33.471  17.494   6.077  0.00  0.00     0.005 C 
ENDBRANCH  43  44
ENDBRANCH  42  43
ENDBRANCH  38  42
ENDBRANCH  30  31
ENDBRANCH   1  30
TORSDOF 12
ENDMDL
MODEL 7
REMARK VINA RESULT:      -7.3      3.573      5.184
REMARK  12 active torsions:
REMARK  status: ('A' for Active; 'I' for Inactive)
REMARK    1  A    between atoms: C_2  and  C_3 
REMARK    2  A    between atoms: C_3  and  C_4 
REMARK    3  A    between atoms: C_4  and  C_5 
REMARK    4  A    between atoms: N_15  and  C_16 
REMARK    5  A    between atoms: C_16  and  C_17 
REMARK    6  A    between atoms: C_20  and  C_27 
REMARK    7  A    between atoms: C_21  and  C_23 
REMARK    8  A    between atoms: C_23  and  O_24 
REMARK    9  A    between atoms: O_24  and  C_25 
REMARK   10  A    between atoms: C_32  and  S_33 
REMARK   11  A    between atoms: S_33  and  N_36 
REMARK   12  A    between atoms: N_36  and  C_37 
ROOT
HETATM    1  C   UNK N   1      26.344  16.438   3.464  0.00  0.00    -0.039 A 
HETATM    2  C   UNK N   1      26.046  15.083   3.273  0.00  0.00     0.010 A 
HETATM    3  C   UNK N   1      24.764  14.606   3.444  0.00  0.00     0.013 A 
HETATM    4  C   UNK N   1      23.723  15.470   3.761  0.00  0.00    -0.016 A 
HETATM    5  C   UNK N   1      23.975  16.868   3.834  0.00  0.00    -0.023 A 
HETATM    6  C   UNK N   1      25.298  17.335   3.715  0.00  0.00     0.019 A 
ENDROOT
BRANCH   4   7
HETATM    7  C   UNK N   1      22.434  14.870   4.181  0.00  0.00    -0.002 A 
HETATM    8  C   UNK N   1      22.375  14.211   5.416  0.00  0.00     0.014 A 
HETATM    9  C   UNK N   1      21.199  13.602   5.847  0.00  0.00     0.001 A 
HETATM   10  C   UNK N   1      20.064  13.630   5.046  0.00  0.00     0.002 A 
HETATM   11  C   UNK N   1      20.102  14.247   3.799  0.00  0.00     0.026 A 
HETATM   12  C   UNK N   1      21.257  14.881   3.320  0.00  0.00     0.090 A 
BRANCH  12  13
HETATM   13  S   UNK N   1      21.084  15.477   1.551  0.00  0.00     0.265 S 
HETATM   14  O   UNK N   1      19.882  15.100   0.668  0.00  0.00    -0.200 OA
HETATM   15  O   UNK N   1      19.891  16.097   2.278  0.00  0.00    -0.200 OA
BRANCH  13  16
HETATM   16  N   UNK N   1      21.037  13.719   1.496  0.00  0.00    -0.264 N 
HETATM   17  H   UNK N   1      20.222  13.221   1.729  0.00  0.00     0.180 HD
BRANCH  16  18
HETATM   18  C   UNK N   1      22.228  13.050   1.102  0.00  0.00     0.143 A 
HETATM   19  C   UNK N   1      22.816  11.978   1.736  0.00  0.00     0.016 A 
HETATM   20  C   UNK N   1      24.017  11.814   1.088  0.00  0.00     0.082 A 
HETATM   21  C   UNK N   1      22.289  11.181   2.879  0.00  0.00     0.055 C 
HETATM   22  O   UNK N   1      24.109  12.727   0.145  0.00  0.00    -0.240 OA
HETATM   23  C   UNK N   1      25.069  10.807   1.401  0.00  0.00     0.079 C 
HETATM   24  N   UNK N   1      23.047  13.489   0.127  0.00  0.00    -0.244 N 
ATOM     25  HN  UNK N   1      22.871  14.269  -0.507  1.00  0.00     0.196 HD
ENDBRANCH  16  18
ENDBRANCH  13  16
ENDBRANCH  12  13
ENDBRANCH   4   7
BRANCH   5  26
HETATM   26  C   UNK N   1      22.906  17.851   4.203  0.00  0.00     0.207 C 
BRANCH  26  27
HETATM   27  O   UNK N   1      22.811  17.967   5.593  0.00  0.00    -0.387 OA
BRANCH  27  28
HETATM   28  C   UNK N   1      21.455  18.191   5.846  0.00  0.00     0.163 C 
HETATM   29  C   UNK N   1      20.967  17.258   6.938  0.00  0.00     0.033 C 
ENDBRANCH  27  28
ENDBRANCH  26  27
ENDBRANCH   5  26
BRANCH   1  30
HETATM   30  C   UNK N   1      27.793  16.873   3.604  0.00  0.00     0.172 C 
BRANCH  30  31
HETATM   31  N   UNK N   1      28.037  17.369   4.950  0.00  0.00    -0.301 N 
HETATM   32  C   UNK N   1      28.313  16.611   6.027  0.00  0.00     0.254 A 
HETATM   33  C   UNK N   1      28.797  17.460   7.157  0.00  0.00     0.113 A 
HETATM   34  O   UNK N   1      28.262  15.386   6.030  0.00  0.00    -0.270 OA
HETATM   35  N   UNK N   1      28.630  18.788   6.567  0.00  0.00    -0.362 N 
HETATM   36  C   UNK N   1      28.040  17.329   8.451  0.00  0.00     0.041 C 
HETATM   37  C   UNK N   1      30.241  17.194   7.513  0.00  0.00     0.041 C 
HETATM   38  C   UNK N   1      28.216  18.704   5.355  0.00  0.00     0.083 A 
ATOM     39  HN  UNK N   1      28.818  19.665   7.053  1.00  0.00     0.162 HD
HETATM   40  C   UNK N   1      28.999  17.903   9.485  0.00  0.00     0.003 C 
HETATM   41  C   UNK N   1      30.404  17.793   8.896  0.00  0.00     0.003 C 
BRANCH  38  42
HETATM   42  C   UNK N   1      27.858  19.932   4.566  0.00  0.00     0.076 C 
BRANCH  42  43
HETATM   43  C   UNK N   1      26.598  20.656   5.014  0.00  0.00     0.007 C 
BRANCH  43  44
HETATM   44  C   UNK N   1      26.934  21.703   6.070  0.00  0.00    -0.004 C 
HETATM   45  C   UNK N   1      26.216  21.419   7.379  0.00  0.00     0.005 C 
ENDBRANCH  43  44
ENDBRANCH  42  43
ENDBRANCH  38  42
ENDBRANCH  30  31
ENDBRANCH   1  30
TORSDOF 12
ENDMDL
MODEL 8
REMARK VINA RESULT:      -7.2      8.071     12.347
REMARK  12 active torsions:
REMARK  status: ('A' for Active; 'I' for Inactive)
REMARK    1  A    between atoms: C_2  and  C_3 
REMARK    2  A    between atoms: C_3  and  C_4 
REMARK    3  A    between atoms: C_4  and  C_5 
REMARK    4  A    between atoms: N_15  and  C_16 
REMARK    5  A    between atoms: C_16  and  C_17 
REMARK    6  A    between atoms: C_20  and  C_27 
REMARK    7  A    between atoms: C_21  and  C_23 
REMARK    8  A    between atoms: C_23  and  O_24 
REMARK    9  A    between atoms: O_24  and  C_25 
REMARK   10  A    between atoms: C_32  and  S_33 
REMARK   11  A    between atoms: S_33  and  N_36 
REMARK   12  A    between atoms: N_36  and  C_37 
ROOT
HETATM    1  C   UNK N   1      34.483  16.171   9.052  0.00  0.00    -0.039 A 
HETATM    2  C   UNK N   1      34.075  15.689  10.303  0.00  0.00     0.010 A 
HETATM    3  C   UNK N   1      34.268  14.369  10.653  0.00  0.00     0.013 A 
HETATM    4  C   UNK N   1      34.918  13.495   9.791  0.00  0.00    -0.016 A 
HETATM    5  C   UNK N   1      35.455  13.991   8.571  0.00  0.00    -0.023 A 
HETATM    6  C   UNK N   1      35.202  15.324   8.199  0.00  0.00     0.019 A 
ENDROOT
BRANCH   4   7
HETATM    7  C   UNK N   1      34.866  12.048  10.110  0.00  0.00    -0.002 A 
HETATM    8  C   UNK N   1      33.776  11.300   9.644  0.00  0.00     0.014 A 
HETATM    9  C   UNK N   1      33.660   9.945   9.939  0.00  0.00     0.001 A 
HETATM   10  C   UNK N   1      34.624   9.314  10.717  0.00  0.00     0.002 A 
HETATM   11  C   UNK N   1      35.699  10.038  11.222  0.00  0.00     0.026 A 
HETATM   12  C   UNK N   1      35.869  11.403  10.950  0.00  0.00     0.090 A 
BRANCH  12  13
HETATM   13  S   UNK N   1      37.300  12.165  11.891  0.00  0.00     0.265 S 
HETATM   14  O   UNK N   1      37.954  11.472  13.098  0.00  0.00    -0.200 OA
HETATM   15  O   UNK N   1      37.876  10.877  11.302  0.00  0.00    -0.200 OA
BRANCH  13  16
HETATM   16  N   UNK N   1      36.017  11.889  13.063  0.00  0.00    -0.264 N 
HETATM   17  H   UNK N   1      35.261  11.292  12.864  0.00  0.00     0.180 HD
BRANCH  16  18
HETATM   18  C   UNK N   1      36.119  12.568  14.307  0.00  0.00     0.143 A 
HETATM   19  C   UNK N   1      35.422  12.279  15.460  0.00  0.00     0.016 A 
HETATM   20  C   UNK N   1      35.730  13.310  16.314  0.00  0.00     0.082 A 
HETATM   21  C   UNK N   1      34.518  11.124  15.725  0.00  0.00     0.055 C 
HETATM   22  O   UNK N   1      36.551  14.131  15.695  0.00  0.00    -0.240 OA
HETATM   23  C   UNK N   1      35.212  13.509  17.696  0.00  0.00     0.079 C 
HETATM   24  N   UNK N   1      36.805  13.714  14.484  0.00  0.00    -0.244 N 
ATOM     25  HN  UNK N   1      37.410  14.168  13.799  1.00  0.00     0.196 HD
ENDBRANCH  16  18
ENDBRANCH  13  16
ENDBRANCH  12  13
ENDBRANCH   4   7
BRANCH   5  26
HETATM   26  C   UNK N   1      36.139  13.096   7.582  0.00  0.00     0.207 C 
BRANCH  26  27
HETATM   27  O   UNK N   1      37.491  12.952   7.910  0.00  0.00    -0.387 OA
BRANCH  27  28
HETATM   28  C   UNK N   1      37.930  11.856   7.163  0.00  0.00     0.163 C 
HETATM   29  C   UNK N   1      37.296  10.582   7.685  0.00  0.00     0.033 C 
ENDBRANCH  27  28
ENDBRANCH  26  27
ENDBRANCH   5  26
BRANCH   1  30
HETATM   30  C   UNK N   1      33.964  17.512   8.563  0.00  0.00     0.172 C 
BRANCH  30  31
HETATM   31  N   UNK N   1      33.039  17.316   7.457  0.00  0.00    -0.301 N 
HETATM   32  C   UNK N   1      33.372  17.283   6.153  0.00  0.00     0.254 A 
HETATM   33  C   UNK N   1      32.232  16.770   5.334  0.00  0.00     0.113 A 
HETATM   34  O   UNK N   1      34.491  17.547   5.727  0.00  0.00    -0.270 OA
HETATM   35  N   UNK N   1      31.209  16.643   6.372  0.00  0.00    -0.362 N 
HETATM   36  C   UNK N   1      31.776  17.659   4.209  0.00  0.00     0.041 C 
HETATM   37  C   UNK N   1      32.529  15.435   4.689  0.00  0.00     0.041 C 
HETATM   38  C   UNK N   1      31.684  16.947   7.525  0.00  0.00     0.083 A 
ATOM     39  HN  UNK N   1      30.246  16.353   6.202  1.00  0.00     0.162 HD
HETATM   40  C   UNK N   1      30.986  16.719   3.309  0.00  0.00     0.003 C 
HETATM   41  C   UNK N   1      31.485  15.304   3.598  0.00  0.00     0.003 C 
BRANCH  38  42
HETATM   42  C   UNK N   1      30.802  17.006   8.741  0.00  0.00     0.076 C 
BRANCH  42  43
HETATM   43  C   UNK N   1      30.323  18.393   9.137  0.00  0.00     0.007 C 
BRANCH  43  44
HETATM   44  C   UNK N   1      28.839  18.363   9.485  0.00  0.00    -0.004 C 
HETATM   45  C   UNK N   1      28.078  17.403   8.585  0.00  0.00     0.005 C 
ENDBRANCH  43  44
ENDBRANCH  42  43
ENDBRANCH  38  42
ENDBRANCH  30  31
ENDBRANCH   1  30
TORSDOF 12
ENDMDL
MODEL 9
REMARK VINA RESULT:      -7.1      2.584      4.599
REMARK  12 active torsions:
REMARK  status: ('A' for Active; 'I' for Inactive)
REMARK    1  A    between atoms: C_2  and  C_3 
REMARK    2  A    between atoms: C_3  and  C_4 
REMARK    3  A    between atoms: C_4  and  C_5 
REMARK    4  A    between atoms: N_15  and  C_16 
REMARK    5  A    between atoms: C_16  and  C_17 
REMARK    6  A    between atoms: C_20  and  C_27 
REMARK    7  A    between atoms: C_21  and  C_23 
REMARK    8  A    between atoms: C_23  and  O_24 
REMARK    9  A    between atoms: O_24  and  C_25 
REMARK   10  A    between atoms: C_32  and  S_33 
REMARK   11  A    between atoms: S_33  and  N_36 
REMARK   12  A    between atoms: N_36  and  C_37 
ROOT
HETATM    1  C   UNK N   1      26.470  18.642   3.887  0.00  0.00    -0.039 A 
HETATM    2  C   UNK N   1      26.803  17.351   3.458  0.00  0.00     0.010 A 
HETATM    3  C   UNK N   1      25.837  16.377   3.317  0.00  0.00     0.013 A 
HETATM    4  C   UNK N   1      24.498  16.669   3.548  0.00  0.00    -0.016 A 
HETATM    5  C   UNK N   1      24.119  18.004   3.859  0.00  0.00    -0.023 A 
HETATM    6  C   UNK N   1      25.120  18.975   4.058  0.00  0.00     0.019 A 
ENDROOT
BRANCH   4   7
HETATM    7  C   UNK N   1      23.551  15.532   3.631  0.00  0.00    -0.002 A 
HETATM    8  C   UNK N   1      22.797  15.206   2.496  0.00  0.00     0.014 A 
HETATM    9  C   UNK N   1      21.871  14.167   2.525  0.00  0.00     0.001 A 
HETATM   10  C   UNK N   1      21.671  13.442   3.694  0.00  0.00     0.002 A 
HETATM   11  C   UNK N   1      22.380  13.764   4.847  0.00  0.00     0.026 A 
HETATM   12  C   UNK N   1      23.329  14.796   4.871  0.00  0.00     0.090 A 
BRANCH  12  13
HETATM   13  S   UNK N   1      24.009  15.127   6.587  0.00  0.00     0.265 S 
HETATM   14  O   UNK N   1      23.791  14.155   7.760  0.00  0.00    -0.200 OA
HETATM   15  O   UNK N   1      24.719  13.850   6.138  0.00  0.00    -0.200 OA
BRANCH  13  16
HETATM   16  N   UNK N   1      22.268  14.937   6.762  0.00  0.00    -0.264 N 
HETATM   17  H   UNK N   1      21.814  14.105   6.499  0.00  0.00     0.180 HD
BRANCH  16  18
HETATM   18  C   UNK N   1      21.546  16.038   7.298  0.00  0.00     0.143 A 
HETATM   19  C   UNK N   1      20.624  15.997   8.320  0.00  0.00     0.016 A 
HETATM   20  C   UNK N   1      20.085  17.260   8.347  0.00  0.00     0.082 A 
HETATM   21  C   UNK N   1      20.269  14.843   9.194  0.00  0.00     0.055 C 
HETATM   22  O   UNK N   1      20.662  17.978   7.407  0.00  0.00    -0.240 OA
HETATM   23  C   UNK N   1      19.008  17.751   9.250  0.00  0.00     0.079 C 
HETATM   24  N   UNK N   1      21.547  17.272   6.756  0.00  0.00    -0.244 N 
ATOM     25  HN  UNK N   1      22.130  17.593   5.983  1.00  0.00     0.196 HD
ENDBRANCH  16  18
ENDBRANCH  13  16
ENDBRANCH  12  13
ENDBRANCH   4   7
BRANCH   5  26
HETATM   26  C   UNK N   1      22.699  18.380   4.152  0.00  0.00     0.207 C 
BRANCH  26  27
HETATM   27  O   UNK N   1      22.455  19.702   3.766  0.00  0.00    -0.387 OA
BRANCH  27  28
HETATM   28  C   UNK N   1      21.354  19.632   2.909  0.00  0.00     0.163 C 
HETATM   29  C   UNK N   1      20.444  18.492   3.322  0.00  0.00     0.033 C 
ENDBRANCH  27  28
ENDBRANCH  26  27
ENDBRANCH   5  26
BRANCH   1  30
HETATM   30  C   UNK N   1      27.568  19.581   4.356  0.00  0.00     0.172 C 
BRANCH  30  31
HETATM   31  N   UNK N   1      28.221  19.035   5.536  0.00  0.00    -0.301 N 
HETATM   32  C   UNK N   1      27.881  19.295   6.811  0.00  0.00     0.254 A 
HETATM   33  C   UNK N   1      28.561  18.342   7.740  0.00  0.00     0.113 A 
HETATM   34  O   UNK N   1      27.051  20.136   7.138  0.00  0.00    -0.270 OA
HETATM   35  N   UNK N   1      29.399  17.613   6.789  0.00  0.00    -0.362 N 
HETATM   36  C   UNK N   1      29.379  18.964   8.839  0.00  0.00     0.041 C 
HETATM   37  C   UNK N   1      27.593  17.417   8.441  0.00  0.00     0.041 C 
HETATM   38  C   UNK N   1      29.187  18.014   5.588  0.00  0.00     0.083 A 
ATOM     39  HN  UNK N   1      30.064  16.883   7.045  1.00  0.00     0.162 HD
HETATM   40  C   UNK N   1      29.536  17.835   9.850  0.00  0.00     0.003 C 
HETATM   41  C   UNK N   1      28.382  16.863   9.612  0.00  0.00     0.003 C 
BRANCH  38  42
HETATM   42  C   UNK N   1      30.007  17.500   4.438  0.00  0.00     0.076 C 
BRANCH  42  43
HETATM   43  C   UNK N   1      31.313  16.819   4.816  0.00  0.00     0.007 C 
BRANCH  43  44
HETATM   44  C   UNK N   1      32.469  17.407   4.015  0.00  0.00    -0.004 C 
HETATM   45  C   UNK N   1      33.218  16.328   3.249  0.00  0.00     0.005 C 
ENDBRANCH  43  44
ENDBRANCH  42  43
ENDBRANCH  38  42
ENDBRANCH  30  31
ENDBRANCH   1  30
TORSDOF 12
ENDMDL
