MODEL 1
REMARK VINA RESULT:      -6.5      0.000      0.000
REMARK  8 active torsions:
REMARK  status: ('A' for Active; 'I' for Inactive)
REMARK    1  A    between atoms: C_2  and  C_3 
REMARK    2  A    between atoms: N_8  and  C_9 
REMARK    3  A    between atoms: C_9  and  C_10 
REMARK    4  A    between atoms: C_10  and  C_11 
REMARK    5  A    between atoms: C_11  and  C_12 
REMARK    6  A    between atoms: C_12  and  N_13 
REMARK    7  A    between atoms: N_13  and  S_14 
REMARK    8  A    between atoms: C_26  and  N_27 
ROOT
HETATM    1  C   UNK N   1      31.789  17.115   4.373  0.00  0.00     0.084 A 
HETATM    2  N   UNK N   1      30.611  17.550   3.859  0.00  0.00    -0.341 N 
ATOM      3  HN  UNK N   1      30.374  17.713   2.880  1.00  0.00     0.167 HD
HETATM    4  C   UNK N   1      29.823  17.715   4.940  0.00  0.00     0.105 A 
HETATM    5  C   UNK N   1      30.509  17.395   6.073  0.00  0.00     0.079 A 
HETATM    6  N   UNK N   1      31.752  17.009   5.727  0.00  0.00    -0.334 N 
HETATM    7  C   UNK N   1      29.904  17.497   7.333  0.00  0.00     0.020 A 
HETATM    8  C   UNK N   1      30.567  17.189   8.526  0.00  0.00     0.016 A 
HETATM    9  C   UNK N   1      29.907  17.332   9.749  0.00  0.00     0.001 A 
HETATM   10  C   UNK N   1      28.582  17.778   9.787  0.00  0.00     0.002 A 
HETATM   11  C   UNK N   1      27.906  18.081   8.600  0.00  0.00     0.030 A 
HETATM   12  C   UNK N   1      28.555  17.946   7.370  0.00  0.00     0.046 A 
HETATM   13  N   UNK N   1      27.894  18.250   6.208  0.00  0.00    -0.340 N 
ATOM     14  HN  UNK N   1      26.924  18.564   6.255  1.00  0.00     0.167 HD
HETATM   15  C   UNK N   1      28.501  18.143   4.988  0.00  0.00     0.129 A 
ENDROOT
BRANCH   6  16
HETATM   16  C   UNK N   1      32.836  16.552   6.588  0.00  0.00     0.131 C 
BRANCH  16  17
HETATM   17  C   UNK N   1      33.850  17.662   6.820  0.00  0.00     0.022 C 
BRANCH  17  18
HETATM   18  C   UNK N   1      34.067  17.897   8.311  0.00  0.00     0.022 C 
BRANCH  18  19
HETATM   19  C   UNK N   1      34.888  16.790   8.969  0.00  0.00     0.132 C 
BRANCH  19  20
HETATM   20  N   UNK N   1      34.698  16.804  10.411  0.00  0.00    -0.320 N 
HETATM   21  H   UNK N   1      34.250  17.547  10.948  0.00  0.00     0.172 HD
BRANCH  20  22
HETATM   22  S   UNK N   1      35.374  15.316  11.072  0.00  0.00     0.222 S 
HETATM   23  O   UNK N   1      35.971  15.698  12.436  0.00  0.00    -0.206 OA
HETATM   24  O   UNK N   1      34.136  14.507  11.486  0.00  0.00    -0.206 OA
HETATM   25  C   UNK N   1      36.489  14.363  10.005  0.00  0.00     0.185 C 
ENDBRANCH  20  22
ENDBRANCH  19  20
ENDBRANCH  18  19
ENDBRANCH  17  18
ENDBRANCH  16  17
ENDBRANCH   6  16
BRANCH   1  26
HETATM   26  C   UNK N   1      32.986  16.821   3.525  0.00  0.00     0.072 C 
HETATM   27  C   UNK N   1      33.008  15.366   3.103  0.00  0.00     0.013 C 
ENDBRANCH   1  26
BRANCH  15  28
HETATM   28  N   UNK N   1      27.796  18.459   3.810  0.00  0.00    -0.384 N 
HETATM   29  H   UNK N   1      27.225  17.794   3.361  0.00  0.00     0.157 HD
HETATM   30  H   UNK N   1      27.875  19.363   3.428  0.00  0.00     0.157 HD
ENDBRANCH  15  28
TORSDOF 8
ENDMDL
MODEL 2
REMARK VINA RESULT:      -6.5      1.005      3.913
REMARK  8 active torsions:
REMARK  status: ('A' for Active; 'I' for Inactive)
REMARK    1  A    between atoms: C_2  and  C_3 
REMARK    2  A    between atoms: N_8  and  C_9 
REMARK    3  A    between atoms: C_9  and  C_10 
REMARK    4  A    between atoms: C_10  and  C_11 
REMARK    5  A    between atoms: C_11  and  C_12 
REMARK    6  A    between atoms: C_12  and  N_13 
REMARK    7  A    between atoms: N_13  and  S_14 
REMARK    8  A    between atoms: C_26  and  N_27 
ROOT
HETATM    1  C   UNK N   1      29.646  17.949   8.077  0.00  0.00     0.084 A 
HETATM    2  N   UNK N   1      28.695  18.110   7.123  0.00  0.00    -0.341 N 
ATOM      3  HN  UNK N   1      27.732  18.427   7.242  1.00  0.00     0.167 HD
HETATM    4  C   UNK N   1      29.314  17.756   5.980  0.00  0.00     0.105 A 
HETATM    5  C   UNK N   1      30.600  17.386   6.238  0.00  0.00     0.079 A 
HETATM    6  N   UNK N   1      30.823  17.509   7.561  0.00  0.00    -0.334 N 
HETATM    7  C   UNK N   1      31.448  16.964   5.205  0.00  0.00     0.020 A 
HETATM    8  C   UNK N   1      32.772  16.566   5.419  0.00  0.00     0.016 A 
HETATM    9  C   UNK N   1      33.555  16.139   4.344  0.00  0.00     0.001 A 
HETATM   10  C   UNK N   1      33.023  16.111   3.051  0.00  0.00     0.002 A 
HETATM   11  C   UNK N   1      31.703  16.515   2.824  0.00  0.00     0.030 A 
HETATM   12  C   UNK N   1      30.907  16.941   3.890  0.00  0.00     0.046 A 
HETATM   13  N   UNK N   1      29.611  17.330   3.667  0.00  0.00    -0.340 N 
ATOM     14  HN  UNK N   1      29.243  17.313   2.716  1.00  0.00     0.167 HD
HETATM   15  C   UNK N   1      28.799  17.740   4.688  0.00  0.00     0.129 A 
ENDROOT
BRANCH   6  16
HETATM   16  C   UNK N   1      32.052  17.254   8.303  0.00  0.00     0.131 C 
BRANCH  16  17
HETATM   17  C   UNK N   1      32.937  18.489   8.330  0.00  0.00     0.022 C 
BRANCH  17  18
HETATM   18  C   UNK N   1      34.411  18.101   8.390  0.00  0.00     0.022 C 
BRANCH  18  19
HETATM   19  C   UNK N   1      34.635  16.739   9.044  0.00  0.00     0.132 C 
BRANCH  19  20
HETATM   20  N   UNK N   1      34.965  16.900  10.453  0.00  0.00    -0.320 N 
HETATM   21  H   UNK N   1      34.953  17.778  10.973  0.00  0.00     0.172 HD
BRANCH  20  22
HETATM   22  S   UNK N   1      35.390  15.319  11.105  0.00  0.00     0.222 S 
HETATM   23  O   UNK N   1      36.043  15.592  12.469  0.00  0.00    -0.206 OA
HETATM   24  O   UNK N   1      34.037  14.722  11.518  0.00  0.00    -0.206 OA
HETATM   25  C   UNK N   1      36.332  14.202  10.032  0.00  0.00     0.185 C 
ENDBRANCH  20  22
ENDBRANCH  19  20
ENDBRANCH  18  19
ENDBRANCH  17  18
ENDBRANCH  16  17
ENDBRANCH   6  16
BRANCH   1  26
HETATM   26  C   UNK N   1      29.392  18.205   9.529  0.00  0.00     0.072 C 
HETATM   27  C   UNK N   1      28.880  16.957  10.219  0.00  0.00     0.013 C 
ENDBRANCH   1  26
BRANCH  15  28
HETATM   28  N   UNK N   1      27.473  18.136   4.429  0.00  0.00    -0.384 N 
HETATM   29  H   UNK N   1      27.068  18.017   3.538  0.00  0.00     0.157 HD
HETATM   30  H   UNK N   1      26.938  18.541   5.151  0.00  0.00     0.157 HD
ENDBRANCH  15  28
TORSDOF 8
ENDMDL
MODEL 3
REMARK VINA RESULT:      -6.5      4.502      6.465
REMARK  8 active torsions:
REMARK  status: ('A' for Active; 'I' for Inactive)
REMARK    1  A    between atoms: C_2  and  C_3 
REMARK    2  A    between atoms: N_8  and  C_9 
REMARK    3  A    between atoms: C_9  and  C_10 
REMARK    4  A    between atoms: C_10  and  C_11 
REMARK    5  A    between atoms: C_11  and  C_12 
REMARK    6  A    between atoms: C_12  and  N_13 
REMARK    7  A    between atoms: N_13  and  S_14 
REMARK    8  A    between atoms: C_26  and  N_27 
ROOT
HETATM    1  C   UNK N   1      32.831  16.007   5.210  0.00  0.00     0.084 A 
HETATM    2  N   UNK N   1      33.651  16.631   6.093  0.00  0.00    -0.341 N 
ATOM      3  HN  UNK N   1      34.670  16.681   6.077  1.00  0.00     0.167 HD
HETATM    4  C   UNK N   1      32.809  17.173   6.995  0.00  0.00     0.105 A 
HETATM    5  C   UNK N   1      31.519  16.878   6.668  0.00  0.00     0.079 A 
HETATM    6  N   UNK N   1      31.520  16.145   5.538  0.00  0.00    -0.334 N 
HETATM    7  C   UNK N   1      30.456  17.324   7.465  0.00  0.00     0.020 A 
HETATM    8  C   UNK N   1      29.116  17.041   7.178  0.00  0.00     0.016 A 
HETATM    9  C   UNK N   1      28.107  17.502   8.028  0.00  0.00     0.001 A 
HETATM   10  C   UNK N   1      28.431  18.252   9.163  0.00  0.00     0.002 A 
HETATM   11  C   UNK N   1      29.766  18.548   9.456  0.00  0.00     0.030 A 
HETATM   12  C   UNK N   1      30.786  18.090   8.617  0.00  0.00     0.046 A 
HETATM   13  N   UNK N   1      32.095  18.375   8.908  0.00  0.00    -0.340 N 
ATOM     14  HN  UNK N   1      32.311  18.932   9.736  1.00  0.00     0.167 HD
HETATM   15  C   UNK N   1      33.118  17.932   8.118  0.00  0.00     0.129 A 
ENDROOT
BRANCH   6  16
HETATM   16  C   UNK N   1      30.382  15.618   4.795  0.00  0.00     0.131 C 
BRANCH  16  17
HETATM   17  C   UNK N   1      29.965  16.575   3.689  0.00  0.00     0.022 C 
BRANCH  17  18
HETATM   18  C   UNK N   1      28.511  16.345   3.291  0.00  0.00     0.022 C 
BRANCH  18  19
HETATM   19  C   UNK N   1      27.562  17.374   3.903  0.00  0.00     0.132 C 
BRANCH  19  20
HETATM   20  N   UNK N   1      28.183  18.690   3.921  0.00  0.00    -0.320 N 
HETATM   21  H   UNK N   1      29.131  18.908   3.614  0.00  0.00     0.172 HD
BRANCH  20  22
HETATM   22  S   UNK N   1      27.015  19.843   4.563  0.00  0.00     0.222 S 
HETATM   23  O   UNK N   1      26.490  20.625   3.348  0.00  0.00    -0.206 OA
HETATM   24  O   UNK N   1      25.804  18.970   4.923  0.00  0.00    -0.206 OA
HETATM   25  C   UNK N   1      27.547  20.881   5.951  0.00  0.00     0.185 C 
ENDBRANCH  20  22
ENDBRANCH  19  20
ENDBRANCH  18  19
ENDBRANCH  17  18
ENDBRANCH  16  17
ENDBRANCH   6  16
BRANCH   1  26
HETATM   26  C   UNK N   1      33.341  15.235   4.034  0.00  0.00     0.072 C 
HETATM   27  C   UNK N   1      33.410  16.111   2.799  0.00  0.00     0.013 C 
ENDBRANCH   1  26
BRANCH  15  28
HETATM   28  N   UNK N   1      34.454  18.243   8.440  0.00  0.00    -0.384 N 
HETATM   29  H   UNK N   1      34.732  18.400   9.373  0.00  0.00     0.157 HD
HETATM   30  H   UNK N   1      35.124  18.304   7.721  0.00  0.00     0.157 HD
ENDBRANCH  15  28
TORSDOF 8
ENDMDL
MODEL 4
REMARK VINA RESULT:      -6.4     14.427     16.752
REMARK  8 active torsions:
REMARK  status: ('A' for Active; 'I' for Inactive)
REMARK    1  A    between atoms: C_2  and  C_3 
REMARK    2  A    between atoms: N_8  and  C_9 
REMARK    3  A    between atoms: C_9  and  C_10 
REMARK    4  A    between atoms: C_10  and  C_11 
REMARK    5  A    between atoms: C_11  and  C_12 
REMARK    6  A    between atoms: C_12  and  N_13 
REMARK    7  A    between atoms: N_13  and  S_14 
REMARK    8  A    between atoms: C_26  and  N_27 
ROOT
HETATM    1  C   UNK N   1      26.519  25.357  -7.691  0.00  0.00     0.084 A 
HETATM    2  N   UNK N   1      27.444  26.010  -8.438  0.00  0.00    -0.341 N 
ATOM      3  HN  UNK N   1      27.874  25.706  -9.312  1.00  0.00     0.167 HD
HETATM    4  C   UNK N   1      27.664  27.154  -7.761  0.00  0.00     0.105 A 
HETATM    5  C   UNK N   1      26.898  27.187  -6.635  0.00  0.00     0.079 A 
HETATM    6  N   UNK N   1      26.165  26.057  -6.583  0.00  0.00    -0.334 N 
HETATM    7  C   UNK N   1      26.958  28.276  -5.755  0.00  0.00     0.020 A 
HETATM    8  C   UNK N   1      26.199  28.353  -4.583  0.00  0.00     0.016 A 
HETATM    9  C   UNK N   1      26.324  29.462  -3.742  0.00  0.00     0.001 A 
HETATM   10  C   UNK N   1      27.202  30.500  -4.070  0.00  0.00     0.002 A 
HETATM   11  C   UNK N   1      27.960  30.438  -5.245  0.00  0.00     0.030 A 
HETATM   12  C   UNK N   1      27.848  29.333  -6.093  0.00  0.00     0.046 A 
HETATM   13  N   UNK N   1      28.596  29.269  -7.240  0.00  0.00    -0.340 N 
ATOM     14  HN  UNK N   1      29.224  30.041  -7.468  1.00  0.00     0.167 HD
HETATM   15  C   UNK N   1      28.522  28.198  -8.086  0.00  0.00     0.129 A 
ENDROOT
BRANCH   6  16
HETATM   16  C   UNK N   1      25.185  25.655  -5.581  0.00  0.00     0.131 C 
BRANCH  16  17
HETATM   17  C   UNK N   1      25.687  24.468  -4.775  0.00  0.00     0.022 C 
BRANCH  17  18
HETATM   18  C   UNK N   1      26.651  24.921  -3.683  0.00  0.00     0.022 C 
BRANCH  18  19
HETATM   19  C   UNK N   1      28.079  24.436  -3.920  0.00  0.00     0.132 C 
BRANCH  19  20
HETATM   20  N   UNK N   1      28.503  23.556  -2.841  0.00  0.00    -0.320 N 
HETATM   21  H   UNK N   1      27.890  23.100  -2.166  0.00  0.00     0.172 HD
BRANCH  20  22
HETATM   22  S   UNK N   1      30.259  23.413  -2.903  0.00  0.00     0.222 S 
HETATM   23  O   UNK N   1      30.795  24.853  -2.908  0.00  0.00    -0.206 OA
HETATM   24  O   UNK N   1      30.635  22.942  -1.490  0.00  0.00    -0.206 OA
HETATM   25  C   UNK N   1      30.962  22.346  -4.190  0.00  0.00     0.185 C 
ENDBRANCH  20  22
ENDBRANCH  19  20
ENDBRANCH  18  19
ENDBRANCH  17  18
ENDBRANCH  16  17
ENDBRANCH   6  16
BRANCH   1  26
HETATM   26  C   UNK N   1      25.988  24.006  -8.055  0.00  0.00     0.072 C 
HETATM   27  C   UNK N   1      27.053  22.941  -7.889  0.00  0.00     0.013 C 
ENDBRANCH   1  26
BRANCH  15  28
HETATM   28  N   UNK N   1      29.302  28.161  -9.259  0.00  0.00    -0.384 N 
HETATM   29  H   UNK N   1      29.163  28.811  -9.986  0.00  0.00     0.157 HD
HETATM   30  H   UNK N   1      29.999  27.472  -9.355  0.00  0.00     0.157 HD
ENDBRANCH  15  28
TORSDOF 8
ENDMDL
MODEL 5
REMARK VINA RESULT:      -6.4      5.791     10.607
REMARK  8 active torsions:
REMARK  status: ('A' for Active; 'I' for Inactive)
REMARK    1  A    between atoms: C_2  and  C_3 
REMARK    2  A    between atoms: N_8  and  C_9 
REMARK    3  A    between atoms: C_9  and  C_10 
REMARK    4  A    between atoms: C_10  and  C_11 
REMARK    5  A    between atoms: C_11  and  C_12 
REMARK    6  A    between atoms: C_12  and  N_13 
REMARK    7  A    between atoms: N_13  and  S_14 
REMARK    8  A    between atoms: C_26  and  N_27 
ROOT
HETATM    1  C   UNK N   1      37.311  12.048  12.525  0.00  0.00     0.084 A 
HETATM    2  N   UNK N   1      37.514  10.760  12.899  0.00  0.00    -0.341 N 
ATOM      3  HN  UNK N   1      37.900   9.998  12.341  1.00  0.00     0.167 HD
HETATM    4  C   UNK N   1      37.091  10.719  14.177  0.00  0.00     0.105 A 
HETATM    5  C   UNK N   1      36.640  11.946  14.562  0.00  0.00     0.079 A 
HETATM    6  N   UNK N   1      36.779  12.797  13.527  0.00  0.00    -0.334 N 
HETATM    7  C   UNK N   1      36.135  12.155  15.852  0.00  0.00     0.020 A 
HETATM    8  C   UNK N   1      35.652  13.392  16.292  0.00  0.00     0.016 A 
HETATM    9  C   UNK N   1      35.146  13.523  17.588  0.00  0.00     0.001 A 
HETATM   10  C   UNK N   1      35.124  12.423  18.451  0.00  0.00     0.002 A 
HETATM   11  C   UNK N   1      35.612  11.183  18.025  0.00  0.00     0.030 A 
HETATM   12  C   UNK N   1      36.118  11.036  16.731  0.00  0.00     0.046 A 
HETATM   13  N   UNK N   1      36.590   9.819  16.312  0.00  0.00    -0.340 N 
ATOM     14  HN  UNK N   1      36.576   9.030  16.959  1.00  0.00     0.167 HD
HETATM   15  C   UNK N   1      37.080   9.635  15.049  0.00  0.00     0.129 A 
ENDROOT
BRANCH   6  16
HETATM   16  C   UNK N   1      36.457  14.217  13.468  0.00  0.00     0.131 C 
BRANCH  16  17
HETATM   17  C   UNK N   1      35.446  14.500  12.368  0.00  0.00     0.022 C 
BRANCH  17  18
HETATM   18  C   UNK N   1      35.927  15.630  11.464  0.00  0.00     0.022 C 
BRANCH  18  19
HETATM   19  C   UNK N   1      35.034  15.827  10.241  0.00  0.00     0.132 C 
BRANCH  19  20
HETATM   20  N   UNK N   1      34.528  17.191  10.196  0.00  0.00    -0.320 N 
HETATM   21  H   UNK N   1      34.346  17.788  11.003  0.00  0.00     0.172 HD
BRANCH  20  22
HETATM   22  S   UNK N   1      34.288  17.636   8.508  0.00  0.00     0.222 S 
HETATM   23  O   UNK N   1      32.863  18.206   8.425  0.00  0.00    -0.206 OA
HETATM   24  O   UNK N   1      35.143  18.900   8.340  0.00  0.00    -0.206 OA
HETATM   25  C   UNK N   1      34.668  16.381   7.255  0.00  0.00     0.185 C 
ENDBRANCH  20  22
ENDBRANCH  19  20
ENDBRANCH  18  19
ENDBRANCH  17  18
ENDBRANCH  16  17
ENDBRANCH   6  16
BRANCH   1  26
HETATM   26  C   UNK N   1      37.619  12.554  11.152  0.00  0.00     0.072 C 
HETATM   27  C   UNK N   1      36.834  11.791  10.103  0.00  0.00     0.013 C 
ENDBRANCH   1  26
BRANCH  15  28
HETATM   28  N   UNK N   1      37.560   8.374  14.647  0.00  0.00    -0.384 N 
HETATM   29  H   UNK N   1      38.112   8.270  13.837  0.00  0.00     0.157 HD
HETATM   30  H   UNK N   1      37.340   7.579  15.185  0.00  0.00     0.157 HD
ENDBRANCH  15  28
TORSDOF 8
ENDMDL
MODEL 6
REMARK VINA RESULT:      -6.4      4.901      7.996
REMARK  8 active torsions:
REMARK  status: ('A' for Active; 'I' for Inactive)
REMARK    1  A    between atoms: C_2  and  C_3 
REMARK    2  A    between atoms: N_8  and  C_9 
REMARK    3  A    between atoms: C_9  and  C_10 
REMARK    4  A    between atoms: C_10  and  C_11 
REMARK    5  A    between atoms: C_11  and  C_12 
REMARK    6  A    between atoms: C_12  and  N_13 
REMARK    7  A    between atoms: N_13  and  S_14 
REMARK    8  A    between atoms: C_26  and  N_27 
ROOT
HETATM    1  C   UNK N   1      30.186  17.764   8.710  0.00  0.00     0.084 A 
HETATM    2  N   UNK N   1      31.503  17.917   8.996  0.00  0.00    -0.341 N 
ATOM      3  HN  UNK N   1      31.928  18.149   9.894  1.00  0.00     0.167 HD
HETATM    4  C   UNK N   1      32.122  17.688   7.822  0.00  0.00     0.105 A 
HETATM    5  C   UNK N   1      31.204  17.412   6.853  0.00  0.00     0.079 A 
HETATM    6  N   UNK N   1      29.976  17.451   7.404  0.00  0.00    -0.334 N 
HETATM    7  C   UNK N   1      31.605  17.148   5.537  0.00  0.00     0.020 A 
HETATM    8  C   UNK N   1      30.702  16.868   4.506  0.00  0.00     0.016 A 
HETATM    9  C   UNK N   1      31.171  16.634   3.211  0.00  0.00     0.001 A 
HETATM   10  C   UNK N   1      32.543  16.672   2.940  0.00  0.00     0.002 A 
HETATM   11  C   UNK N   1      33.456  16.943   3.965  0.00  0.00     0.030 A 
HETATM   12  C   UNK N   1      33.000  17.184   5.264  0.00  0.00     0.046 A 
HETATM   13  N   UNK N   1      33.896  17.456   6.267  0.00  0.00    -0.340 N 
ATOM     14  HN  UNK N   1      34.893  17.470   6.052  1.00  0.00     0.167 HD
HETATM   15  C   UNK N   1      33.485  17.709   7.546  0.00  0.00     0.129 A 
ENDROOT
BRANCH   6  16
HETATM   16  C   UNK N   1      28.686  17.200   6.772  0.00  0.00     0.131 C 
BRANCH  16  17
HETATM   17  C   UNK N   1      28.264  18.381   5.912  0.00  0.00     0.022 C 
BRANCH  17  18
HETATM   18  C   UNK N   1      27.662  19.489   6.769  0.00  0.00     0.022 C 
BRANCH  18  19
HETATM   19  C   UNK N   1      26.642  20.334   6.009  0.00  0.00     0.132 C 
BRANCH  19  20
HETATM   20  N   UNK N   1      25.563  19.497   5.507  0.00  0.00    -0.320 N 
HETATM   21  H   UNK N   1      24.956  18.902   6.071  0.00  0.00     0.172 HD
BRANCH  20  22
HETATM   22  S   UNK N   1      25.482  19.691   3.757  0.00  0.00     0.222 S 
HETATM   23  O   UNK N   1      26.811  20.347   3.348  0.00  0.00    -0.206 OA
HETATM   24  O   UNK N   1      25.661  18.261   3.225  0.00  0.00    -0.206 OA
HETATM   25  C   UNK N   1      24.007  20.495   3.075  0.00  0.00     0.185 C 
ENDBRANCH  20  22
ENDBRANCH  19  20
ENDBRANCH  18  19
ENDBRANCH  17  18
ENDBRANCH  16  17
ENDBRANCH   6  16
BRANCH   1  26
HETATM   26  C   UNK N   1      29.106  17.953   9.728  0.00  0.00     0.072 C 
HETATM   27  C   UNK N   1      28.990  16.739  10.628  0.00  0.00     0.013 C 
ENDBRANCH   1  26
BRANCH  15  28
HETATM   28  N   UNK N   1      34.428  17.983   8.556  0.00  0.00    -0.384 N 
HETATM   29  H   UNK N   1      34.575  17.356   9.302  0.00  0.00     0.157 HD
HETATM   30  H   UNK N   1      34.950  18.817   8.517  0.00  0.00     0.157 HD
ENDBRANCH  15  28
TORSDOF 8
ENDMDL
MODEL 7
REMARK VINA RESULT:      -6.2      2.782      4.801
REMARK  8 active torsions:
REMARK  status: ('A' for Active; 'I' for Inactive)
REMARK    1  A    between atoms: C_2  and  C_3 
REMARK    2  A    between atoms: N_8  and  C_9 
REMARK    3  A    between atoms: C_9  and  C_10 
REMARK    4  A    between atoms: C_10  and  C_11 
REMARK    5  A    between atoms: C_11  and  C_12 
REMARK    6  A    between atoms: C_12  and  N_13 
REMARK    7  A    between atoms: N_13  and  S_14 
REMARK    8  A    between atoms: C_26  and  N_27 
ROOT
HETATM    1  C   UNK N   1      28.560  18.086   7.052  0.00  0.00     0.084 A 
HETATM    2  N   UNK N   1      27.313  18.532   6.758  0.00  0.00    -0.341 N 
ATOM      3  HN  UNK N   1      26.747  19.203   7.278  1.00  0.00     0.167 HD
HETATM    4  C   UNK N   1      26.994  17.887   5.619  0.00  0.00     0.105 A 
HETATM    5  C   UNK N   1      28.017  17.070   5.241  0.00  0.00     0.079 A 
HETATM    6  N   UNK N   1      29.016  17.192   6.137  0.00  0.00    -0.334 N 
HETATM    7  C   UNK N   1      27.919  16.282   4.087  0.00  0.00     0.020 A 
HETATM    8  C   UNK N   1      28.937  15.422   3.661  0.00  0.00     0.016 A 
HETATM    9  C   UNK N   1      28.763  14.650   2.509  0.00  0.00     0.001 A 
HETATM   10  C   UNK N   1      27.576  14.737   1.775  0.00  0.00     0.002 A 
HETATM   11  C   UNK N   1      26.554  15.600   2.187  0.00  0.00     0.030 A 
HETATM   12  C   UNK N   1      26.713  16.375   3.339  0.00  0.00     0.046 A 
HETATM   13  N   UNK N   1      25.708  17.215   3.745  0.00  0.00    -0.340 N 
ATOM     14  HN  UNK N   1      24.853  17.273   3.191  1.00  0.00     0.167 HD
HETATM   15  C   UNK N   1      25.824  17.978   4.874  0.00  0.00     0.129 A 
ENDROOT
BRANCH   6  16
HETATM   16  C   UNK N   1      30.319  16.538   6.141  0.00  0.00     0.131 C 
BRANCH  16  17
HETATM   17  C   UNK N   1      31.336  17.347   5.352  0.00  0.00     0.022 C 
BRANCH  17  18
HETATM   18  C   UNK N   1      32.640  16.572   5.192  0.00  0.00     0.022 C 
BRANCH  18  19
HETATM   19  C   UNK N   1      33.836  17.300   5.800  0.00  0.00     0.132 C 
BRANCH  19  20
HETATM   20  N   UNK N   1      34.384  16.538   6.912  0.00  0.00    -0.320 N 
HETATM   21  H   UNK N   1      34.739  15.582   6.864  0.00  0.00     0.172 HD
BRANCH  20  22
HETATM   22  S   UNK N   1      34.332  17.549   8.354  0.00  0.00     0.222 S 
HETATM   23  O   UNK N   1      35.003  18.874   7.960  0.00  0.00    -0.206 OA
HETATM   24  O   UNK N   1      32.856  17.962   8.455  0.00  0.00    -0.206 OA
HETATM   25  C   UNK N   1      34.948  16.827   9.900  0.00  0.00     0.185 C 
ENDBRANCH  20  22
ENDBRANCH  19  20
ENDBRANCH  18  19
ENDBRANCH  17  18
ENDBRANCH  16  17
ENDBRANCH   6  16
BRANCH   1  26
HETATM   26  C   UNK N   1      29.313  18.524   8.268  0.00  0.00     0.072 C 
HETATM   27  C   UNK N   1      28.799  17.820   9.508  0.00  0.00     0.013 C 
ENDBRANCH   1  26
BRANCH  15  28
HETATM   28  N   UNK N   1      24.776  18.834   5.266  0.00  0.00    -0.384 N 
HETATM   29  H   UNK N   1      23.848  18.510   5.333  0.00  0.00     0.157 HD
HETATM   30  H   UNK N   1      24.974  19.775   5.477  0.00  0.00     0.157 HD
ENDBRANCH  15  28
TORSDOF 8
ENDMDL
MODEL 8
REMARK VINA RESULT:      -6.2     12.580     15.156
REMARK  8 active torsions:
REMARK  status: ('A' for Active; 'I' for Inactive)
REMARK    1  A    between atoms: C_2  and  C_3 
REMARK    2  A    between atoms: N_8  and  C_9 
REMARK    3  A    between atoms: C_9  and  C_10 
REMARK    4  A    between atoms: C_10  and  C_11 
REMARK    5  A    between atoms: C_11  and  C_12 
REMARK    6  A    between atoms: C_12  and  N_13 
REMARK    7  A    between atoms: N_13  and  S_14 
REMARK    8  A    between atoms: C_26  and  N_27 
ROOT
HETATM    1  C   UNK N   1      26.194  24.852  -5.648  0.00  0.00     0.084 A 
HETATM    2  N   UNK N   1      25.242  24.102  -6.257  0.00  0.00    -0.341 N 
ATOM      3  HN  UNK N   1      24.238  24.280  -6.307  1.00  0.00     0.167 HD
HETATM    4  C   UNK N   1      25.926  23.067  -6.782  0.00  0.00     0.105 A 
HETATM    5  C   UNK N   1      27.252  23.187  -6.493  0.00  0.00     0.079 A 
HETATM    6  N   UNK N   1      27.435  24.315  -5.781  0.00  0.00    -0.334 N 
HETATM    7  C   UNK N   1      28.172  22.222  -6.924  0.00  0.00     0.020 A 
HETATM    8  C   UNK N   1      29.541  22.294  -6.647  0.00  0.00     0.016 A 
HETATM    9  C   UNK N   1      30.399  21.285  -7.092  0.00  0.00     0.001 A 
HETATM   10  C   UNK N   1      29.895  20.203  -7.821  0.00  0.00     0.002 A 
HETATM   11  C   UNK N   1      28.529  20.124  -8.112  0.00  0.00     0.030 A 
HETATM   12  C   UNK N   1      27.659  21.124  -7.669  0.00  0.00     0.046 A 
HETATM   13  N   UNK N   1      26.319  21.043  -7.949  0.00  0.00    -0.340 N 
ATOM     14  HN  UNK N   1      25.972  20.251  -8.491  1.00  0.00     0.167 HD
HETATM   15  C   UNK N   1      25.437  21.995  -7.521  0.00  0.00     0.129 A 
ENDROOT
BRANCH   6  16
HETATM   16  C   UNK N   1      28.679  24.876  -5.267  0.00  0.00     0.131 C 
BRANCH  16  17
HETATM   17  C   UNK N   1      28.671  24.915  -3.748  0.00  0.00     0.022 C 
BRANCH  17  18
HETATM   18  C   UNK N   1      28.847  23.516  -3.166  0.00  0.00     0.022 C 
BRANCH  18  19
HETATM   19  C   UNK N   1      30.314  23.115  -3.032  0.00  0.00     0.132 C 
BRANCH  19  20
HETATM   20  N   UNK N   1      30.475  21.688  -3.272  0.00  0.00    -0.320 N 
HETATM   21  H   UNK N   1      29.727  20.995  -3.274  0.00  0.00     0.172 HD
BRANCH  20  22
HETATM   22  S   UNK N   1      32.183  21.365  -3.558  0.00  0.00     0.222 S 
HETATM   23  O   UNK N   1      32.756  22.654  -4.169  0.00  0.00    -0.206 OA
HETATM   24  O   UNK N   1      32.798  21.384  -2.151  0.00  0.00    -0.206 OA
HETATM   25  C   UNK N   1      32.603  19.854  -4.469  0.00  0.00     0.185 C 
ENDBRANCH  20  22
ENDBRANCH  19  20
ENDBRANCH  18  19
ENDBRANCH  17  18
ENDBRANCH  16  17
ENDBRANCH   6  16
BRANCH   1  26
HETATM   26  C   UNK N   1      25.882  26.109  -4.898  0.00  0.00     0.072 C 
HETATM   27  C   UNK N   1      24.899  26.970  -5.666  0.00  0.00     0.013 C 
ENDBRANCH   1  26
BRANCH  15  28
HETATM   28  N   UNK N   1      24.067  21.886  -7.825  0.00  0.00    -0.384 N 
HETATM   29  H   UNK N   1      23.660  22.413  -8.552  0.00  0.00     0.157 HD
HETATM   30  H   UNK N   1      23.502  21.271  -7.302  0.00  0.00     0.157 HD
ENDBRANCH  15  28
TORSDOF 8
ENDMDL
MODEL 9
REMARK VINA RESULT:      -6.1      4.032      5.783
REMARK  8 active torsions:
REMARK  status: ('A' for Active; 'I' for Inactive)
REMARK    1  A    between atoms: C_2  and  C_3 
REMARK    2  A    between atoms: N_8  and  C_9 
REMARK    3  A    between atoms: C_9  and  C_10 
REMARK    4  A    between atoms: C_10  and  C_11 
REMARK    5  A    between atoms: C_11  and  C_12 
REMARK    6  A    between atoms: C_12  and  N_13 
REMARK    7  A    between atoms: N_13  and  S_14 
REMARK    8  A    between atoms: C_26  and  N_27 
ROOT
HETATM    1  C   UNK N   1      31.583  17.220   7.699  0.00  0.00     0.084 A 
HETATM    2  N   UNK N   1      30.557  17.722   8.430  0.00  0.00    -0.341 N 
ATOM      3  HN  UNK N   1      30.580  18.071   9.388  1.00  0.00     0.167 HD
HETATM    4  C   UNK N   1      29.499  17.654   7.599  0.00  0.00     0.105 A 
HETATM    5  C   UNK N   1      29.875  17.121   6.402  0.00  0.00     0.079 A 
HETATM    6  N   UNK N   1      31.193  16.847   6.451  0.00  0.00    -0.334 N 
HETATM    7  C   UNK N   1      28.944  16.938   5.371  0.00  0.00     0.020 A 
HETATM    8  C   UNK N   1      29.278  16.388   4.129  0.00  0.00     0.016 A 
HETATM    9  C   UNK N   1      28.293  16.217   3.153  0.00  0.00     0.001 A 
HETATM   10  C   UNK N   1      26.973  16.600   3.410  0.00  0.00     0.002 A 
HETATM   11  C   UNK N   1      26.628  17.159   4.645  0.00  0.00     0.030 A 
HETATM   12  C   UNK N   1      27.602  17.332   5.632  0.00  0.00     0.046 A 
HETATM   13  N   UNK N   1      27.262  17.874   6.845  0.00  0.00    -0.340 N 
ATOM     14  HN  UNK N   1      26.296  18.156   7.010  1.00  0.00     0.167 HD
HETATM   15  C   UNK N   1      28.186  18.046   7.838  0.00  0.00     0.129 A 
ENDROOT
BRANCH   6  16
HETATM   16  C   UNK N   1      32.046  16.292   5.408  0.00  0.00     0.131 C 
BRANCH  16  17
HETATM   17  C   UNK N   1      32.619  17.394   4.531  0.00  0.00     0.022 C 
BRANCH  17  18
HETATM   18  C   UNK N   1      32.869  16.886   3.114  0.00  0.00     0.022 C 
BRANCH  18  19
HETATM   19  C   UNK N   1      33.291  15.419   3.081  0.00  0.00     0.132 C 
BRANCH  19  20
HETATM   20  N   UNK N   1      34.155  15.165   1.937  0.00  0.00    -0.320 N 
HETATM   21  H   UNK N   1      34.569  15.873   1.332  0.00  0.00     0.172 HD
BRANCH  20  22
HETATM   22  S   UNK N   1      34.363  13.422   1.779  0.00  0.00     0.222 S 
HETATM   23  O   UNK N   1      33.838  13.063   0.380  0.00  0.00    -0.206 OA
HETATM   24  O   UNK N   1      35.879  13.252   1.599  0.00  0.00    -0.206 OA
HETATM   25  C   UNK N   1      33.712  12.382   3.114  0.00  0.00     0.185 C 
ENDBRANCH  20  22
ENDBRANCH  19  20
ENDBRANCH  18  19
ENDBRANCH  17  18
ENDBRANCH  16  17
ENDBRANCH   6  16
BRANCH   1  26
HETATM   26  C   UNK N   1      32.971  17.077   8.238  0.00  0.00     0.072 C 
HETATM   27  C   UNK N   1      33.772  18.345   8.021  0.00  0.00     0.013 C 
ENDBRANCH   1  26
BRANCH  15  28
HETATM   28  N   UNK N   1      27.808  18.607   9.073  0.00  0.00    -0.384 N 
HETATM   29  H   UNK N   1      27.824  18.076   9.903  0.00  0.00     0.157 HD
HETATM   30  H   UNK N   1      27.522  19.549   9.109  0.00  0.00     0.157 HD
ENDBRANCH  15  28
TORSDOF 8
ENDMDL
