REMARK  6 active torsions:
REMARK  status: ('A' for Active; 'I' for Inactive)
REMARK    1  A    between atoms: C_2  and  C_3 
REMARK    2  A    between atoms: C_2  and  N_19 
REMARK       I    between atoms: C_3  and  N_5 
REMARK    3  A    between atoms: C_6  and  N_5 
REMARK       I    between atoms: N_19  and  C_20 
REMARK    4  A    between atoms: C_20  and  C_22 
REMARK    5  A    between atoms: C_22  and  C_23 
REMARK    6  A    between atoms: C_22  and  O_26 
ROOT
HETATM    1  C   UNK N   1       1.469  -1.489  -1.153  0.00  0.00     0.241 C 
HETATM    2  O   UNK N   1       2.118  -1.624  -2.178  0.00  0.00    -0.271 OA
HETATM    3  N   UNK N   1       0.351  -0.724  -1.179  0.00  0.00    -0.342 N 
HETATM    4  H   UNK N   1       0.062  -0.331  -2.034  0.00  0.00     0.163 HD
ENDROOT
BRANCH   3   5
HETATM    5  C   UNK N   1      -0.430  -0.468   0.008  0.00  0.00     0.211 C 
HETATM    6  C   UNK N   1      -1.609  -1.421   0.087  0.00  0.00    -0.020 A 
HETATM    7  C   UNK N   1      -1.296  -2.789   0.107  0.00  0.00     0.010 A 
HETATM    8  C   UNK N   1      -2.975  -1.037   0.094  0.00  0.00    -0.048 A 
HETATM    9  C   UNK N   1      -2.295  -3.760   0.137  0.00  0.00     0.001 A 
HETATM   10  C   UNK N   1      -3.633  -3.376   0.140  0.00  0.00     0.001 A 
HETATM   11  C   UNK N   1      -3.969  -2.023   0.118  0.00  0.00     0.008 A 
HETATM   12  C   UNK N   1      -3.429   0.381   0.068  0.00  0.00     0.059 C 
HETATM   13  C   UNK N   1      -2.659   1.187  -0.953  0.00  0.00     0.130 C 
HETATM   14  N   UNK N   1      -1.546   1.787  -0.269  0.00  0.00    -0.354 N 
HETATM   15  C   UNK N   1      -0.538   1.025   0.247  0.00  0.00     0.246 C 
HETATM   16  C   UNK N   1      -1.558   3.216  -0.079  0.00  0.00     0.152 C 
HETATM   17  O   UNK N   1       0.358   1.563   0.886  0.00  0.00    -0.271 OA
ENDBRANCH   3   5
BRANCH   1  18
HETATM   18  C   UNK N   1       1.923  -2.163   0.125  0.00  0.00     0.172 C 
HETATM   19  C   UNK N   1       2.098  -3.666  -0.041  0.00  0.00     0.042 C 
BRANCH  18  20
HETATM   20  N   UNK N   1       3.103  -1.519   0.666  0.00  0.00    -0.346 N 
HETATM   21  C   UNK N   1       4.311  -1.491   0.048  0.00  0.00     0.247 C 
HETATM   22  O   UNK N   1       4.503  -2.123  -0.981  0.00  0.00    -0.271 OA
HETATM   23  H   UNK N   1       3.024  -1.073   1.539  0.00  0.00     0.163 HD
BRANCH  21  24
HETATM   24  C   UNK N   1       5.360  -0.550   0.566  0.00  0.00     0.213 C 
BRANCH  24  25
HETATM   25  C   UNK N   1       6.755  -1.157   0.756  0.00  0.00     0.015 C 
HETATM   26  C   UNK N   1       6.760  -2.277   1.775  0.00  0.00     0.012 C 
HETATM   27  C   UNK N   1       7.375  -1.622  -0.553  0.00  0.00     0.012 C 
ENDBRANCH  24  25
BRANCH  24  28
HETATM   28  O   UNK N   1       5.436   0.556  -0.281  0.00  0.00    -0.386 OA
HETATM   29  H   UNK N   1       6.128   0.895  -0.870  0.00  0.00     0.210 HD
ENDBRANCH  24  28
ENDBRANCH  21  24
ENDBRANCH  18  20
ENDBRANCH   1  18
TORSDOF 6
