MODEL 1
REMARK VINA RESULT:      -8.5      0.000      0.000
REMARK  18 active torsions:
REMARK  status: ('A' for Active; 'I' for Inactive)
REMARK    1  A    between atoms: C_5  and  O_64 
REMARK    2  A    between atoms: C_6  and  O_58 
REMARK    3  A    between atoms: C_16  and  O_18 
REMARK    4  A    between atoms: C_25  and  O_30 
REMARK    5  A    between atoms: O_30  and  C_31 
REMARK    6  A    between atoms: C_31  and  C_33 
REMARK    7  A    between atoms: C_33  and  N_35 
REMARK       I    between atoms: N_35  and  C_37 
REMARK    8  A    between atoms: C_37  and  C_39 
REMARK    9  A    between atoms: C_39  and  C_40 
REMARK   10  A    between atoms: C_40  and  C_41 
REMARK   11  A    between atoms: C_41  and  S_44 
REMARK   12  A    between atoms: S_44  and  S_45 
REMARK   13  A    between atoms: S_45  and  C_46 
REMARK   14  A    between atoms: C_46  and  C_47 
REMARK   15  A    between atoms: C_47  and  C_48 
REMARK   16  A    between atoms: C_48  and  C_49 
REMARK   17  A    between atoms: C_48  and  S_52 
REMARK       I    between atoms: C_49  and  N_51 
REMARK   18  A    between atoms: S_52  and  O_55 
ROOT
HETATM    1  C   UNK N   1      26.289  15.679   1.869  0.00  0.00     0.015 C 
HETATM    2  C   UNK N   1      26.890  14.746   2.913  0.00  0.00     0.043 C 
HETATM    3  C   UNK N   1      26.869  13.251   2.536  0.00  0.00     0.144 C 
HETATM    4  C   UNK N   1      25.532  12.785   1.974  0.00  0.00     0.097 C 
HETATM    5  C   UNK N   1      25.533  11.289   1.599  0.00  0.00     0.167 C 
HETATM    6  C   UNK N   1      25.052  10.339   2.754  0.00  0.00     0.199 C 
HETATM    7  C   UNK N   1      24.504  10.960   4.034  0.00  0.00     0.010 C 
HETATM    8  C   UNK N   1      23.353  10.705   4.716  0.00  0.00    -0.001 C 
HETATM    9  C   UNK N   1      22.270   9.738   4.395  0.00  0.00     0.002 C 
HETATM   10  C   UNK N   1      20.960   9.822   4.800  0.00  0.00    -0.080 C 
HETATM   11  C   UNK N   1      20.308  10.959   5.631  0.00  0.00     0.072 C 
HETATM   12  C   UNK N   1      20.555  12.351   5.106  0.00  0.00    -0.050 C 
HETATM   13  C   UNK N   1      20.447  13.529   5.925  0.00  0.00     0.034 C 
HETATM   14  C   UNK N   1      21.303  14.626   5.579  0.00  0.00     0.039 C 
HETATM   15  C   UNK N   1      22.408  14.279   4.844  0.00  0.00     0.188 C 
HETATM   16  C   UNK N   1      22.148  13.483   3.749  0.00  0.00     0.070 C 
HETATM   17  C   UNK N   1      21.252  12.447   3.902  0.00  0.00     0.041 C 
HETATM   18 Cl   UNK N   1      23.346  13.353   6.065  0.00  0.00    -0.111 Cl
HETATM   19  N   UNK N   1      21.339  15.918   6.215  0.00  0.00    -0.324 N 
HETATM   20  C   UNK N   1      22.124  16.953   5.699  0.00  0.00     0.226 C 
HETATM   21  O   UNK N   1      22.161  18.032   6.273  0.00  0.00    -0.273 OA
HETATM   22  C   UNK N   1      22.819  16.850   4.322  0.00  0.00     0.139 C 
HETATM   23  C   UNK N   1      24.345  16.563   4.115  0.00  0.00     0.177 C 
HETATM   24  C   UNK N   1      25.187  15.559   4.936  0.00  0.00     0.111 A 
HETATM   25  C   UNK N   1      26.461  14.969   4.374  0.00  0.00     0.165 A 
HETATM   26  O   UNK N   1      25.245  14.259   4.462  0.00  0.00    -0.366 OA
HETATM   27  C   UNK N   1      25.208  15.638   6.457  0.00  0.00     0.051 C 
HETATM   28  C   UNK N   1      20.522  16.157   7.383  0.00  0.00     0.159 C 
HETATM   29  C   UNK N   1      20.054   8.731   4.358  0.00  0.00     0.043 C 
HETATM   30  N   UNK N   1      26.854  10.864   1.136  0.00  0.00    -0.302 N 
HETATM   31  C   UNK N   1      27.950  11.675   1.149  0.00  0.00     0.363 C 
HETATM   32  O   UNK N   1      29.003  11.279   0.669  0.00  0.00    -0.238 OA
HETATM   33  O   UNK N   1      27.885  12.922   1.671  0.00  0.00    -0.298 OA
HETATM   34  H   UNK N   1      26.957   9.945   0.799  0.00  0.00     0.168 HD
ENDROOT
BRANCH  23  35
HETATM   35  O   UNK N   1      25.055  17.663   3.706  0.00  0.00    -0.311 OA
BRANCH  35  36
HETATM   36  C   UNK N   1      25.453  18.632   4.556  0.00  0.00     0.282 C 
HETATM   37  O   UNK N   1      24.642  19.384   5.075  0.00  0.00    -0.263 OA
BRANCH  36  38
HETATM   38  C   UNK N   1      26.886  18.966   4.638  0.00  0.00     0.182 C 
HETATM   39  C   UNK N   1      27.039  20.066   3.595  0.00  0.00     0.043 C 
BRANCH  38  40
HETATM   40  N   UNK N   1      27.283  19.428   5.977  0.00  0.00    -0.343 N 
HETATM   41  C   UNK N   1      26.815  20.705   6.492  0.00  0.00     0.153 C 
HETATM   42  C   UNK N   1      28.084  18.667   6.783  0.00  0.00     0.220 C 
HETATM   43  O   UNK N   1      28.497  19.139   7.833  0.00  0.00    -0.273 OA
BRANCH  42  44
HETATM   44  C   UNK N   1      28.508  17.261   6.425  0.00  0.00     0.104 C 
BRANCH  44  45
HETATM   45  C   UNK N   1      30.018  17.025   6.538  0.00  0.00     0.029 C 
BRANCH  45  46
HETATM   46  C   UNK N   1      30.834  16.380   5.419  0.00  0.00     0.012 C 
HETATM   47  C   UNK N   1      31.894  17.313   4.888  0.00  0.00     0.027 C 
HETATM   48  C   UNK N   1      29.842  16.268   4.283  0.00  0.00     0.027 C 
BRANCH  46  49
HETATM   49  S   UNK N   1      31.416  14.642   5.656  0.00  0.00    -0.088 SA
BRANCH  49  50
HETATM   50  S   UNK N   1      33.578  14.557   5.603  0.00  0.00    -0.097 SA
BRANCH  50  51
HETATM   51  C   UNK N   1      33.991  14.252   7.343  0.00  0.00     0.088 C 
BRANCH  51  52
HETATM   52  C   UNK N   1      33.544  15.363   8.249  0.00  0.00     0.042 C 
BRANCH  52  53
HETATM   53  C   UNK N   1      34.672  16.253   8.698  0.00  0.00     0.213 C 
BRANCH  53  54
HETATM   54  C   UNK N   1      34.718  16.299  10.204  0.00  0.00     0.235 C 
HETATM   55  O   UNK N   1      35.361  17.172  10.760  0.00  0.00    -0.272 OA
HETATM   56  N   UNK N   1      34.071  15.376  10.952  0.00  0.00    -0.369 N 
HETATM   57  H   UNK N   1      33.346  14.723  10.822  0.00  0.00     0.159 HD
HETATM   58  H   UNK N   1      34.418  15.351  11.872  0.00  0.00     0.159 HD
ENDBRANCH  53  54
BRANCH  53  59
HETATM   59  S   UNK N   1      34.379  17.923   8.027  0.00  0.00     0.107 S 
HETATM   60  O   UNK N   1      34.540  17.951   6.501  0.00  0.00    -0.601 OA
HETATM   61  O   UNK N   1      32.920  18.380   8.158  0.00  0.00    -0.601 OA
BRANCH  59  62
HETATM   62  O   UNK N   1      35.309  19.240   8.609  0.00  0.00    -0.295 OA
HETATM   63  H   UNK N   1      35.553  20.151   8.836  0.00  0.00     0.232 HD
ENDBRANCH  59  62
ENDBRANCH  53  59
ENDBRANCH  52  53
ENDBRANCH  51  52
ENDBRANCH  50  51
ENDBRANCH  49  50
ENDBRANCH  46  49
ENDBRANCH  45  46
ENDBRANCH  44  45
ENDBRANCH  42  44
ENDBRANCH  38  40
ENDBRANCH  36  38
ENDBRANCH  35  36
ENDBRANCH  23  35
BRANCH  16  64
HETATM   64  O   UNK N   1      22.813  13.707   2.596  0.00  0.00    -0.358 OA
HETATM   65  C   UNK N   1      22.238  14.337   1.519  0.00  0.00     0.209 C 
ENDBRANCH  16  64
BRANCH   5  66
HETATM   66  O   UNK N   1      24.650  11.164   0.523  0.00  0.00    -0.368 OA
HETATM   67  H   UNK N   1      23.886  11.287  -0.062  0.00  0.00     0.212 HD
ENDBRANCH   5  66
BRANCH   6  68
HETATM   68  O   UNK N   1      24.246   9.300   2.272  0.00  0.00    -0.382 OA
HETATM   69  C   UNK N   1      24.984   8.134   2.474  0.00  0.00     0.202 C 
ENDBRANCH   6  68
TORSDOF 18
ENDMDL
MODEL 2
REMARK VINA RESULT:      -8.4      2.510      5.184
REMARK  18 active torsions:
REMARK  status: ('A' for Active; 'I' for Inactive)
REMARK    1  A    between atoms: C_5  and  O_64 
REMARK    2  A    between atoms: C_6  and  O_58 
REMARK    3  A    between atoms: C_16  and  O_18 
REMARK    4  A    between atoms: C_25  and  O_30 
REMARK    5  A    between atoms: O_30  and  C_31 
REMARK    6  A    between atoms: C_31  and  C_33 
REMARK    7  A    between atoms: C_33  and  N_35 
REMARK       I    between atoms: N_35  and  C_37 
REMARK    8  A    between atoms: C_37  and  C_39 
REMARK    9  A    between atoms: C_39  and  C_40 
REMARK   10  A    between atoms: C_40  and  C_41 
REMARK   11  A    between atoms: C_41  and  S_44 
REMARK   12  A    between atoms: S_44  and  S_45 
REMARK   13  A    between atoms: S_45  and  C_46 
REMARK   14  A    between atoms: C_46  and  C_47 
REMARK   15  A    between atoms: C_47  and  C_48 
REMARK   16  A    between atoms: C_48  and  C_49 
REMARK   17  A    between atoms: C_48  and  S_52 
REMARK       I    between atoms: C_49  and  N_51 
REMARK   18  A    between atoms: S_52  and  O_55 
ROOT
HETATM    1  C   UNK N   1      23.170  17.680   5.608  0.00  0.00     0.015 C 
HETATM    2  C   UNK N   1      23.259  17.983   4.117  0.00  0.00     0.043 C 
HETATM    3  C   UNK N   1      21.971  17.693   3.319  0.00  0.00     0.144 C 
HETATM    4  C   UNK N   1      21.342  16.346   3.648  0.00  0.00     0.097 C 
HETATM    5  C   UNK N   1      20.055  16.077   2.843  0.00  0.00     0.167 C 
HETATM    6  C   UNK N   1      20.293  15.312   1.492  0.00  0.00     0.199 C 
HETATM    7  C   UNK N   1      21.690  14.788   1.181  0.00  0.00     0.010 C 
HETATM    8  C   UNK N   1      22.101  13.554   0.782  0.00  0.00    -0.001 C 
HETATM    9  C   UNK N   1      21.291  12.330   0.540  0.00  0.00     0.002 C 
HETATM   10  C   UNK N   1      21.741  11.033   0.601  0.00  0.00    -0.080 C 
HETATM   11  C   UNK N   1      23.167  10.553   0.980  0.00  0.00     0.072 C 
HETATM   12  C   UNK N   1      23.707  11.124   2.268  0.00  0.00    -0.050 C 
HETATM   13  C   UNK N   1      25.112  11.184   2.571  0.00  0.00     0.034 C 
HETATM   14  C   UNK N   1      25.540  12.272   3.401  0.00  0.00     0.039 C 
HETATM   15  C   UNK N   1      24.685  13.345   3.420  0.00  0.00     0.188 C 
HETATM   16  C   UNK N   1      23.364  13.028   3.651  0.00  0.00     0.070 C 
HETATM   17  C   UNK N   1      22.840  11.931   3.002  0.00  0.00     0.041 C 
HETATM   18 Cl   UNK N   1      24.883  13.962   1.744  0.00  0.00    -0.111 Cl
HETATM   19  N   UNK N   1      26.878  12.512   3.877  0.00  0.00    -0.324 N 
HETATM   20  C   UNK N   1      27.142  13.534   4.794  0.00  0.00     0.226 C 
HETATM   21  O   UNK N   1      28.291  13.737   5.162  0.00  0.00    -0.273 OA
HETATM   22  C   UNK N   1      26.013  14.313   5.506  0.00  0.00     0.139 C 
HETATM   23  C   UNK N   1      25.556  15.762   5.123  0.00  0.00     0.177 C 
HETATM   24  C   UNK N   1      25.415  16.306   3.683  0.00  0.00     0.111 A 
HETATM   25  C   UNK N   1      24.511  17.479   3.379  0.00  0.00     0.165 A 
HETATM   26  O   UNK N   1      24.184  16.142   3.071  0.00  0.00    -0.366 OA
HETATM   27  C   UNK N   1      26.580  16.206   2.707  0.00  0.00     0.051 C 
HETATM   28  C   UNK N   1      27.954  11.659   3.428  0.00  0.00     0.159 C 
HETATM   29  C   UNK N   1      20.745   9.969   0.317  0.00  0.00     0.043 C 
HETATM   30  N   UNK N   1      19.331  17.321   2.578  0.00  0.00    -0.302 N 
HETATM   31  C   UNK N   1      19.809  18.553   2.914  0.00  0.00     0.363 C 
HETATM   32  O   UNK N   1      19.113  19.542   2.738  0.00  0.00    -0.238 OA
HETATM   33  O   UNK N   1      21.041  18.695   3.457  0.00  0.00    -0.298 OA
HETATM   34  H   UNK N   1      18.454  17.265   2.135  0.00  0.00     0.168 HD
ENDROOT
BRANCH  23  35
HETATM   35  O   UNK N   1      25.949  16.714   6.029  0.00  0.00    -0.311 OA
BRANCH  35  36
HETATM   36  C   UNK N   1      27.097  16.622   6.731  0.00  0.00     0.282 C 
HETATM   37  O   UNK N   1      27.118  16.100   7.835  0.00  0.00    -0.263 OA
BRANCH  36  38
HETATM   38  C   UNK N   1      28.267  17.404   6.294  0.00  0.00     0.182 C 
HETATM   39  C   UNK N   1      27.636  18.577   5.555  0.00  0.00     0.043 C 
BRANCH  38  40
HETATM   40  N   UNK N   1      29.099  17.854   7.419  0.00  0.00    -0.343 N 
HETATM   41  C   UNK N   1      28.581  18.800   8.394  0.00  0.00     0.153 C 
HETATM   42  C   UNK N   1      30.372  17.387   7.595  0.00  0.00     0.220 C 
HETATM   43  O   UNK N   1      31.076  17.880   8.466  0.00  0.00    -0.273 OA
BRANCH  42  44
HETATM   44  C   UNK N   1      30.968  16.290   6.741  0.00  0.00     0.104 C 
BRANCH  44  45
HETATM   45  C   UNK N   1      32.170  16.743   5.907  0.00  0.00     0.029 C 
BRANCH  45  46
HETATM   46  C   UNK N   1      32.509  16.125   4.552  0.00  0.00     0.012 C 
HETATM   47  C   UNK N   1      32.671  17.173   3.480  0.00  0.00     0.027 C 
HETATM   48  C   UNK N   1      31.237  15.401   4.170  0.00  0.00     0.027 C 
BRANCH  46  49
HETATM   49  S   UNK N   1      33.793  14.796   4.498  0.00  0.00    -0.088 SA
BRANCH  49  50
HETATM   50  S   UNK N   1      35.183  15.023   6.142  0.00  0.00    -0.097 SA
BRANCH  50  51
HETATM   51  C   UNK N   1      34.339  14.135   7.481  0.00  0.00     0.088 C 
BRANCH  51  52
HETATM   52  C   UNK N   1      35.261  13.774   8.610  0.00  0.00     0.042 C 
BRANCH  52  53
HETATM   53  C   UNK N   1      35.925  14.970   9.239  0.00  0.00     0.213 C 
BRANCH  53  54
HETATM   54  C   UNK N   1      37.081  14.522  10.095  0.00  0.00     0.235 C 
HETATM   55  O   UNK N   1      38.170  14.327   9.582  0.00  0.00    -0.272 OA
HETATM   56  N   UNK N   1      36.929  14.313  11.423  0.00  0.00    -0.369 N 
HETATM   57  H   UNK N   1      36.285  14.567  12.123  0.00  0.00     0.159 HD
HETATM   58  H   UNK N   1      37.656  13.758  11.786  0.00  0.00     0.159 HD
ENDBRANCH  53  54
BRANCH  53  59
HETATM   59  S   UNK N   1      34.686  15.834  10.260  0.00  0.00     0.107 S 
HETATM   60  O   UNK N   1      34.010  14.879  11.252  0.00  0.00    -0.601 OA
HETATM   61  O   UNK N   1      35.304  16.849  11.231  0.00  0.00    -0.601 OA
BRANCH  59  62
HETATM   62  O   UNK N   1      33.404  16.679   9.495  0.00  0.00    -0.295 OA
HETATM   63  H   UNK N   1      32.542  17.105   9.371  0.00  0.00     0.232 HD
ENDBRANCH  59  62
ENDBRANCH  53  59
ENDBRANCH  52  53
ENDBRANCH  51  52
ENDBRANCH  50  51
ENDBRANCH  49  50
ENDBRANCH  46  49
ENDBRANCH  45  46
ENDBRANCH  44  45
ENDBRANCH  42  44
ENDBRANCH  38  40
ENDBRANCH  36  38
ENDBRANCH  35  36
ENDBRANCH  23  35
BRANCH  16  64
HETATM   64  O   UNK N   1      22.622  13.826   4.449  0.00  0.00    -0.358 OA
HETATM   65  C   UNK N   1      22.208  13.442   5.702  0.00  0.00     0.209 C 
ENDBRANCH  16  64
BRANCH   5  66
HETATM   66  O   UNK N   1      19.247  15.287   3.665  0.00  0.00    -0.368 OA
HETATM   67  H   UNK N   1      18.472  14.924   4.121  0.00  0.00     0.212 HD
ENDBRANCH   5  66
BRANCH   6  68
HETATM   68  O   UNK N   1      19.296  14.358   1.251  0.00  0.00    -0.382 OA
HETATM   69  C   UNK N   1      18.621  14.807   0.116  0.00  0.00     0.202 C 
ENDBRANCH   6  68
TORSDOF 18
ENDMDL
MODEL 3
REMARK VINA RESULT:      -8.2      2.379      3.768
REMARK  18 active torsions:
REMARK  status: ('A' for Active; 'I' for Inactive)
REMARK    1  A    between atoms: C_5  and  O_64 
REMARK    2  A    between atoms: C_6  and  O_58 
REMARK    3  A    between atoms: C_16  and  O_18 
REMARK    4  A    between atoms: C_25  and  O_30 
REMARK    5  A    between atoms: O_30  and  C_31 
REMARK    6  A    between atoms: C_31  and  C_33 
REMARK    7  A    between atoms: C_33  and  N_35 
REMARK       I    between atoms: N_35  and  C_37 
REMARK    8  A    between atoms: C_37  and  C_39 
REMARK    9  A    between atoms: C_39  and  C_40 
REMARK   10  A    between atoms: C_40  and  C_41 
REMARK   11  A    between atoms: C_41  and  S_44 
REMARK   12  A    between atoms: S_44  and  S_45 
REMARK   13  A    between atoms: S_45  and  C_46 
REMARK   14  A    between atoms: C_46  and  C_47 
REMARK   15  A    between atoms: C_47  and  C_48 
REMARK   16  A    between atoms: C_48  and  C_49 
REMARK   17  A    between atoms: C_48  and  S_52 
REMARK       I    between atoms: C_49  and  N_51 
REMARK   18  A    between atoms: S_52  and  O_55 
ROOT
HETATM    1  C   UNK N   1      25.012  15.285   6.188  0.00  0.00     0.015 C 
HETATM    2  C   UNK N   1      23.704  14.911   6.874  0.00  0.00     0.043 C 
HETATM    3  C   UNK N   1      23.206  13.480   6.584  0.00  0.00     0.144 C 
HETATM    4  C   UNK N   1      23.272  13.100   5.111  0.00  0.00     0.097 C 
HETATM    5  C   UNK N   1      22.775  11.666   4.843  0.00  0.00     0.167 C 
HETATM    6  C   UNK N   1      21.244  11.572   4.502  0.00  0.00     0.199 C 
HETATM    7  C   UNK N   1      20.452  12.862   4.322  0.00  0.00     0.010 C 
HETATM    8  C   UNK N   1      19.617  13.252   3.320  0.00  0.00    -0.001 C 
HETATM    9  C   UNK N   1      19.239  12.523   2.080  0.00  0.00     0.002 C 
HETATM   10  C   UNK N   1      18.800  13.088   0.907  0.00  0.00    -0.080 C 
HETATM   11  C   UNK N   1      18.651  14.601   0.595  0.00  0.00     0.072 C 
HETATM   12  C   UNK N   1      19.870  15.436   0.899  0.00  0.00    -0.050 C 
HETATM   13  C   UNK N   1      19.813  16.856   1.117  0.00  0.00     0.034 C 
HETATM   14  C   UNK N   1      20.791  17.403   2.012  0.00  0.00     0.039 C 
HETATM   15  C   UNK N   1      21.340  16.496   2.882  0.00  0.00     0.188 C 
HETATM   16  C   UNK N   1      21.792  15.333   2.297  0.00  0.00     0.070 C 
HETATM   17  C   UNK N   1      21.003  14.747   1.330  0.00  0.00     0.041 C 
HETATM   18 Cl   UNK N   1      19.926  16.143   3.934  0.00  0.00    -0.111 Cl
HETATM   19  N   UNK N   1      20.965  18.794   2.345  0.00  0.00    -0.324 N 
HETATM   20  C   UNK N   1      22.044  19.217   3.127  0.00  0.00     0.226 C 
HETATM   21  O   UNK N   1      22.155  20.399   3.421  0.00  0.00    -0.273 OA
HETATM   22  C   UNK N   1      23.213  18.275   3.494  0.00  0.00     0.139 C 
HETATM   23  C   UNK N   1      23.401  17.595   4.893  0.00  0.00     0.177 C 
HETATM   24  C   UNK N   1      22.268  16.995   5.756  0.00  0.00     0.111 A 
HETATM   25  C   UNK N   1      22.560  15.937   6.797  0.00  0.00     0.165 A 
HETATM   26  O   UNK N   1      21.966  15.659   5.547  0.00  0.00    -0.366 OA
HETATM   27  C   UNK N   1      21.046  17.832   6.110  0.00  0.00     0.051 C 
HETATM   28  C   UNK N   1      20.030  19.768   1.831  0.00  0.00     0.159 C 
HETATM   29  C   UNK N   1      18.476  12.155  -0.202  0.00  0.00     0.043 C 
HETATM   30  N   UNK N   1      23.078  10.785   5.971  0.00  0.00    -0.302 N 
HETATM   31  C   UNK N   1      23.630  11.224   7.139  0.00  0.00     0.363 C 
HETATM   32  O   UNK N   1      23.933  10.418   8.007  0.00  0.00    -0.238 OA
HETATM   33  O   UNK N   1      23.863  12.542   7.344  0.00  0.00    -0.298 OA
HETATM   34  H   UNK N   1      22.873   9.826   5.883  0.00  0.00     0.168 HD
ENDROOT
BRANCH  23  35
HETATM   35  O   UNK N   1      24.418  18.145   5.633  0.00  0.00    -0.311 OA
BRANCH  35  36
HETATM   36  C   UNK N   1      25.362  18.943   5.095  0.00  0.00     0.282 C 
HETATM   37  O   UNK N   1      25.055  19.957   4.486  0.00  0.00    -0.263 OA
BRANCH  36  38
HETATM   38  C   UNK N   1      26.745  18.446   4.993  0.00  0.00     0.182 C 
HETATM   39  C   UNK N   1      27.265  19.139   3.739  0.00  0.00     0.043 C 
BRANCH  38  40
HETATM   40  N   UNK N   1      27.554  18.780   6.174  0.00  0.00    -0.343 N 
HETATM   41  C   UNK N   1      27.490  20.106   6.767  0.00  0.00     0.153 C 
HETATM   42  C   UNK N   1      28.374  17.856   6.759  0.00  0.00     0.220 C 
HETATM   43  O   UNK N   1      29.127  18.207   7.658  0.00  0.00    -0.273 OA
BRANCH  42  44
HETATM   44  C   UNK N   1      28.413  16.406   6.331  0.00  0.00     0.104 C 
BRANCH  44  45
HETATM   45  C   UNK N   1      29.008  16.192   4.935  0.00  0.00     0.029 C 
BRANCH  45  46
HETATM   46  C   UNK N   1      30.507  16.027   4.698  0.00  0.00     0.012 C 
HETATM   47  C   UNK N   1      31.269  17.290   5.015  0.00  0.00     0.027 C 
HETATM   48  C   UNK N   1      30.611  15.902   3.194  0.00  0.00     0.027 C 
BRANCH  46  49
HETATM   49  S   UNK N   1      31.322  14.487   5.315  0.00  0.00    -0.088 SA
BRANCH  49  50
HETATM   50  S   UNK N   1      33.475  14.671   5.191  0.00  0.00    -0.097 SA
BRANCH  50  51
HETATM   51  C   UNK N   1      33.990  14.288   6.889  0.00  0.00     0.088 C 
BRANCH  51  52
HETATM   52  C   UNK N   1      33.521  15.311   7.883  0.00  0.00     0.042 C 
BRANCH  52  53
HETATM   53  C   UNK N   1      34.633  16.175   8.413  0.00  0.00     0.213 C 
BRANCH  53  54
HETATM   54  C   UNK N   1      34.697  16.061   9.915  0.00  0.00     0.235 C 
HETATM   55  O   UNK N   1      34.483  14.985  10.447  0.00  0.00    -0.272 OA
HETATM   56  N   UNK N   1      34.971  17.138  10.687  0.00  0.00    -0.369 N 
HETATM   57  H   UNK N   1      35.371  18.029  10.565  0.00  0.00     0.159 HD
HETATM   58  H   UNK N   1      34.695  16.991  11.621  0.00  0.00     0.159 HD
ENDBRANCH  53  54
BRANCH  53  59
HETATM   59  S   UNK N   1      34.292  17.899   7.928  0.00  0.00     0.107 S 
HETATM   60  O   UNK N   1      34.299  18.066   6.403  0.00  0.00    -0.601 OA
HETATM   61  O   UNK N   1      32.859  18.345   8.247  0.00  0.00    -0.601 OA
BRANCH  59  62
HETATM   62  O   UNK N   1      35.290  19.157   8.530  0.00  0.00    -0.295 OA
HETATM   63  H   UNK N   1      35.961  19.857   8.545  0.00  0.00     0.232 HD
ENDBRANCH  59  62
ENDBRANCH  53  59
ENDBRANCH  52  53
ENDBRANCH  51  52
ENDBRANCH  50  51
ENDBRANCH  49  50
ENDBRANCH  46  49
ENDBRANCH  45  46
ENDBRANCH  44  45
ENDBRANCH  42  44
ENDBRANCH  38  40
ENDBRANCH  36  38
ENDBRANCH  35  36
ENDBRANCH  23  35
BRANCH  16  64
HETATM   64  O   UNK N   1      22.948  14.784   2.725  0.00  0.00    -0.358 OA
HETATM   65  C   UNK N   1      24.124  14.888   2.021  0.00  0.00     0.209 C 
ENDBRANCH  16  64
BRANCH   5  66
HETATM   66  O   UNK N   1      23.504  11.207   3.743  0.00  0.00    -0.368 OA
HETATM   67  H   UNK N   1      24.208  10.818   3.201  0.00  0.00     0.212 HD
ENDBRANCH   5  66
BRANCH   6  68
HETATM   68  O   UNK N   1      20.992  10.640   3.488  0.00  0.00    -0.382 OA
HETATM   69  C   UNK N   1      20.488   9.513   4.136  0.00  0.00     0.202 C 
ENDBRANCH   6  68
TORSDOF 18
ENDMDL
MODEL 4
REMARK VINA RESULT:      -8.2      2.669      5.434
REMARK  18 active torsions:
REMARK  status: ('A' for Active; 'I' for Inactive)
REMARK    1  A    between atoms: C_5  and  O_64 
REMARK    2  A    between atoms: C_6  and  O_58 
REMARK    3  A    between atoms: C_16  and  O_18 
REMARK    4  A    between atoms: C_25  and  O_30 
REMARK    5  A    between atoms: O_30  and  C_31 
REMARK    6  A    between atoms: C_31  and  C_33 
REMARK    7  A    between atoms: C_33  and  N_35 
REMARK       I    between atoms: N_35  and  C_37 
REMARK    8  A    between atoms: C_37  and  C_39 
REMARK    9  A    between atoms: C_39  and  C_40 
REMARK   10  A    between atoms: C_40  and  C_41 
REMARK   11  A    between atoms: C_41  and  S_44 
REMARK   12  A    between atoms: S_44  and  S_45 
REMARK   13  A    between atoms: S_45  and  C_46 
REMARK   14  A    between atoms: C_46  and  C_47 
REMARK   15  A    between atoms: C_47  and  C_48 
REMARK   16  A    between atoms: C_48  and  C_49 
REMARK   17  A    between atoms: C_48  and  S_52 
REMARK       I    between atoms: C_49  and  N_51 
REMARK   18  A    between atoms: S_52  and  O_55 
ROOT
HETATM    1  C   UNK N   1      23.201  17.745   5.603  0.00  0.00     0.015 C 
HETATM    2  C   UNK N   1      23.284  18.050   4.112  0.00  0.00     0.043 C 
HETATM    3  C   UNK N   1      21.992  17.767   3.319  0.00  0.00     0.144 C 
HETATM    4  C   UNK N   1      21.359  16.421   3.649  0.00  0.00     0.097 C 
HETATM    5  C   UNK N   1      20.067  16.159   2.850  0.00  0.00     0.167 C 
HETATM    6  C   UNK N   1      20.296  15.395   1.496  0.00  0.00     0.199 C 
HETATM    7  C   UNK N   1      21.690  14.867   1.178  0.00  0.00     0.010 C 
HETATM    8  C   UNK N   1      22.094  13.631   0.774  0.00  0.00    -0.001 C 
HETATM    9  C   UNK N   1      21.278  12.411   0.535  0.00  0.00     0.002 C 
HETATM   10  C   UNK N   1      21.722  11.112   0.591  0.00  0.00    -0.080 C 
HETATM   11  C   UNK N   1      23.149  10.626   0.963  0.00  0.00     0.072 C 
HETATM   12  C   UNK N   1      23.697  11.192   2.249  0.00  0.00    -0.050 C 
HETATM   13  C   UNK N   1      25.104  11.247   2.545  0.00  0.00     0.034 C 
HETATM   14  C   UNK N   1      25.539  12.332   3.375  0.00  0.00     0.039 C 
HETATM   15  C   UNK N   1      24.688  13.407   3.401  0.00  0.00     0.188 C 
HETATM   16  C   UNK N   1      23.367  13.096   3.637  0.00  0.00     0.070 C 
HETATM   17  C   UNK N   1      22.836  12.001   2.989  0.00  0.00     0.041 C 
HETATM   18 Cl   UNK N   1      24.881  14.027   1.725  0.00  0.00    -0.111 Cl
HETATM   19  N   UNK N   1      26.880  12.566   3.846  0.00  0.00    -0.324 N 
HETATM   20  C   UNK N   1      27.153  13.584   4.763  0.00  0.00     0.226 C 
HETATM   21  O   UNK N   1      28.304  13.782   5.127  0.00  0.00    -0.273 OA
HETATM   22  C   UNK N   1      26.030  14.367   5.482  0.00  0.00     0.139 C 
HETATM   23  C   UNK N   1      25.577  15.819   5.104  0.00  0.00     0.177 C 
HETATM   24  C   UNK N   1      25.432  16.365   3.665  0.00  0.00     0.111 A 
HETATM   25  C   UNK N   1      24.530  17.543   3.367  0.00  0.00     0.165 A 
HETATM   26  O   UNK N   1      24.197  16.207   3.059  0.00  0.00    -0.366 OA
HETATM   27  C   UNK N   1      26.592  16.262   2.684  0.00  0.00     0.051 C 
HETATM   28  C   UNK N   1      27.951  11.708   3.391  0.00  0.00     0.159 C 
HETATM   29  C   UNK N   1      20.721  10.053   0.309  0.00  0.00     0.043 C 
HETATM   30  N   UNK N   1      19.347  17.406   2.590  0.00  0.00    -0.302 N 
HETATM   31  C   UNK N   1      19.831  18.636   2.926  0.00  0.00     0.363 C 
HETATM   32  O   UNK N   1      19.138  19.628   2.755  0.00  0.00    -0.238 OA
HETATM   33  O   UNK N   1      21.066  18.772   3.464  0.00  0.00    -0.298 OA
HETATM   34  H   UNK N   1      18.468  17.355   2.151  0.00  0.00     0.168 HD
ENDROOT
BRANCH  23  35
HETATM   35  O   UNK N   1      25.978  16.767   6.009  0.00  0.00    -0.311 OA
BRANCH  35  36
HETATM   36  C   UNK N   1      27.093  16.636   6.757  0.00  0.00     0.282 C 
HETATM   37  O   UNK N   1      27.067  16.045   7.826  0.00  0.00    -0.263 OA
BRANCH  36  38
HETATM   38  C   UNK N   1      28.276  17.450   6.425  0.00  0.00     0.182 C 
HETATM   39  C   UNK N   1      27.687  18.588   5.603  0.00  0.00     0.043 C 
BRANCH  38  40
HETATM   40  N   UNK N   1      28.974  17.947   7.620  0.00  0.00    -0.343 N 
HETATM   41  C   UNK N   1      28.289  18.798   8.580  0.00  0.00     0.153 C 
HETATM   42  C   UNK N   1      30.274  17.611   7.876  0.00  0.00     0.220 C 
HETATM   43  O   UNK N   1      30.858  18.147   8.809  0.00  0.00    -0.273 OA
BRANCH  42  44
HETATM   44  C   UNK N   1      31.044  16.614   7.039  0.00  0.00     0.104 C 
BRANCH  44  45
HETATM   45  C   UNK N   1      32.287  16.054   7.736  0.00  0.00     0.029 C 
BRANCH  45  46
HETATM   46  C   UNK N   1      33.704  16.475   7.352  0.00  0.00     0.012 C 
HETATM   47  C   UNK N   1      34.372  17.267   8.448  0.00  0.00     0.027 C 
HETATM   48  C   UNK N   1      33.481  17.487   6.251  0.00  0.00     0.027 C 
BRANCH  46  49
HETATM   49  S   UNK N   1      34.803  15.216   6.564  0.00  0.00    -0.088 SA
BRANCH  49  50
HETATM   50  S   UNK N   1      34.048  13.220   6.928  0.00  0.00    -0.097 SA
BRANCH  50  51
HETATM   51  C   UNK N   1      35.310  12.531   8.035  0.00  0.00     0.088 C 
BRANCH  51  52
HETATM   52  C   UNK N   1      34.951  12.676   9.486  0.00  0.00     0.042 C 
BRANCH  52  53
HETATM   53  C   UNK N   1      35.854  13.625  10.228  0.00  0.00     0.213 C 
BRANCH  53  54
HETATM   54  C   UNK N   1      36.910  12.848  10.972  0.00  0.00     0.235 C 
HETATM   55  O   UNK N   1      37.230  11.739  10.581  0.00  0.00    -0.272 OA
HETATM   56  N   UNK N   1      37.500  13.355  12.079  0.00  0.00    -0.369 N 
HETATM   57  H   UNK N   1      37.612  14.239  12.495  0.00  0.00     0.159 HD
HETATM   58  H   UNK N   1      37.934  12.649  12.611  0.00  0.00     0.159 HD
ENDBRANCH  53  54
BRANCH  53  59
HETATM   59  S   UNK N   1      34.833  14.578  11.400  0.00  0.00     0.107 S 
HETATM   60  O   UNK N   1      34.754  13.887  12.768  0.00  0.00    -0.601 OA
HETATM   61  O   UNK N   1      35.466  15.916  11.805  0.00  0.00    -0.601 OA
BRANCH  59  62
HETATM   62  O   UNK N   1      33.213  14.962  10.988  0.00  0.00    -0.295 OA
HETATM   63  H   UNK N   1      32.416  15.082  10.449  0.00  0.00     0.232 HD
ENDBRANCH  59  62
ENDBRANCH  53  59
ENDBRANCH  52  53
ENDBRANCH  51  52
ENDBRANCH  50  51
ENDBRANCH  49  50
ENDBRANCH  46  49
ENDBRANCH  45  46
ENDBRANCH  44  45
ENDBRANCH  42  44
ENDBRANCH  38  40
ENDBRANCH  36  38
ENDBRANCH  35  36
ENDBRANCH  23  35
BRANCH  16  64
HETATM   64  O   UNK N   1      22.633  13.895   4.440  0.00  0.00    -0.358 OA
HETATM   65  C   UNK N   1      22.378  13.591   5.756  0.00  0.00     0.209 C 
ENDBRANCH  16  64
BRANCH   5  66
HETATM   66  O   UNK N   1      19.260  15.371   3.674  0.00  0.00    -0.368 OA
HETATM   67  H   UNK N   1      18.700  15.081   4.411  0.00  0.00     0.212 HD
ENDBRANCH   5  66
BRANCH   6  68
HETATM   68  O   UNK N   1      19.294  14.446   1.258  0.00  0.00    -0.382 OA
HETATM   69  C   UNK N   1      18.641  14.878   0.104  0.00  0.00     0.202 C 
ENDBRANCH   6  68
TORSDOF 18
ENDMDL
MODEL 5
REMARK VINA RESULT:      -8.0      3.468     10.565
REMARK  18 active torsions:
REMARK  status: ('A' for Active; 'I' for Inactive)
REMARK    1  A    between atoms: C_5  and  O_64 
REMARK    2  A    between atoms: C_6  and  O_58 
REMARK    3  A    between atoms: C_16  and  O_18 
REMARK    4  A    between atoms: C_25  and  O_30 
REMARK    5  A    between atoms: O_30  and  C_31 
REMARK    6  A    between atoms: C_31  and  C_33 
REMARK    7  A    between atoms: C_33  and  N_35 
REMARK       I    between atoms: N_35  and  C_37 
REMARK    8  A    between atoms: C_37  and  C_39 
REMARK    9  A    between atoms: C_39  and  C_40 
REMARK   10  A    between atoms: C_40  and  C_41 
REMARK   11  A    between atoms: C_41  and  S_44 
REMARK   12  A    between atoms: S_44  and  S_45 
REMARK   13  A    between atoms: S_45  and  C_46 
REMARK   14  A    between atoms: C_46  and  C_47 
REMARK   15  A    between atoms: C_47  and  C_48 
REMARK   16  A    between atoms: C_48  and  C_49 
REMARK   17  A    between atoms: C_48  and  S_52 
REMARK       I    between atoms: C_49  and  N_51 
REMARK   18  A    between atoms: S_52  and  O_55 
ROOT
HETATM    1  C   UNK N   1      28.143  17.841   5.275  0.00  0.00     0.015 C 
HETATM    2  C   UNK N   1      28.136  16.819   6.405  0.00  0.00     0.043 C 
HETATM    3  C   UNK N   1      29.298  16.956   7.410  0.00  0.00     0.144 C 
HETATM    4  C   UNK N   1      30.656  17.149   6.747  0.00  0.00     0.097 C 
HETATM    5  C   UNK N   1      31.803  17.288   7.768  0.00  0.00     0.167 C 
HETATM    6  C   UNK N   1      32.498  15.929   8.139  0.00  0.00     0.199 C 
HETATM    7  C   UNK N   1      32.101  14.670   7.378  0.00  0.00     0.010 C 
HETATM    8  C   UNK N   1      32.872  13.731   6.763  0.00  0.00    -0.001 C 
HETATM    9  C   UNK N   1      34.353  13.669   6.642  0.00  0.00     0.002 C 
HETATM   10  C   UNK N   1      35.061  13.014   5.663  0.00  0.00    -0.080 C 
HETATM   11  C   UNK N   1      34.483  12.244   4.446  0.00  0.00     0.072 C 
HETATM   12  C   UNK N   1      33.472  13.011   3.631  0.00  0.00    -0.050 C 
HETATM   13  C   UNK N   1      32.508  12.372   2.775  0.00  0.00     0.034 C 
HETATM   14  C   UNK N   1      31.255  13.050   2.610  0.00  0.00     0.039 C 
HETATM   15  C   UNK N   1      30.952  13.941   3.608  0.00  0.00     0.188 C 
HETATM   16  C   UNK N   1      31.962  14.826   3.921  0.00  0.00     0.070 C 
HETATM   17  C   UNK N   1      33.247  14.335   4.005  0.00  0.00     0.041 C 
HETATM   18 Cl   UNK N   1      30.672  12.820   4.985  0.00  0.00    -0.111 Cl
HETATM   19  N   UNK N   1      30.161  12.635   1.770  0.00  0.00    -0.324 N 
HETATM   20  C   UNK N   1      29.042  13.454   1.589  0.00  0.00     0.226 C 
HETATM   21  O   UNK N   1      28.113  13.068   0.894  0.00  0.00    -0.273 OA
HETATM   22  C   UNK N   1      29.003  14.915   2.091  0.00  0.00     0.139 C 
HETATM   23  C   UNK N   1      28.243  15.393   3.376  0.00  0.00     0.177 C 
HETATM   24  C   UNK N   1      28.183  14.628   4.717  0.00  0.00     0.111 A 
HETATM   25  C   UNK N   1      27.894  15.351   6.014  0.00  0.00     0.165 A 
HETATM   26  O   UNK N   1      29.179  14.904   5.639  0.00  0.00    -0.366 OA
HETATM   27  C   UNK N   1      27.729  13.175   4.753  0.00  0.00     0.051 C 
HETATM   28  C   UNK N   1      30.240  11.371   1.075  0.00  0.00     0.159 C 
HETATM   29  C   UNK N   1      36.542  13.088   5.750  0.00  0.00     0.043 C 
HETATM   30  N   UNK N   1      31.342  17.950   8.989  0.00  0.00    -0.302 N 
HETATM   31  C   UNK N   1      30.040  18.289   9.213  0.00  0.00     0.363 C 
HETATM   32  O   UNK N   1      29.741  18.915  10.220  0.00  0.00    -0.238 OA
HETATM   33  O   UNK N   1      29.074  17.957   8.325  0.00  0.00    -0.298 OA
HETATM   34  H   UNK N   1      32.006  18.161   9.685  0.00  0.00     0.168 HD
ENDROOT
BRANCH  23  35
HETATM   35  O   UNK N   1      27.101  16.102   3.101  0.00  0.00    -0.311 OA
BRANCH  35  36
HETATM   36  C   UNK N   1      25.886  15.522   3.017  0.00  0.00     0.282 C 
HETATM   37  O   UNK N   1      25.563  14.880   2.030  0.00  0.00    -0.263 OA
BRANCH  36  38
HETATM   38  C   UNK N   1      24.845  15.902   3.989  0.00  0.00     0.182 C 
HETATM   39  C   UNK N   1      24.721  17.407   3.785  0.00  0.00     0.043 C 
BRANCH  38  40
HETATM   40  N   UNK N   1      23.569  15.214   3.748  0.00  0.00    -0.343 N 
HETATM   41  C   UNK N   1      22.642  15.700   2.738  0.00  0.00     0.153 C 
HETATM   42  C   UNK N   1      23.223  14.091   4.447  0.00  0.00     0.220 C 
HETATM   43  O   UNK N   1      22.100  13.623   4.310  0.00  0.00    -0.273 OA
BRANCH  42  44
HETATM   44  C   UNK N   1      24.163  13.403   5.411  0.00  0.00     0.104 C 
BRANCH  44  45
HETATM   45  C   UNK N   1      24.008  11.879   5.441  0.00  0.00     0.029 C 
BRANCH  45  46
HETATM   46  C   UNK N   1      23.526  11.127   6.680  0.00  0.00     0.012 C 
HETATM   47  C   UNK N   1      23.985   9.690   6.679  0.00  0.00     0.027 C 
HETATM   48  C   UNK N   1      22.031  11.035   6.474  0.00  0.00     0.027 C 
BRANCH  46  49
HETATM   49  S   UNK N   1      23.684  11.962   8.322  0.00  0.00    -0.088 SA
BRANCH  49  50
HETATM   50  S   UNK N   1      21.771  12.756   8.951  0.00  0.00    -0.097 SA
BRANCH  50  51
HETATM   51  C   UNK N   1      21.736  14.370   8.122  0.00  0.00     0.088 C 
BRANCH  51  52
HETATM   52  C   UNK N   1      20.509  14.563   7.279  0.00  0.00     0.042 C 
BRANCH  52  53
HETATM   53  C   UNK N   1      20.507  15.865   6.524  0.00  0.00     0.213 C 
BRANCH  53  54
HETATM   54  C   UNK N   1      20.193  17.001   7.464  0.00  0.00     0.235 C 
HETATM   55  O   UNK N   1      20.851  18.025   7.414  0.00  0.00    -0.272 OA
HETATM   56  N   UNK N   1      19.200  16.897   8.378  0.00  0.00    -0.369 N 
HETATM   57  H   UNK N   1      18.407  16.332   8.519  0.00  0.00     0.159 HD
HETATM   58  H   UNK N   1      19.299  17.566   9.093  0.00  0.00     0.159 HD
ENDBRANCH  53  54
BRANCH  53  59
HETATM   59  S   UNK N   1      19.239  15.762   5.218  0.00  0.00     0.107 S 
HETATM   60  O   UNK N   1      17.823  15.857   5.800  0.00  0.00    -0.601 OA
HETATM   61  O   UNK N   1      19.234  16.978   4.282  0.00  0.00    -0.601 OA
BRANCH  59  62
HETATM   62  O   UNK N   1      19.214  14.401   4.174  0.00  0.00    -0.295 OA
HETATM   63  H   UNK N   1      19.026  13.858   3.393  0.00  0.00     0.232 HD
ENDBRANCH  59  62
ENDBRANCH  53  59
ENDBRANCH  52  53
ENDBRANCH  51  52
ENDBRANCH  50  51
ENDBRANCH  49  50
ENDBRANCH  46  49
ENDBRANCH  45  46
ENDBRANCH  44  45
ENDBRANCH  42  44
ENDBRANCH  38  40
ENDBRANCH  36  38
ENDBRANCH  35  36
ENDBRANCH  23  35
BRANCH  16  64
HETATM   64  O   UNK N   1      31.655  16.112   4.186  0.00  0.00    -0.358 OA
HETATM   65  C   UNK N   1      32.108  17.157   3.416  0.00  0.00     0.209 C 
ENDBRANCH  16  64
BRANCH   5  66
HETATM   66  O   UNK N   1      32.750  18.123   7.169  0.00  0.00    -0.368 OA
HETATM   67  H   UNK N   1      33.537  18.432   6.695  0.00  0.00     0.212 HD
ENDBRANCH   5  66
BRANCH   6  68
HETATM   68  O   UNK N   1      33.887  16.070   8.259  0.00  0.00    -0.382 OA
HETATM   69  C   UNK N   1      34.166  15.850   9.608  0.00  0.00     0.202 C 
ENDBRANCH   6  68
TORSDOF 18
ENDMDL
MODEL 6
REMARK VINA RESULT:      -8.0      4.054     11.490
REMARK  18 active torsions:
REMARK  status: ('A' for Active; 'I' for Inactive)
REMARK    1  A    between atoms: C_5  and  O_64 
REMARK    2  A    between atoms: C_6  and  O_58 
REMARK    3  A    between atoms: C_16  and  O_18 
REMARK    4  A    between atoms: C_25  and  O_30 
REMARK    5  A    between atoms: O_30  and  C_31 
REMARK    6  A    between atoms: C_31  and  C_33 
REMARK    7  A    between atoms: C_33  and  N_35 
REMARK       I    between atoms: N_35  and  C_37 
REMARK    8  A    between atoms: C_37  and  C_39 
REMARK    9  A    between atoms: C_39  and  C_40 
REMARK   10  A    between atoms: C_40  and  C_41 
REMARK   11  A    between atoms: C_41  and  S_44 
REMARK   12  A    between atoms: S_44  and  S_45 
REMARK   13  A    between atoms: S_45  and  C_46 
REMARK   14  A    between atoms: C_46  and  C_47 
REMARK   15  A    between atoms: C_47  and  C_48 
REMARK   16  A    between atoms: C_48  and  C_49 
REMARK   17  A    between atoms: C_48  and  S_52 
REMARK       I    between atoms: C_49  and  N_51 
REMARK   18  A    between atoms: S_52  and  O_55 
ROOT
HETATM    1  C   UNK N   1      29.707  16.716   4.496  0.00  0.00     0.015 C 
HETATM    2  C   UNK N   1      29.640  15.896   5.778  0.00  0.00     0.043 C 
HETATM    3  C   UNK N   1      30.558  16.391   6.915  0.00  0.00     0.144 C 
HETATM    4  C   UNK N   1      31.972  16.720   6.454  0.00  0.00     0.097 C 
HETATM    5  C   UNK N   1      32.873  17.217   7.602  0.00  0.00     0.167 C 
HETATM    6  C   UNK N   1      33.680  16.078   8.322  0.00  0.00     0.199 C 
HETATM    7  C   UNK N   1      33.626  14.666   7.750  0.00  0.00     0.010 C 
HETATM    8  C   UNK N   1      34.629  13.797   7.448  0.00  0.00    -0.001 C 
HETATM    9  C   UNK N   1      36.099  13.983   7.579  0.00  0.00     0.002 C 
HETATM   10  C   UNK N   1      37.069  13.324   6.863  0.00  0.00    -0.080 C 
HETATM   11  C   UNK N   1      36.852  12.285   5.730  0.00  0.00     0.072 C 
HETATM   12  C   UNK N   1      35.910  12.724   4.638  0.00  0.00    -0.050 C 
HETATM   13  C   UNK N   1      35.230  11.800   3.770  0.00  0.00     0.034 C 
HETATM   14  C   UNK N   1      33.943  12.209   3.286  0.00  0.00     0.039 C 
HETATM   15  C   UNK N   1      33.329  13.174   4.042  0.00  0.00     0.188 C 
HETATM   16  C   UNK N   1      34.118  14.262   4.345  0.00  0.00     0.070 C 
HETATM   17  C   UNK N   1      35.424  14.028   4.723  0.00  0.00     0.041 C 
HETATM   18 Cl   UNK N   1      32.965  12.246   5.537  0.00  0.00    -0.111 Cl
HETATM   19  N   UNK N   1      33.102  11.481   2.371  0.00  0.00    -0.324 N 
HETATM   20  C   UNK N   1      31.928  12.049   1.867  0.00  0.00     0.226 C 
HETATM   21  O   UNK N   1      31.214  11.401   1.114  0.00  0.00    -0.273 OA
HETATM   22  C   UNK N   1      31.577  13.539   2.081  0.00  0.00     0.139 C 
HETATM   23  C   UNK N   1      30.527  14.064   3.117  0.00  0.00     0.177 C 
HETATM   24  C   UNK N   1      30.329  13.516   4.549  0.00  0.00     0.111 A 
HETATM   25  C   UNK N   1      29.697  14.366   5.628  0.00  0.00     0.165 A 
HETATM   26  O   UNK N   1      31.082  14.104   5.552  0.00  0.00    -0.366 OA
HETATM   27  C   UNK N   1      30.098  12.028   4.776  0.00  0.00     0.051 C 
HETATM   28  C   UNK N   1      33.498  10.160   1.941  0.00  0.00     0.159 C 
HETATM   29  C   UNK N   1      38.479  13.674   7.171  0.00  0.00     0.043 C 
HETATM   30  N   UNK N   1      32.096  17.965   8.592  0.00  0.00    -0.302 N 
HETATM   31  C   UNK N   1      30.740  18.096   8.539  0.00  0.00     0.363 C 
HETATM   32  O   UNK N   1      30.167  18.806   9.353  0.00  0.00    -0.238 OA
HETATM   33  O   UNK N   1      30.019  17.464   7.584  0.00  0.00    -0.298 OA
HETATM   34  H   UNK N   1      32.578  18.395   9.335  0.00  0.00     0.168 HD
ENDROOT
BRANCH  23  35
HETATM   35  O   UNK N   1      29.365  14.506   2.538  0.00  0.00    -0.311 OA
BRANCH  35  36
HETATM   36  C   UNK N   1      28.319  13.692   2.288  0.00  0.00     0.282 C 
HETATM   37  O   UNK N   1      28.483  12.606   1.755  0.00  0.00    -0.263 OA
BRANCH  36  38
HETATM   38  C   UNK N   1      26.952  14.231   2.396  0.00  0.00     0.182 C 
HETATM   39  C   UNK N   1      26.102  13.133   1.767  0.00  0.00     0.043 C 
BRANCH  38  40
HETATM   40  N   UNK N   1      26.556  14.495   3.787  0.00  0.00    -0.343 N 
HETATM   41  C   UNK N   1      26.636  13.448   4.793  0.00  0.00     0.153 C 
HETATM   42  C   UNK N   1      26.121  15.730   4.181  0.00  0.00     0.220 C 
HETATM   43  O   UNK N   1      25.680  15.876   5.313  0.00  0.00    -0.273 OA
BRANCH  42  44
HETATM   44  C   UNK N   1      26.139  16.935   3.268  0.00  0.00     0.104 C 
BRANCH  44  45
HETATM   45  C   UNK N   1      26.533  18.237   3.973  0.00  0.00     0.029 C 
BRANCH  45  46
HETATM   46  C   UNK N   1      25.643  19.478   3.962  0.00  0.00     0.012 C 
HETATM   47  C   UNK N   1      26.226  20.579   3.111  0.00  0.00     0.027 C 
HETATM   48  C   UNK N   1      25.761  20.005   5.375  0.00  0.00     0.027 C 
BRANCH  46  49
HETATM   49  S   UNK N   1      23.824  19.244   3.740  0.00  0.00    -0.088 SA
BRANCH  49  50
HETATM   50  S   UNK N   1      23.019  18.025   5.337  0.00  0.00    -0.097 SA
BRANCH  50  51
HETATM   51  C   UNK N   1      22.013  16.819   4.427  0.00  0.00     0.088 C 
BRANCH  51  52
HETATM   52  C   UNK N   1      21.823  17.192   2.985  0.00  0.00     0.042 C 
BRANCH  52  53
HETATM   53  C   UNK N   1      20.377  17.250   2.572  0.00  0.00     0.213 C 
BRANCH  53  54
HETATM   54  C   UNK N   1      20.208  16.619   1.213  0.00  0.00     0.235 C 
HETATM   55  O   UNK N   1      21.023  15.801   0.823  0.00  0.00    -0.272 OA
HETATM   56  N   UNK N   1      19.174  16.958   0.409  0.00  0.00    -0.369 N 
HETATM   57  H   UNK N   1      18.296  17.390   0.508  0.00  0.00     0.159 HD
HETATM   58  H   UNK N   1      19.348  16.704  -0.526  0.00  0.00     0.159 HD
ENDBRANCH  53  54
BRANCH  53  59
HETATM   59  S   UNK N   1      19.871  19.001   2.519  0.00  0.00     0.107 S 
HETATM   60  O   UNK N   1      18.347  19.149   2.617  0.00  0.00    -0.601 OA
HETATM   61  O   UNK N   1      20.305  19.794   3.759  0.00  0.00    -0.601 OA
BRANCH  59  62
HETATM   62  O   UNK N   1      20.340  19.973   1.187  0.00  0.00    -0.295 OA
HETATM   63  H   UNK N   1      20.902  20.364   0.499  0.00  0.00     0.232 HD
ENDBRANCH  59  62
ENDBRANCH  53  59
ENDBRANCH  52  53
ENDBRANCH  51  52
ENDBRANCH  50  51
ENDBRANCH  49  50
ENDBRANCH  46  49
ENDBRANCH  45  46
ENDBRANCH  44  45
ENDBRANCH  42  44
ENDBRANCH  38  40
ENDBRANCH  36  38
ENDBRANCH  35  36
ENDBRANCH  23  35
BRANCH  16  64
HETATM   64  O   UNK N   1      33.579  15.498   4.318  0.00  0.00    -0.358 OA
HETATM   65  C   UNK N   1      33.394  16.201   3.152  0.00  0.00     0.209 C 
ENDBRANCH  16  64
BRANCH   5  66
HETATM   66  O   UNK N   1      33.780  18.106   7.020  0.00  0.00    -0.368 OA
HETATM   67  H   UNK N   1      34.567  18.463   6.580  0.00  0.00     0.212 HD
ENDBRANCH   5  66
BRANCH   6  68
HETATM   68  O   UNK N   1      34.984  16.482   8.635  0.00  0.00    -0.382 OA
HETATM   69  C   UNK N   1      35.034  16.527  10.028  0.00  0.00     0.202 C 
ENDBRANCH   6  68
TORSDOF 18
ENDMDL
MODEL 7
REMARK VINA RESULT:      -7.9      2.545      5.390
REMARK  18 active torsions:
REMARK  status: ('A' for Active; 'I' for Inactive)
REMARK    1  A    between atoms: C_5  and  O_64 
REMARK    2  A    between atoms: C_6  and  O_58 
REMARK    3  A    between atoms: C_16  and  O_18 
REMARK    4  A    between atoms: C_25  and  O_30 
REMARK    5  A    between atoms: O_30  and  C_31 
REMARK    6  A    between atoms: C_31  and  C_33 
REMARK    7  A    between atoms: C_33  and  N_35 
REMARK       I    between atoms: N_35  and  C_37 
REMARK    8  A    between atoms: C_37  and  C_39 
REMARK    9  A    between atoms: C_39  and  C_40 
REMARK   10  A    between atoms: C_40  and  C_41 
REMARK   11  A    between atoms: C_41  and  S_44 
REMARK   12  A    between atoms: S_44  and  S_45 
REMARK   13  A    between atoms: S_45  and  C_46 
REMARK   14  A    between atoms: C_46  and  C_47 
REMARK   15  A    between atoms: C_47  and  C_48 
REMARK   16  A    between atoms: C_48  and  C_49 
REMARK   17  A    between atoms: C_48  and  S_52 
REMARK       I    between atoms: C_49  and  N_51 
REMARK   18  A    between atoms: S_52  and  O_55 
ROOT
HETATM    1  C   UNK N   1      24.983  17.465   5.527  0.00  0.00     0.015 C 
HETATM    2  C   UNK N   1      24.977  17.788   4.038  0.00  0.00     0.043 C 
HETATM    3  C   UNK N   1      23.576  17.899   3.404  0.00  0.00     0.144 C 
HETATM    4  C   UNK N   1      22.636  16.769   3.803  0.00  0.00     0.097 C 
HETATM    5  C   UNK N   1      21.240  16.899   3.163  0.00  0.00     0.167 C 
HETATM    6  C   UNK N   1      21.093  16.150   1.790  0.00  0.00     0.199 C 
HETATM    7  C   UNK N   1      22.240  15.271   1.307  0.00  0.00     0.010 C 
HETATM    8  C   UNK N   1      22.238  13.987   0.855  0.00  0.00    -0.001 C 
HETATM    9  C   UNK N   1      21.094  13.047   0.711  0.00  0.00     0.002 C 
HETATM   10  C   UNK N   1      21.165  11.675   0.710  0.00  0.00    -0.080 C 
HETATM   11  C   UNK N   1      22.434  10.803   0.909  0.00  0.00     0.072 C 
HETATM   12  C   UNK N   1      23.260  11.151   2.122  0.00  0.00    -0.050 C 
HETATM   13  C   UNK N   1      24.651  10.806   2.249  0.00  0.00     0.034 C 
HETATM   14  C   UNK N   1      25.461  11.700   3.024  0.00  0.00     0.039 C 
HETATM   15  C   UNK N   1      24.950  12.966   3.153  0.00  0.00     0.188 C 
HETATM   16  C   UNK N   1      23.630  13.022   3.545  0.00  0.00     0.070 C 
HETATM   17  C   UNK N   1      22.746  12.139   2.961  0.00  0.00     0.041 C 
HETATM   18 Cl   UNK N   1      25.115  13.568   1.468  0.00  0.00    -0.111 Cl
HETATM   19  N   UNK N   1      26.859  11.540   3.333  0.00  0.00    -0.324 N 
HETATM   20  C   UNK N   1      27.506  12.411   4.213  0.00  0.00     0.226 C 
HETATM   21  O   UNK N   1      28.700  12.272   4.438  0.00  0.00    -0.273 OA
HETATM   22  C   UNK N   1      26.733  13.447   5.062  0.00  0.00     0.139 C 
HETATM   23  C   UNK N   1      26.660  14.979   4.744  0.00  0.00     0.177 C 
HETATM   24  C   UNK N   1      26.509  15.595   3.334  0.00  0.00     0.111 A 
HETATM   25  C   UNK N   1      25.941  16.985   3.149  0.00  0.00     0.165 A 
HETATM   26  O   UNK N   1      25.218  15.803   2.879  0.00  0.00    -0.366 OA
HETATM   27  C   UNK N   1      27.476  15.212   2.222  0.00  0.00     0.051 C 
HETATM   28  C   UNK N   1      27.591  10.438   2.751  0.00  0.00     0.159 C 
HETATM   29  C   UNK N   1      19.884  10.942   0.548  0.00  0.00     0.043 C 
HETATM   30  N   UNK N   1      20.869  18.305   2.994  0.00  0.00    -0.302 N 
HETATM   31  C   UNK N   1      21.710  19.341   3.273  0.00  0.00     0.363 C 
HETATM   32  O   UNK N   1      21.304  20.492   3.188  0.00  0.00    -0.238 OA
HETATM   33  O   UNK N   1      22.987  19.114   3.660  0.00  0.00    -0.298 OA
HETATM   34  H   UNK N   1      19.966  18.513   2.662  0.00  0.00     0.168 HD
ENDROOT
BRANCH  23  35
HETATM   35  O   UNK N   1      27.408  15.748   5.598  0.00  0.00    -0.311 OA
BRANCH  35  36
HETATM   36  C   UNK N   1      28.756  15.774   5.564  0.00  0.00     0.282 C 
HETATM   37  O   UNK N   1      29.407  14.748   5.688  0.00  0.00    -0.263 OA
BRANCH  36  38
HETATM   38  C   UNK N   1      29.449  17.070   5.664  0.00  0.00     0.182 C 
HETATM   39  C   UNK N   1      28.305  18.074   5.597  0.00  0.00     0.043 C 
BRANCH  38  40
HETATM   40  N   UNK N   1      30.218  17.205   6.910  0.00  0.00    -0.343 N 
HETATM   41  C   UNK N   1      29.543  17.271   8.197  0.00  0.00     0.153 C 
HETATM   42  C   UNK N   1      31.585  17.254   6.901  0.00  0.00     0.220 C 
HETATM   43  O   UNK N   1      32.182  17.495   7.941  0.00  0.00    -0.273 OA
BRANCH  42  44
HETATM   44  C   UNK N   1      32.404  17.041   5.648  0.00  0.00     0.104 C 
BRANCH  44  45
HETATM   45  C   UNK N   1      32.556  15.569   5.253  0.00  0.00     0.029 C 
BRANCH  45  46
HETATM   46  C   UNK N   1      33.056  15.136   3.876  0.00  0.00     0.012 C 
HETATM   47  C   UNK N   1      33.193  16.306   2.934  0.00  0.00     0.027 C 
HETATM   48  C   UNK N   1      31.893  14.347   3.315  0.00  0.00     0.027 C 
BRANCH  46  49
HETATM   49  S   UNK N   1      34.464  13.942   3.797  0.00  0.00    -0.088 SA
BRANCH  49  50
HETATM   50  S   UNK N   1      35.972  14.454   5.263  0.00  0.00    -0.097 SA
BRANCH  50  51
HETATM   51  C   UNK N   1      35.234  13.835   6.801  0.00  0.00     0.088 C 
BRANCH  51  52
HETATM   52  C   UNK N   1      34.897  14.934   7.767  0.00  0.00     0.042 C 
BRANCH  52  53
HETATM   53  C   UNK N   1      34.488  14.427   9.124  0.00  0.00     0.213 C 
BRANCH  53  54
HETATM   54  C   UNK N   1      32.984  14.400   9.226  0.00  0.00     0.235 C 
HETATM   55  O   UNK N   1      32.344  13.658   8.502  0.00  0.00    -0.272 OA
HETATM   56  N   UNK N   1      32.329  15.200  10.099  0.00  0.00    -0.369 N 
HETATM   57  H   UNK N   1      32.547  15.715  10.909  0.00  0.00     0.159 HD
HETATM   58  H   UNK N   1      31.379  15.293   9.858  0.00  0.00     0.159 HD
ENDBRANCH  53  54
BRANCH  53  59
HETATM   59  S   UNK N   1      35.184  15.548  10.382  0.00  0.00     0.107 S 
HETATM   60  O   UNK N   1      34.961  15.009  11.800  0.00  0.00    -0.601 OA
HETATM   61  O   UNK N   1      36.717  15.616  10.350  0.00  0.00    -0.601 OA
BRANCH  59  62
HETATM   62  O   UNK N   1      34.671  17.184  10.429  0.00  0.00    -0.295 OA
HETATM   63  H   UNK N   1      34.570  18.113  10.170  0.00  0.00     0.232 HD
ENDBRANCH  59  62
ENDBRANCH  53  59
ENDBRANCH  52  53
ENDBRANCH  51  52
ENDBRANCH  50  51
ENDBRANCH  49  50
ENDBRANCH  46  49
ENDBRANCH  45  46
ENDBRANCH  44  45
ENDBRANCH  42  44
ENDBRANCH  38  40
ENDBRANCH  36  38
ENDBRANCH  35  36
ENDBRANCH  23  35
BRANCH  16  64
HETATM   64  O   UNK N   1      23.242  13.963   4.430  0.00  0.00    -0.358 OA
HETATM   65  C   UNK N   1      23.051  13.691   5.764  0.00  0.00     0.209 C 
ENDBRANCH  16  64
BRANCH   5  66
HETATM   66  O   UNK N   1      20.346  16.335   4.075  0.00  0.00    -0.368 OA
HETATM   67  H   UNK N   1      19.785  16.204   4.856  0.00  0.00     0.212 HD
ENDBRANCH   5  66
BRANCH   6  68
HETATM   68  O   UNK N   1      19.847  15.522   1.670  0.00  0.00    -0.382 OA
HETATM   69  C   UNK N   1      19.260  16.077   0.533  0.00  0.00     0.202 C 
ENDBRANCH   6  68
TORSDOF 18
ENDMDL
MODEL 8
REMARK VINA RESULT:      -7.9      1.982      2.724
REMARK  18 active torsions:
REMARK  status: ('A' for Active; 'I' for Inactive)
REMARK    1  A    between atoms: C_5  and  O_64 
REMARK    2  A    between atoms: C_6  and  O_58 
REMARK    3  A    between atoms: C_16  and  O_18 
REMARK    4  A    between atoms: C_25  and  O_30 
REMARK    5  A    between atoms: O_30  and  C_31 
REMARK    6  A    between atoms: C_31  and  C_33 
REMARK    7  A    between atoms: C_33  and  N_35 
REMARK       I    between atoms: N_35  and  C_37 
REMARK    8  A    between atoms: C_37  and  C_39 
REMARK    9  A    between atoms: C_39  and  C_40 
REMARK   10  A    between atoms: C_40  and  C_41 
REMARK   11  A    between atoms: C_41  and  S_44 
REMARK   12  A    between atoms: S_44  and  S_45 
REMARK   13  A    between atoms: S_45  and  C_46 
REMARK   14  A    between atoms: C_46  and  C_47 
REMARK   15  A    between atoms: C_47  and  C_48 
REMARK   16  A    between atoms: C_48  and  C_49 
REMARK   17  A    between atoms: C_48  and  S_52 
REMARK       I    between atoms: C_49  and  N_51 
REMARK   18  A    between atoms: S_52  and  O_55 
ROOT
HETATM    1  C   UNK N   1      27.784  13.673   4.077  0.00  0.00     0.015 C 
HETATM    2  C   UNK N   1      26.898  12.819   4.975  0.00  0.00     0.043 C 
HETATM    3  C   UNK N   1      26.298  11.571   4.297  0.00  0.00     0.144 C 
HETATM    4  C   UNK N   1      25.710  11.851   2.919  0.00  0.00     0.097 C 
HETATM    5  C   UNK N   1      25.119  10.591   2.256  0.00  0.00     0.167 C 
HETATM    6  C   UNK N   1      23.591  10.371   2.546  0.00  0.00     0.199 C 
HETATM    7  C   UNK N   1      22.823  11.454   3.295  0.00  0.00     0.010 C 
HETATM    8  C   UNK N   1      21.643  12.064   2.999  0.00  0.00    -0.001 C 
HETATM    9  C   UNK N   1      20.751  11.857   1.828  0.00  0.00     0.002 C 
HETATM   10  C   UNK N   1      19.856  12.766   1.316  0.00  0.00    -0.080 C 
HETATM   11  C   UNK N   1      19.614  14.218   1.807  0.00  0.00     0.072 C 
HETATM   12  C   UNK N   1      20.859  15.058   1.943  0.00  0.00    -0.050 C 
HETATM   13  C   UNK N   1      20.929  16.227   2.780  0.00  0.00     0.034 C 
HETATM   14  C   UNK N   1      22.208  16.523   3.356  0.00  0.00     0.039 C 
HETATM   15  C   UNK N   1      23.063  15.453   3.427  0.00  0.00     0.188 C 
HETATM   16  C   UNK N   1      23.195  14.738   2.256  0.00  0.00     0.070 C 
HETATM   17  C   UNK N   1      22.054  14.471   1.531  0.00  0.00     0.041 C 
HETATM   18 Cl   UNK N   1      22.240  14.448   4.669  0.00  0.00    -0.111 Cl
HETATM   19  N   UNK N   1      22.535  17.658   4.180  0.00  0.00    -0.324 N 
HETATM   20  C   UNK N   1      23.853  17.909   4.569  0.00  0.00     0.226 C 
HETATM   21  O   UNK N   1      24.102  18.863   5.293  0.00  0.00    -0.273 OA
HETATM   22  C   UNK N   1      25.049  17.128   3.977  0.00  0.00     0.139 C 
HETATM   23  C   UNK N   1      25.813  15.978   4.717  0.00  0.00     0.177 C 
HETATM   24  C   UNK N   1      25.157  14.881   5.586  0.00  0.00     0.111 A 
HETATM   25  C   UNK N   1      25.853  13.560   5.828  0.00  0.00     0.165 A 
HETATM   26  O   UNK N   1      24.770  13.720   4.937  0.00  0.00    -0.366 OA
HETATM   27  C   UNK N   1      24.226  15.262   6.729  0.00  0.00     0.051 C 
HETATM   28  C   UNK N   1      21.487  18.571   4.577  0.00  0.00     0.159 C 
HETATM   29  C   UNK N   1      19.066  12.331   0.136  0.00  0.00     0.043 C 
HETATM   30  N   UNK N   1      25.867   9.394   2.644  0.00  0.00    -0.302 N 
HETATM   31  C   UNK N   1      26.879   9.405   3.557  0.00  0.00     0.363 C 
HETATM   32  O   UNK N   1      27.515   8.382   3.770  0.00  0.00    -0.238 OA
HETATM   33  O   UNK N   1      27.202  10.539   4.223  0.00  0.00    -0.298 OA
HETATM   34  H   UNK N   1      25.627   8.537   2.223  0.00  0.00     0.168 HD
ENDROOT
BRANCH  23  35
HETATM   35  O   UNK N   1      27.060  16.347   5.155  0.00  0.00    -0.311 OA
BRANCH  35  36
HETATM   36  C   UNK N   1      27.772  17.337   4.578  0.00  0.00     0.282 C 
HETATM   37  O   UNK N   1      28.023  17.315   3.383  0.00  0.00    -0.263 OA
BRANCH  36  38
HETATM   38  C   UNK N   1      28.489  18.296   5.437  0.00  0.00     0.182 C 
HETATM   39  C   UNK N   1      27.434  19.360   5.714  0.00  0.00     0.043 C 
BRANCH  38  40
HETATM   40  N   UNK N   1      28.983  17.682   6.679  0.00  0.00    -0.343 N 
HETATM   41  C   UNK N   1      28.124  17.575   7.847  0.00  0.00     0.153 C 
HETATM   42  C   UNK N   1      30.251  17.179   6.768  0.00  0.00     0.220 C 
HETATM   43  O   UNK N   1      30.667  16.795   7.853  0.00  0.00    -0.273 OA
BRANCH  42  44
HETATM   44  C   UNK N   1      31.184  17.093   5.582  0.00  0.00     0.104 C 
BRANCH  44  45
HETATM   45  C   UNK N   1      31.700  15.677   5.306  0.00  0.00     0.029 C 
BRANCH  45  46
HETATM   46  C   UNK N   1      32.481  15.319   4.043  0.00  0.00     0.012 C 
HETATM   47  C   UNK N   1      32.697  16.521   3.156  0.00  0.00     0.027 C 
HETATM   48  C   UNK N   1      31.511  14.458   3.265  0.00  0.00     0.027 C 
BRANCH  46  49
HETATM   49  S   UNK N   1      33.971  14.240   4.216  0.00  0.00    -0.088 SA
BRANCH  49  50
HETATM   50  S   UNK N   1      33.864  13.094   6.049  0.00  0.00    -0.097 SA
BRANCH  50  51
HETATM   51  C   UNK N   1      34.861  14.098   7.186  0.00  0.00     0.088 C 
BRANCH  51  52
HETATM   52  C   UNK N   1      34.091  15.246   7.774  0.00  0.00     0.042 C 
BRANCH  52  53
HETATM   53  C   UNK N   1      34.965  16.247   8.480  0.00  0.00     0.213 C 
BRANCH  53  54
HETATM   54  C   UNK N   1      34.941  15.988   9.965  0.00  0.00     0.235 C 
HETATM   55  O   UNK N   1      34.824  14.847  10.376  0.00  0.00    -0.272 OA
HETATM   56  N   UNK N   1      35.029  17.005  10.853  0.00  0.00    -0.369 N 
HETATM   57  H   UNK N   1      35.326  17.944  10.847  0.00  0.00     0.159 HD
HETATM   58  H   UNK N   1      34.712  16.733  11.744  0.00  0.00     0.159 HD
ENDBRANCH  53  54
BRANCH  53  59
HETATM   59  S   UNK N   1      34.322  17.915   8.122  0.00  0.00     0.107 S 
HETATM   60  O   UNK N   1      35.340  19.001   8.490  0.00  0.00    -0.601 OA
HETATM   61  O   UNK N   1      34.156  18.190   6.621  0.00  0.00    -0.601 OA
BRANCH  59  62
HETATM   62  O   UNK N   1      32.842  18.416   8.829  0.00  0.00    -0.295 OA
HETATM   63  H   UNK N   1      32.062  18.962   9.014  0.00  0.00     0.232 HD
ENDBRANCH  59  62
ENDBRANCH  53  59
ENDBRANCH  52  53
ENDBRANCH  51  52
ENDBRANCH  50  51
ENDBRANCH  49  50
ENDBRANCH  46  49
ENDBRANCH  45  46
ENDBRANCH  44  45
ENDBRANCH  42  44
ENDBRANCH  38  40
ENDBRANCH  36  38
ENDBRANCH  35  36
ENDBRANCH  23  35
BRANCH  16  64
HETATM   64  O   UNK N   1      24.412  14.280   1.895  0.00  0.00    -0.358 OA
HETATM   65  C   UNK N   1      25.310  15.042   1.185  0.00  0.00     0.209 C 
ENDBRANCH  16  64
BRANCH   5  66
HETATM   66  O   UNK N   1      25.290  10.767   0.881  0.00  0.00    -0.368 OA
HETATM   67  H   UNK N   1      25.395  10.584  -0.066  0.00  0.00     0.212 HD
ENDBRANCH   5  66
BRANCH   6  68
HETATM   68  O   UNK N   1      22.907   9.912   1.414  0.00  0.00    -0.382 OA
HETATM   69  C   UNK N   1      22.514   8.610   1.722  0.00  0.00     0.202 C 
ENDBRANCH   6  68
TORSDOF 18
ENDMDL
MODEL 9
REMARK VINA RESULT:      -7.8      2.852      6.948
REMARK  18 active torsions:
REMARK  status: ('A' for Active; 'I' for Inactive)
REMARK    1  A    between atoms: C_5  and  O_64 
REMARK    2  A    between atoms: C_6  and  O_58 
REMARK    3  A    between atoms: C_16  and  O_18 
REMARK    4  A    between atoms: C_25  and  O_30 
REMARK    5  A    between atoms: O_30  and  C_31 
REMARK    6  A    between atoms: C_31  and  C_33 
REMARK    7  A    between atoms: C_33  and  N_35 
REMARK       I    between atoms: N_35  and  C_37 
REMARK    8  A    between atoms: C_37  and  C_39 
REMARK    9  A    between atoms: C_39  and  C_40 
REMARK   10  A    between atoms: C_40  and  C_41 
REMARK   11  A    between atoms: C_41  and  S_44 
REMARK   12  A    between atoms: S_44  and  S_45 
REMARK   13  A    between atoms: S_45  and  C_46 
REMARK   14  A    between atoms: C_46  and  C_47 
REMARK   15  A    between atoms: C_47  and  C_48 
REMARK   16  A    between atoms: C_48  and  C_49 
REMARK   17  A    between atoms: C_48  and  S_52 
REMARK       I    between atoms: C_49  and  N_51 
REMARK   18  A    between atoms: S_52  and  O_55 
ROOT
HETATM    1  C   UNK N   1      24.267  13.404   0.702  0.00  0.00     0.015 C 
HETATM    2  C   UNK N   1      22.808  12.979   0.807  0.00  0.00     0.043 C 
HETATM    3  C   UNK N   1      21.873  14.022   1.451  0.00  0.00     0.144 C 
HETATM    4  C   UNK N   1      22.438  14.642   2.723  0.00  0.00     0.097 C 
HETATM    5  C   UNK N   1      21.492  15.685   3.350  0.00  0.00     0.167 C 
HETATM    6  C   UNK N   1      20.505  15.093   4.420  0.00  0.00     0.199 C 
HETATM    7  C   UNK N   1      20.666  13.637   4.840  0.00  0.00     0.010 C 
HETATM    8  C   UNK N   1      20.740  13.079   6.079  0.00  0.00    -0.001 C 
HETATM    9  C   UNK N   1      20.699  13.744   7.409  0.00  0.00     0.002 C 
HETATM   10  C   UNK N   1      21.229  13.256   8.579  0.00  0.00    -0.080 C 
HETATM   11  C   UNK N   1      22.027  11.938   8.766  0.00  0.00     0.072 C 
HETATM   12  C   UNK N   1      23.177  11.750   7.809  0.00  0.00    -0.050 C 
HETATM   13  C   UNK N   1      23.741  10.462   7.504  0.00  0.00     0.034 C 
HETATM   14  C   UNK N   1      24.290  10.302   6.189  0.00  0.00     0.039 C 
HETATM   15  C   UNK N   1      23.813  11.191   5.259  0.00  0.00     0.188 C 
HETATM   16  C   UNK N   1      23.839  12.511   5.654  0.00  0.00     0.070 C 
HETATM   17  C   UNK N   1      23.442  12.808   6.940  0.00  0.00     0.041 C 
HETATM   18 Cl   UNK N   1      22.113  10.631   5.101  0.00  0.00    -0.111 Cl
HETATM   19  N   UNK N   1      24.950   9.130   5.673  0.00  0.00    -0.324 N 
HETATM   20  C   UNK N   1      25.563   9.144   4.417  0.00  0.00     0.226 C 
HETATM   21  O   UNK N   1      26.093   8.128   3.988  0.00  0.00    -0.273 OA
HETATM   22  C   UNK N   1      25.759  10.448   3.612  0.00  0.00     0.139 C 
HETATM   23  C   UNK N   1      24.883  10.875   2.385  0.00  0.00     0.177 C 
HETATM   24  C   UNK N   1      23.352  10.697   2.274  0.00  0.00     0.111 A 
HETATM   25  C   UNK N   1      22.533  11.563   1.341  0.00  0.00     0.165 A 
HETATM   26  O   UNK N   1      22.566  11.738   2.741  0.00  0.00    -0.366 OA
HETATM   27  C   UNK N   1      22.719   9.330   2.497  0.00  0.00     0.051 C 
HETATM   28  C   UNK N   1      25.009   7.935   6.484  0.00  0.00     0.159 C 
HETATM   29  C   UNK N   1      21.062  14.100   9.789  0.00  0.00     0.043 C 
HETATM   30  N   UNK N   1      20.728  16.388   2.318  0.00  0.00    -0.302 N 
HETATM   31  C   UNK N   1      20.784  16.068   0.994  0.00  0.00     0.363 C 
HETATM   32  O   UNK N   1      20.183  16.752   0.178  0.00  0.00    -0.238 OA
HETATM   33  O   UNK N   1      21.512  15.009   0.566  0.00  0.00    -0.298 OA
HETATM   34  H   UNK N   1      20.143  17.130   2.595  0.00  0.00     0.168 HD
ENDROOT
BRANCH  23  35
HETATM   35  O   UNK N   1      25.534  10.759   1.184  0.00  0.00    -0.311 OA
BRANCH  35  36
HETATM   36  C   UNK N   1      26.213   9.649   0.828  0.00  0.00     0.282 C 
HETATM   37  O   UNK N   1      25.626   8.656   0.424  0.00  0.00    -0.263 OA
BRANCH  36  38
HETATM   38  C   UNK N   1      27.635   9.532   1.194  0.00  0.00     0.182 C 
HETATM   39  C   UNK N   1      27.890   8.033   1.099  0.00  0.00     0.043 C 
BRANCH  38  40
HETATM   40  N   UNK N   1      28.515  10.291   0.293  0.00  0.00    -0.343 N 
HETATM   41  C   UNK N   1      28.907   9.746  -0.996  0.00  0.00     0.153 C 
HETATM   42  C   UNK N   1      28.976  11.534   0.629  0.00  0.00     0.220 C 
HETATM   43  O   UNK N   1      29.806  12.078  -0.086  0.00  0.00    -0.273 OA
BRANCH  42  44
HETATM   44  C   UNK N   1      28.519  12.271   1.868  0.00  0.00     0.104 C 
BRANCH  44  45
HETATM   45  C   UNK N   1      28.807  13.775   1.833  0.00  0.00     0.029 C 
BRANCH  45  46
HETATM   46  C   UNK N   1      29.720  14.460   2.847  0.00  0.00     0.012 C 
HETATM   47  C   UNK N   1      31.099  13.848   2.866  0.00  0.00     0.027 C 
HETATM   48  C   UNK N   1      29.123  14.062   4.179  0.00  0.00     0.027 C 
BRANCH  46  49
HETATM   49  S   UNK N   1      29.721  16.307   2.910  0.00  0.00    -0.088 SA
BRANCH  49  50
HETATM   50  S   UNK N   1      27.977  17.027   3.972  0.00  0.00    -0.097 SA
BRANCH  50  51
HETATM   51  C   UNK N   1      28.720  17.899   5.379  0.00  0.00     0.088 C 
BRANCH  51  52
HETATM   52  C   UNK N   1      28.936  17.007   6.567  0.00  0.00     0.042 C 
BRANCH  52  53
HETATM   53  C   UNK N   1      29.805  17.630   7.627  0.00  0.00     0.213 C 
BRANCH  53  54
HETATM   54  C   UNK N   1      30.811  16.622   8.121  0.00  0.00     0.235 C 
HETATM   55  O   UNK N   1      31.384  15.902   7.322  0.00  0.00    -0.272 OA
HETATM   56  N   UNK N   1      31.077  16.489   9.441  0.00  0.00    -0.369 N 
HETATM   57  H   UNK N   1      30.953  17.023  10.258  0.00  0.00     0.159 HD
HETATM   58  H   UNK N   1      31.510  15.627   9.636  0.00  0.00     0.159 HD
ENDBRANCH  53  54
BRANCH  53  59
HETATM   59  S   UNK N   1      28.729  18.168   8.997  0.00  0.00     0.107 S 
HETATM   60  O   UNK N   1      28.131  16.970   9.746  0.00  0.00    -0.601 OA
HETATM   61  O   UNK N   1      29.498  18.849  10.138  0.00  0.00    -0.601 OA
BRANCH  59  62
HETATM   62  O   UNK N   1      27.407  19.210   8.672  0.00  0.00    -0.295 OA
HETATM   63  H   UNK N   1      26.909  20.031   8.533  0.00  0.00     0.232 HD
ENDBRANCH  59  62
ENDBRANCH  53  59
ENDBRANCH  52  53
ENDBRANCH  51  52
ENDBRANCH  50  51
ENDBRANCH  49  50
ENDBRANCH  46  49
ENDBRANCH  45  46
ENDBRANCH  44  45
ENDBRANCH  42  44
ENDBRANCH  38  40
ENDBRANCH  36  38
ENDBRANCH  35  36
ENDBRANCH  23  35
BRANCH  16  64
HETATM   64  O   UNK N   1      24.192  13.460   4.763  0.00  0.00    -0.358 OA
HETATM   65  C   UNK N   1      25.455  14.001   4.717  0.00  0.00     0.209 C 
ENDBRANCH  16  64
BRANCH   5  66
HETATM   66  O   UNK N   1      22.316  16.623   3.976  0.00  0.00    -0.368 OA
HETATM   67  H   UNK N   1      23.103  17.103   4.276  0.00  0.00     0.212 HD
ENDBRANCH   5  66
BRANCH   6  68
HETATM   68  O   UNK N   1      20.345  15.953   5.513  0.00  0.00    -0.382 OA
HETATM   69  C   UNK N   1      18.982  16.243   5.561  0.00  0.00     0.202 C 
ENDBRANCH   6  68
TORSDOF 18
ENDMDL
