MODEL 1
REMARK VINA RESULT:      -8.4      0.000      0.000
REMARK  10 active torsions:
REMARK  status: ('A' for Active; 'I' for Inactive)
REMARK    1  A    between atoms: N_2  and  C_4 
REMARK    2  A    between atoms: C_5  and  C_35 
REMARK    3  A    between atoms: C_6  and  N_32 
REMARK    4  A    between atoms: C_9  and  C_12 
REMARK    5  A    between atoms: C_12  and  C_13 
REMARK    6  A    between atoms: C_16  and  N_19 
REMARK       I    between atoms: N_19  and  C_20 
REMARK    7  A    between atoms: C_20  and  C_22 
REMARK    8  A    between atoms: C_25  and  C_28 
REMARK    9  A    between atoms: C_35  and  C_36 
REMARK   10  A    between atoms: C_36  and  O_38 
ROOT
HETATM    1  C   UNK N   1      26.686  20.150   4.458  0.00  0.00    -0.051 A 
HETATM    2  C   UNK N   1      27.585  19.082   4.429  0.00  0.00     0.010 A 
HETATM    3  C   UNK N   1      28.195  18.672   5.606  0.00  0.00     0.030 A 
HETATM    4  C   UNK N   1      27.920  19.331   6.805  0.00  0.00     0.035 A 
HETATM    5  C   UNK N   1      27.121  20.484   6.801  0.00  0.00     0.030 A 
HETATM    6  C   UNK N   1      26.512  20.899   5.621  0.00  0.00     0.010 A 
ENDROOT
BRANCH   1   7
HETATM    7  C   UNK N   1      25.807  20.413   3.292  0.00  0.00     0.115 C 
BRANCH   7   8
HETATM    8  C   UNK N   1      24.518  19.720   3.426  0.00  0.00     0.088 A 
HETATM    9  N   UNK N   1      24.486  18.480   3.940  0.00  0.00    -0.331 N 
HETATM   10  C   UNK N   1      23.349  17.760   4.040  0.00  0.00     0.114 A 
ATOM     11  HN  UNK N   1      25.358  18.064   4.268  1.00  0.00     0.168 HD
HETATM   12  C   UNK N   1      22.132  18.346   3.565  0.00  0.00     0.040 A 
HETATM   13  C   UNK N   1      22.187  19.678   3.026  0.00  0.00     0.114 A 
HETATM   14  N   UNK N   1      23.392  20.306   2.982  0.00  0.00    -0.331 N 
ATOM     15  HN  UNK N   1      23.444  21.250   2.599  1.00  0.00     0.168 HD
BRANCH  10  16
HETATM   16  N   UNK N   1      23.463  16.447   4.615  0.00  0.00    -0.375 N 
HETATM   17  C   UNK N   1      23.900  15.352   3.783  0.00  0.00     0.150 C 
HETATM   18  C   UNK N   1      23.181  16.145   5.993  0.00  0.00     0.150 C 
ENDBRANCH  10  16
BRANCH  12  19
HETATM   19  C   UNK N   1      20.854  17.560   3.607  0.00  0.00     0.156 C 
BRANCH  19  20
HETATM   20  C   UNK N   1      20.454  17.051   2.260  0.00  0.00     0.143 C 
HETATM   21  O   UNK N   1      21.079  16.138   1.749  0.00  0.00    -0.650 OA
BRANCH  20  22
HETATM   22  O   UNK N   1      19.377  17.560   1.632  0.00  0.00    -0.776 OA
HETATM   23  H   UNK N   1      18.559  17.936   1.892  0.00  0.00     0.167 HD
ENDBRANCH  20  22
ENDBRANCH  19  20
ENDBRANCH  12  19
BRANCH  13  24
HETATM   24  N   UNK N   1      21.055  20.398   2.507  0.00  0.00    -0.375 N 
HETATM   25  C   UNK N   1      20.958  20.635   1.088  0.00  0.00     0.150 C 
HETATM   26  C   UNK N   1      19.985  20.900   3.325  0.00  0.00     0.150 C 
ENDBRANCH  13  24
ENDBRANCH   7   8
ENDBRANCH   1   7
BRANCH   4  27
HETATM   27  N   UNK N   1      27.969  18.536   7.966  0.00  0.00    -0.323 N 
HETATM   28  C   UNK N   1      29.045  18.357   8.764  0.00  0.00     0.256 C 
HETATM   29  O   UNK N   1      28.890  18.479   9.968  0.00  0.00    -0.267 OA
HETATM   30  H   UNK N   1      27.142  18.066   8.220  0.00  0.00     0.169 HD
BRANCH  28  31
HETATM   31  C   UNK N   1      30.295  17.743   8.276  0.00  0.00     0.032 A 
HETATM   32  C   UNK N   1      31.551  18.298   8.561  0.00  0.00     0.018 A 
HETATM   33  C   UNK N   1      32.667  17.912   7.808  0.00  0.00     0.017 A 
HETATM   34  C   UNK N   1      32.520  16.994   6.754  0.00  0.00     0.048 A 
HETATM   35  C   UNK N   1      31.283  16.394   6.527  0.00  0.00     0.017 A 
HETATM   36  C   UNK N   1      30.181  16.763   7.284  0.00  0.00     0.018 A 
BRANCH  34  37
HETATM   37  C   UNK N   1      33.633  16.727   5.792  0.00  0.00     0.417 C 
HETATM   38  F   UNK N   1      34.812  16.622   6.513  0.00  0.00    -0.166 F 
HETATM   39  F   UNK N   1      33.432  15.544   5.104  0.00  0.00    -0.166 F 
HETATM   40  F   UNK N   1      33.749  17.769   4.892  0.00  0.00    -0.166 F 
ENDBRANCH  34  37
ENDBRANCH  28  31
ENDBRANCH   4  27
TORSDOF 10
ENDMDL
MODEL 2
REMARK VINA RESULT:      -8.4      0.096      2.734
REMARK  10 active torsions:
REMARK  status: ('A' for Active; 'I' for Inactive)
REMARK    1  A    between atoms: N_2  and  C_4 
REMARK    2  A    between atoms: C_5  and  C_35 
REMARK    3  A    between atoms: C_6  and  N_32 
REMARK    4  A    between atoms: C_9  and  C_12 
REMARK    5  A    between atoms: C_12  and  C_13 
REMARK    6  A    between atoms: C_16  and  N_19 
REMARK       I    between atoms: N_19  and  C_20 
REMARK    7  A    between atoms: C_20  and  C_22 
REMARK    8  A    between atoms: C_25  and  C_28 
REMARK    9  A    between atoms: C_35  and  C_36 
REMARK   10  A    between atoms: C_36  and  O_38 
ROOT
HETATM    1  C   UNK N   1      26.688  20.242   4.483  0.00  0.00    -0.051 A 
HETATM    2  C   UNK N   1      27.575  19.165   4.430  0.00  0.00     0.010 A 
HETATM    3  C   UNK N   1      28.166  18.710   5.601  0.00  0.00     0.030 A 
HETATM    4  C   UNK N   1      27.885  19.335   6.817  0.00  0.00     0.035 A 
HETATM    5  C   UNK N   1      27.100  20.497   6.841  0.00  0.00     0.030 A 
HETATM    6  C   UNK N   1      26.510  20.956   5.668  0.00  0.00     0.010 A 
ENDROOT
BRANCH   1   7
HETATM    7  C   UNK N   1      25.826  20.553   3.316  0.00  0.00     0.115 C 
BRANCH   7   8
HETATM    8  C   UNK N   1      24.582  19.770   3.346  0.00  0.00     0.088 A 
HETATM    9  N   UNK N   1      23.442  20.329   2.909  0.00  0.00    -0.331 N 
HETATM   10  C   UNK N   1      22.252  19.694   2.960  0.00  0.00     0.114 A 
ATOM     11  HN  UNK N   1      23.476  21.272   2.522  1.00  0.00     0.168 HD
HETATM   12  C   UNK N   1      22.211  18.375   3.516  0.00  0.00     0.040 A 
HETATM   13  C   UNK N   1      23.445  17.793   3.971  0.00  0.00     0.114 A 
HETATM   14  N   UNK N   1      24.583  18.529   3.863  0.00  0.00    -0.331 N 
ATOM     15  HN  UNK N   1      25.464  18.128   4.185  1.00  0.00     0.168 HD
BRANCH  10  16
HETATM   16  N   UNK N   1      21.114  20.410   2.451  0.00  0.00    -0.375 N 
HETATM   17  C   UNK N   1      20.115  20.887   3.377  0.00  0.00     0.150 C 
HETATM   18  C   UNK N   1      20.905  20.703   1.059  0.00  0.00     0.150 C 
ENDBRANCH  10  16
BRANCH  12  19
HETATM   19  C   UNK N   1      20.901  17.654   3.641  0.00  0.00     0.156 C 
BRANCH  19  20
HETATM   20  C   UNK N   1      20.436  17.087   2.339  0.00  0.00     0.143 C 
HETATM   21  O   UNK N   1      21.013  16.126   1.858  0.00  0.00    -0.650 OA
BRANCH  20  22
HETATM   22  O   UNK N   1      19.355  17.596   1.720  0.00  0.00    -0.776 OA
HETATM   23  H   UNK N   1      18.436  17.648   1.898  0.00  0.00     0.167 HD
ENDBRANCH  20  22
ENDBRANCH  19  20
ENDBRANCH  12  19
BRANCH  13  24
HETATM   24  N   UNK N   1      23.565  16.484   4.555  0.00  0.00    -0.375 N 
HETATM   25  C   UNK N   1      23.959  15.373   3.724  0.00  0.00     0.150 C 
HETATM   26  C   UNK N   1      23.323  16.203   5.943  0.00  0.00     0.150 C 
ENDBRANCH  13  24
ENDBRANCH   7   8
ENDBRANCH   1   7
BRANCH   4  27
HETATM   27  N   UNK N   1      27.912  18.502   7.952  0.00  0.00    -0.323 N 
HETATM   28  C   UNK N   1      28.971  18.301   8.768  0.00  0.00     0.256 C 
HETATM   29  O   UNK N   1      28.788  18.384   9.971  0.00  0.00    -0.267 OA
HETATM   30  H   UNK N   1      27.081  18.021   8.172  0.00  0.00     0.169 HD
BRANCH  28  31
HETATM   31  C   UNK N   1      30.233  17.708   8.289  0.00  0.00     0.032 A 
HETATM   32  C   UNK N   1      31.480  18.259   8.618  0.00  0.00     0.018 A 
HETATM   33  C   UNK N   1      32.615  17.902   7.877  0.00  0.00     0.017 A 
HETATM   34  C   UNK N   1      32.495  17.016   6.793  0.00  0.00     0.048 A 
HETATM   35  C   UNK N   1      31.265  16.417   6.521  0.00  0.00     0.017 A 
HETATM   36  C   UNK N   1      30.146  16.759   7.265  0.00  0.00     0.018 A 
BRANCH  34  37
HETATM   37  C   UNK N   1      33.630  16.783   5.847  0.00  0.00     0.417 C 
HETATM   38  F   UNK N   1      33.404  15.584   5.190  0.00  0.00    -0.166 F 
HETATM   39  F   UNK N   1      33.716  17.791   4.905  0.00  0.00    -0.166 F 
HETATM   40  F   UNK N   1      34.821  16.697   6.541  0.00  0.00    -0.166 F 
ENDBRANCH  34  37
ENDBRANCH  28  31
ENDBRANCH   4  27
TORSDOF 10
ENDMDL
MODEL 3
REMARK VINA RESULT:      -8.3      4.423      9.727
REMARK  10 active torsions:
REMARK  status: ('A' for Active; 'I' for Inactive)
REMARK    1  A    between atoms: N_2  and  C_4 
REMARK    2  A    between atoms: C_5  and  C_35 
REMARK    3  A    between atoms: C_6  and  N_32 
REMARK    4  A    between atoms: C_9  and  C_12 
REMARK    5  A    between atoms: C_12  and  C_13 
REMARK    6  A    between atoms: C_16  and  N_19 
REMARK       I    between atoms: N_19  and  C_20 
REMARK    7  A    between atoms: C_20  and  C_22 
REMARK    8  A    between atoms: C_25  and  C_28 
REMARK    9  A    between atoms: C_35  and  C_36 
REMARK   10  A    between atoms: C_36  and  O_38 
ROOT
HETATM    1  C   UNK N   1      26.144  20.151   4.193  0.00  0.00    -0.051 A 
HETATM    2  C   UNK N   1      25.861  20.635   2.914  0.00  0.00     0.010 A 
HETATM    3  C   UNK N   1      24.581  20.491   2.399  0.00  0.00     0.030 A 
HETATM    4  C   UNK N   1      23.590  19.858   3.150  0.00  0.00     0.035 A 
HETATM    5  C   UNK N   1      23.917  19.259   4.376  0.00  0.00     0.030 A 
HETATM    6  C   UNK N   1      25.201  19.398   4.891  0.00  0.00     0.010 A 
ENDROOT
BRANCH   1   7
HETATM    7  C   UNK N   1      27.400  20.550   4.877  0.00  0.00     0.115 C 
BRANCH   7   8
HETATM    8  C   UNK N   1      28.143  19.378   5.358  0.00  0.00     0.088 A 
HETATM    9  N   UNK N   1      28.215  19.139   6.678  0.00  0.00    -0.331 N 
HETATM   10  C   UNK N   1      28.927  18.118   7.197  0.00  0.00     0.114 A 
ATOM     11  HN  UNK N   1      27.710  19.756   7.314  1.00  0.00     0.168 HD
HETATM   12  C   UNK N   1      29.642  17.264   6.297  0.00  0.00     0.040 A 
HETATM   13  C   UNK N   1      29.545  17.532   4.888  0.00  0.00     0.114 A 
HETATM   14  N   UNK N   1      28.792  18.590   4.483  0.00  0.00    -0.331 N 
ATOM     15  HN  UNK N   1      28.718  18.791   3.487  1.00  0.00     0.168 HD
BRANCH  10  16
HETATM   16  N   UNK N   1      28.910  17.979   8.628  0.00  0.00    -0.375 N 
HETATM   17  C   UNK N   1      29.831  18.759   9.420  0.00  0.00     0.150 C 
HETATM   18  C   UNK N   1      28.013  17.110   9.342  0.00  0.00     0.150 C 
ENDBRANCH  10  16
BRANCH  12  19
HETATM   19  C   UNK N   1      30.490  16.148   6.836  0.00  0.00     0.156 C 
BRANCH  19  20
HETATM   20  C   UNK N   1      31.771  16.641   7.427  0.00  0.00     0.143 C 
HETATM   21  O   UNK N   1      32.137  16.223   8.512  0.00  0.00    -0.650 OA
BRANCH  20  22
HETATM   22  O   UNK N   1      32.548  17.504   6.746  0.00  0.00    -0.776 OA
HETATM   23  H   UNK N   1      32.449  18.054   5.993  0.00  0.00     0.167 HD
ENDBRANCH  20  22
ENDBRANCH  19  20
ENDBRANCH  12  19
BRANCH  13  24
HETATM   24  N   UNK N   1      30.207  16.770   3.863  0.00  0.00    -0.375 N 
HETATM   25  C   UNK N   1      29.457  15.790   3.116  0.00  0.00     0.150 C 
HETATM   26  C   UNK N   1      31.592  16.929   3.518  0.00  0.00     0.150 C 
ENDBRANCH  13  24
ENDBRANCH   7   8
ENDBRANCH   1   7
BRANCH   4  27
HETATM   27  N   UNK N   1      22.276  20.320   2.943  0.00  0.00    -0.323 N 
HETATM   28  C   UNK N   1      21.146  19.743   3.407  0.00  0.00     0.256 C 
HETATM   29  O   UNK N   1      20.325  20.457   3.960  0.00  0.00    -0.267 OA
HETATM   30  H   UNK N   1      22.172  21.141   2.409  0.00  0.00     0.169 HD
BRANCH  28  31
HETATM   31  C   UNK N   1      20.739  18.380   3.017  0.00  0.00     0.032 A 
HETATM   32  C   UNK N   1      21.016  17.266   3.824  0.00  0.00     0.018 A 
HETATM   33  C   UNK N   1      20.943  15.978   3.278  0.00  0.00     0.017 A 
HETATM   34  C   UNK N   1      20.620  15.807   1.922  0.00  0.00     0.048 A 
HETATM   35  C   UNK N   1      20.275  16.915   1.148  0.00  0.00     0.017 A 
HETATM   36  C   UNK N   1      20.332  18.188   1.692  0.00  0.00     0.018 A 
BRANCH  34  37
HETATM   37  C   UNK N   1      20.747  14.477   1.251  0.00  0.00     0.417 C 
HETATM   38  F   UNK N   1      21.911  14.482   0.498  0.00  0.00    -0.166 F 
HETATM   39  F   UNK N   1      20.827  13.452   2.176  0.00  0.00    -0.166 F 
HETATM   40  F   UNK N   1      19.671  14.258   0.413  0.00  0.00    -0.166 F 
ENDBRANCH  34  37
ENDBRANCH  28  31
ENDBRANCH   4  27
TORSDOF 10
ENDMDL
MODEL 4
REMARK VINA RESULT:      -8.2      5.151      7.164
REMARK  10 active torsions:
REMARK  status: ('A' for Active; 'I' for Inactive)
REMARK    1  A    between atoms: N_2  and  C_4 
REMARK    2  A    between atoms: C_5  and  C_35 
REMARK    3  A    between atoms: C_6  and  N_32 
REMARK    4  A    between atoms: C_9  and  C_12 
REMARK    5  A    between atoms: C_12  and  C_13 
REMARK    6  A    between atoms: C_16  and  N_19 
REMARK       I    between atoms: N_19  and  C_20 
REMARK    7  A    between atoms: C_20  and  C_22 
REMARK    8  A    between atoms: C_25  and  C_28 
REMARK    9  A    between atoms: C_35  and  C_36 
REMARK   10  A    between atoms: C_36  and  O_38 
ROOT
HETATM    1  C   UNK N   1      25.991  14.987   5.592  0.00  0.00    -0.051 A 
HETATM    2  C   UNK N   1      26.490  15.804   6.609  0.00  0.00     0.010 A 
HETATM    3  C   UNK N   1      27.247  16.919   6.277  0.00  0.00     0.030 A 
HETATM    4  C   UNK N   1      27.516  17.212   4.939  0.00  0.00     0.035 A 
HETATM    5  C   UNK N   1      27.124  16.314   3.935  0.00  0.00     0.030 A 
HETATM    6  C   UNK N   1      26.369  15.195   4.266  0.00  0.00     0.010 A 
ENDROOT
BRANCH   1   7
HETATM    7  C   UNK N   1      24.947  13.978   5.896  0.00  0.00     0.115 C 
BRANCH   7   8
HETATM    8  C   UNK N   1      23.606  14.476   5.560  0.00  0.00     0.088 A 
HETATM    9  N   UNK N   1      23.068  14.167   4.368  0.00  0.00    -0.331 N 
HETATM   10  C   UNK N   1      21.869  14.636   3.966  0.00  0.00     0.114 A 
ATOM     11  HN  UNK N   1      23.589  13.554   3.741  1.00  0.00     0.168 HD
HETATM   12  C   UNK N   1      21.151  15.507   4.847  0.00  0.00     0.040 A 
HETATM   13  C   UNK N   1      21.741  15.817   6.121  0.00  0.00     0.114 A 
HETATM   14  N   UNK N   1      22.954  15.281   6.417  0.00  0.00    -0.331 N 
ATOM     15  HN  UNK N   1      23.384  15.496   7.317  1.00  0.00     0.168 HD
BRANCH  10  16
HETATM   16  N   UNK N   1      21.414  14.219   2.667  0.00  0.00    -0.375 N 
HETATM   17  C   UNK N   1      21.766  15.011   1.513  0.00  0.00     0.150 C 
HETATM   18  C   UNK N   1      20.629  13.037   2.430  0.00  0.00     0.150 C 
ENDBRANCH  10  16
BRANCH  12  19
HETATM   19  C   UNK N   1      19.838  16.093   4.417  0.00  0.00     0.156 C 
BRANCH  19  20
HETATM   20  C   UNK N   1      18.673  15.421   5.070  0.00  0.00     0.143 C 
HETATM   21  O   UNK N   1      17.984  16.042   5.862  0.00  0.00    -0.650 OA
BRANCH  20  22
HETATM   22  O   UNK N   1      18.350  14.155   4.751  0.00  0.00    -0.776 OA
HETATM   23  H   UNK N   1      18.565  13.301   5.073  0.00  0.00     0.167 HD
ENDBRANCH  20  22
ENDBRANCH  19  20
ENDBRANCH  12  19
BRANCH  13  24
HETATM   24  N   UNK N   1      21.147  16.677   7.110  0.00  0.00    -0.375 N 
HETATM   25  C   UNK N   1      20.694  16.112   8.357  0.00  0.00     0.150 C 
HETATM   26  C   UNK N   1      20.978  18.093   6.939  0.00  0.00     0.150 C 
ENDBRANCH  13  24
ENDBRANCH   7   8
ENDBRANCH   1   7
BRANCH   4  27
HETATM   27  N   UNK N   1      27.641  18.579   4.626  0.00  0.00    -0.323 N 
HETATM   28  C   UNK N   1      26.682  19.520   4.770  0.00  0.00     0.256 C 
HETATM   29  O   UNK N   1      26.985  20.565   5.322  0.00  0.00    -0.267 OA
HETATM   30  H   UNK N   1      28.509  18.877   4.269  0.00  0.00     0.169 HD
BRANCH  28  31
HETATM   31  C   UNK N   1      25.402  19.459   4.039  0.00  0.00     0.032 A 
HETATM   32  C   UNK N   1      25.050  20.423   3.083  0.00  0.00     0.018 A 
HETATM   33  C   UNK N   1      23.715  20.543   2.677  0.00  0.00     0.017 A 
HETATM   34  C   UNK N   1      22.731  19.718   3.247  0.00  0.00     0.048 A 
HETATM   35  C   UNK N   1      23.102  18.715   4.141  0.00  0.00     0.017 A 
HETATM   36  C   UNK N   1      24.426  18.586   4.531  0.00  0.00     0.018 A 
BRANCH  34  37
HETATM   37  C   UNK N   1      21.275  19.962   3.008  0.00  0.00     0.417 C 
HETATM   38  F   UNK N   1      20.628  19.948   4.234  0.00  0.00    -0.166 F 
HETATM   39  F   UNK N   1      21.060  21.191   2.412  0.00  0.00    -0.166 F 
HETATM   40  F   UNK N   1      20.748  18.964   2.210  0.00  0.00    -0.166 F 
ENDBRANCH  34  37
ENDBRANCH  28  31
ENDBRANCH   4  27
TORSDOF 10
ENDMDL
MODEL 5
REMARK VINA RESULT:      -8.0      7.116     10.651
REMARK  10 active torsions:
REMARK  status: ('A' for Active; 'I' for Inactive)
REMARK    1  A    between atoms: N_2  and  C_4 
REMARK    2  A    between atoms: C_5  and  C_35 
REMARK    3  A    between atoms: C_6  and  N_32 
REMARK    4  A    between atoms: C_9  and  C_12 
REMARK    5  A    between atoms: C_12  and  C_13 
REMARK    6  A    between atoms: C_16  and  N_19 
REMARK       I    between atoms: N_19  and  C_20 
REMARK    7  A    between atoms: C_20  and  C_22 
REMARK    8  A    between atoms: C_25  and  C_28 
REMARK    9  A    between atoms: C_35  and  C_36 
REMARK   10  A    between atoms: C_36  and  O_38 
ROOT
HETATM    1  C   UNK N   1      34.957  16.388   9.453  0.00  0.00    -0.051 A 
HETATM    2  C   UNK N   1      35.297  16.725  10.765  0.00  0.00     0.010 A 
HETATM    3  C   UNK N   1      35.866  15.765  11.590  0.00  0.00     0.030 A 
HETATM    4  C   UNK N   1      36.084  14.471  11.114  0.00  0.00     0.035 A 
HETATM    5  C   UNK N   1      35.618  14.107   9.842  0.00  0.00     0.030 A 
HETATM    6  C   UNK N   1      35.044  15.067   9.016  0.00  0.00     0.010 A 
ENDROOT
BRANCH   1   7
HETATM    7  C   UNK N   1      34.631  17.454   8.473  0.00  0.00     0.115 C 
BRANCH   7   8
HETATM    8  C   UNK N   1      33.251  17.329   7.986  0.00  0.00     0.088 A 
HETATM    9  N   UNK N   1      32.231  17.527   8.837  0.00  0.00    -0.331 N 
HETATM   10  C   UNK N   1      30.939  17.373   8.477  0.00  0.00     0.114 A 
ATOM     11  HN  UNK N   1      32.441  17.805   9.796  1.00  0.00     0.168 HD
HETATM   12  C   UNK N   1      30.654  16.971   7.133  0.00  0.00     0.040 A 
HETATM   13  C   UNK N   1      31.761  16.772   6.236  0.00  0.00     0.114 A 
HETATM   14  N   UNK N   1      33.019  16.963   6.713  0.00  0.00    -0.331 N 
ATOM     15  HN  UNK N   1      33.812  16.822   6.087  1.00  0.00     0.168 HD
BRANCH  10  16
HETATM   16  N   UNK N   1      29.951  17.623   9.491  0.00  0.00    -0.375 N 
HETATM   17  C   UNK N   1      29.630  18.987   9.837  0.00  0.00     0.150 C 
HETATM   18  C   UNK N   1      29.234  16.589  10.188  0.00  0.00     0.150 C 
ENDBRANCH  10  16
BRANCH  12  19
HETATM   19  C   UNK N   1      29.235  16.736   6.706  0.00  0.00     0.156 C 
BRANCH  19  20
HETATM   20  C   UNK N   1      28.550  17.997   6.288  0.00  0.00     0.143 C 
HETATM   21  O   UNK N   1      28.823  18.506   5.214  0.00  0.00    -0.650 OA
BRANCH  20  22
HETATM   22  O   UNK N   1      27.598  18.546   7.065  0.00  0.00    -0.776 OA
HETATM   23  H   UNK N   1      26.665  18.635   7.031  0.00  0.00     0.167 HD
ENDBRANCH  20  22
ENDBRANCH  19  20
ENDBRANCH  12  19
BRANCH  13  24
HETATM   24  N   UNK N   1      31.636  16.365   4.862  0.00  0.00    -0.375 N 
HETATM   25  C   UNK N   1      31.840  17.337   3.816  0.00  0.00     0.150 C 
HETATM   26  C   UNK N   1      31.325  15.024   4.451  0.00  0.00     0.150 C 
ENDBRANCH  13  24
ENDBRANCH   7   8
ENDBRANCH   1   7
BRANCH   4  27
HETATM   27  N   UNK N   1      37.198  13.801  11.654  0.00  0.00    -0.323 N 
HETATM   28  C   UNK N   1      37.180  12.609  12.290  0.00  0.00     0.256 C 
HETATM   29  O   UNK N   1      37.998  11.769  11.953  0.00  0.00    -0.267 OA
HETATM   30  H   UNK N   1      38.073  14.243  11.559  0.00  0.00     0.169 HD
BRANCH  28  31
HETATM   31  C   UNK N   1      36.431  12.395  13.543  0.00  0.00     0.032 A 
HETATM   32  C   UNK N   1      36.454  13.333  14.585  0.00  0.00     0.018 A 
HETATM   33  C   UNK N   1      36.040  12.954  15.869  0.00  0.00     0.017 A 
HETATM   34  C   UNK N   1      35.633  11.631  16.113  0.00  0.00     0.048 A 
HETATM   35  C   UNK N   1      35.544  10.728  15.055  0.00  0.00     0.017 A 
HETATM   36  C   UNK N   1      35.938  11.108  13.782  0.00  0.00     0.018 A 
BRANCH  34  37
HETATM   37  C   UNK N   1      35.398  11.132  17.503  0.00  0.00     0.417 C 
HETATM   38  F   UNK N   1      35.004  12.205  18.287  0.00  0.00    -0.166 F 
HETATM   39  F   UNK N   1      34.399  10.176  17.533  0.00  0.00    -0.166 F 
HETATM   40  F   UNK N   1      36.562  10.599  18.023  0.00  0.00    -0.166 F 
ENDBRANCH  34  37
ENDBRANCH  28  31
ENDBRANCH   4  27
TORSDOF 10
ENDMDL
MODEL 6
REMARK VINA RESULT:      -7.8      4.765      6.783
REMARK  10 active torsions:
REMARK  status: ('A' for Active; 'I' for Inactive)
REMARK    1  A    between atoms: N_2  and  C_4 
REMARK    2  A    between atoms: C_5  and  C_35 
REMARK    3  A    between atoms: C_6  and  N_32 
REMARK    4  A    between atoms: C_9  and  C_12 
REMARK    5  A    between atoms: C_12  and  C_13 
REMARK    6  A    between atoms: C_16  and  N_19 
REMARK       I    between atoms: N_19  and  C_20 
REMARK    7  A    between atoms: C_20  and  C_22 
REMARK    8  A    between atoms: C_25  and  C_28 
REMARK    9  A    between atoms: C_35  and  C_36 
REMARK   10  A    between atoms: C_36  and  O_38 
ROOT
HETATM    1  C   UNK N   1      32.276  17.095   5.687  0.00  0.00    -0.051 A 
HETATM    2  C   UNK N   1      31.445  17.000   6.805  0.00  0.00     0.010 A 
HETATM    3  C   UNK N   1      32.008  16.818   8.060  0.00  0.00     0.030 A 
HETATM    4  C   UNK N   1      33.393  16.719   8.200  0.00  0.00     0.035 A 
HETATM    5  C   UNK N   1      34.209  16.681   7.059  0.00  0.00     0.030 A 
HETATM    6  C   UNK N   1      33.646  16.859   5.801  0.00  0.00     0.010 A 
ENDROOT
BRANCH   1   7
HETATM    7  C   UNK N   1      31.732  17.581   4.395  0.00  0.00     0.115 C 
BRANCH   7   8
HETATM    8  C   UNK N   1      30.278  17.378   4.316  0.00  0.00     0.088 A 
HETATM    9  N   UNK N   1      29.798  16.164   4.003  0.00  0.00    -0.331 N 
HETATM   10  C   UNK N   1      28.480  15.916   3.854  0.00  0.00     0.114 A 
ATOM     11  HN  UNK N   1      30.457  15.397   3.870  1.00  0.00     0.168 HD
HETATM   12  C   UNK N   1      27.563  17.002   4.030  0.00  0.00     0.040 A 
HETATM   13  C   UNK N   1      28.098  18.292   4.374  0.00  0.00     0.114 A 
HETATM   14  N   UNK N   1      29.445  18.418   4.500  0.00  0.00    -0.331 N 
ATOM     15  HN  UNK N   1      29.836  19.328   4.741  1.00  0.00     0.168 HD
BRANCH  10  16
HETATM   16  N   UNK N   1      28.108  14.568   3.522  0.00  0.00    -0.375 N 
HETATM   17  C   UNK N   1      27.831  13.634   4.587  0.00  0.00     0.150 C 
HETATM   18  C   UNK N   1      27.976  14.078   2.176  0.00  0.00     0.150 C 
ENDBRANCH  10  16
BRANCH  12  19
HETATM   19  C   UNK N   1      26.093  16.782   3.822  0.00  0.00     0.156 C 
BRANCH  19  20
HETATM   20  C   UNK N   1      25.312  16.919   5.089  0.00  0.00     0.143 C 
HETATM   21  O   UNK N   1      24.299  17.598   5.105  0.00  0.00    -0.650 OA
BRANCH  20  22
HETATM   22  O   UNK N   1      25.691  16.257   6.198  0.00  0.00    -0.776 OA
HETATM   23  H   UNK N   1      25.856  16.478   7.094  0.00  0.00     0.167 HD
ENDBRANCH  20  22
ENDBRANCH  19  20
ENDBRANCH  12  19
BRANCH  13  24
HETATM   24  N   UNK N   1      27.308  19.476   4.578  0.00  0.00    -0.375 N 
HETATM   25  C   UNK N   1      27.163  20.008   5.911  0.00  0.00     0.150 C 
HETATM   26  C   UNK N   1      26.646  20.187   3.519  0.00  0.00     0.150 C 
ENDBRANCH  13  24
ENDBRANCH   7   8
ENDBRANCH   1   7
BRANCH   4  27
HETATM   27  N   UNK N   1      33.922  17.215   9.406  0.00  0.00    -0.323 N 
HETATM   28  C   UNK N   1      35.093  16.847   9.972  0.00  0.00     0.256 C 
HETATM   29  O   UNK N   1      35.847  17.730  10.351  0.00  0.00    -0.267 OA
HETATM   30  H   UNK N   1      33.390  17.893   9.881  0.00  0.00     0.169 HD
BRANCH  28  31
HETATM   31  C   UNK N   1      35.356  15.465  10.413  0.00  0.00     0.032 A 
HETATM   32  C   UNK N   1      34.511  14.805  11.318  0.00  0.00     0.018 A 
HETATM   33  C   UNK N   1      34.965  13.657  11.980  0.00  0.00     0.017 A 
HETATM   34  C   UNK N   1      36.271  13.188  11.758  0.00  0.00     0.048 A 
HETATM   35  C   UNK N   1      37.076  13.808  10.804  0.00  0.00     0.017 A 
HETATM   36  C   UNK N   1      36.621  14.934  10.136  0.00  0.00     0.018 A 
BRANCH  34  37
HETATM   37  C   UNK N   1      36.866  12.107  12.604  0.00  0.00     0.417 C 
HETATM   38  F   UNK N   1      35.921  11.103  12.749  0.00  0.00    -0.166 F 
HETATM   39  F   UNK N   1      37.993  11.567  12.011  0.00  0.00    -0.166 F 
HETATM   40  F   UNK N   1      37.193  12.600  13.852  0.00  0.00    -0.166 F 
ENDBRANCH  34  37
ENDBRANCH  28  31
ENDBRANCH   4  27
TORSDOF 10
ENDMDL
MODEL 7
REMARK VINA RESULT:      -7.8     12.366     15.660
REMARK  10 active torsions:
REMARK  status: ('A' for Active; 'I' for Inactive)
REMARK    1  A    between atoms: N_2  and  C_4 
REMARK    2  A    between atoms: C_5  and  C_35 
REMARK    3  A    between atoms: C_6  and  N_32 
REMARK    4  A    between atoms: C_9  and  C_12 
REMARK    5  A    between atoms: C_12  and  C_13 
REMARK    6  A    between atoms: C_16  and  N_19 
REMARK       I    between atoms: N_19  and  C_20 
REMARK    7  A    between atoms: C_20  and  C_22 
REMARK    8  A    between atoms: C_25  and  C_28 
REMARK    9  A    between atoms: C_35  and  C_36 
REMARK   10  A    between atoms: C_36  and  O_38 
ROOT
HETATM    1  C   UNK N   1      27.685  21.964  -8.870  0.00  0.00    -0.051 A 
HETATM    2  C   UNK N   1      28.690  22.654  -9.551  0.00  0.00     0.010 A 
HETATM    3  C   UNK N   1      28.350  23.729 -10.360  0.00  0.00     0.030 A 
HETATM    4  C   UNK N   1      27.014  24.108 -10.499  0.00  0.00     0.035 A 
HETATM    5  C   UNK N   1      26.003  23.328  -9.918  0.00  0.00     0.030 A 
HETATM    6  C   UNK N   1      26.342  22.247  -9.111  0.00  0.00     0.010 A 
ENDROOT
BRANCH   1   7
HETATM    7  C   UNK N   1      28.040  21.017  -7.783  0.00  0.00     0.115 C 
BRANCH   7   8
HETATM    8  C   UNK N   1      28.956  21.635  -6.814  0.00  0.00     0.088 A 
HETATM    9  N   UNK N   1      30.186  21.121  -6.649  0.00  0.00    -0.331 N 
HETATM   10  C   UNK N   1      31.059  21.597  -5.737  0.00  0.00     0.114 A 
ATOM     11  HN  UNK N   1      30.472  20.339  -7.238  1.00  0.00     0.168 HD
HETATM   12  C   UNK N   1      30.645  22.688  -4.907  0.00  0.00     0.040 A 
HETATM   13  C   UNK N   1      29.327  23.228  -5.105  0.00  0.00     0.114 A 
HETATM   14  N   UNK N   1      28.538  22.667  -6.060  0.00  0.00    -0.331 N 
ATOM     15  HN  UNK N   1      27.600  23.039  -6.207  1.00  0.00     0.168 HD
BRANCH  10  16
HETATM   16  N   UNK N   1      32.344  20.954  -5.674  0.00  0.00    -0.375 N 
HETATM   17  C   UNK N   1      33.451  21.526  -6.403  0.00  0.00     0.150 C 
HETATM   18  C   UNK N   1      32.612  19.766  -4.909  0.00  0.00     0.150 C 
ENDBRANCH  10  16
BRANCH  12  19
HETATM   19  C   UNK N   1      31.566  23.213  -3.844  0.00  0.00     0.156 C 
BRANCH  19  20
HETATM   20  C   UNK N   1      31.360  22.535  -2.528  0.00  0.00     0.143 C 
HETATM   21  O   UNK N   1      30.475  22.917  -1.783  0.00  0.00    -0.650 OA
BRANCH  20  22
HETATM   22  O   UNK N   1      32.112  21.472  -2.184  0.00  0.00    -0.776 OA
HETATM   23  H   UNK N   1      31.990  20.544  -2.140  0.00  0.00     0.167 HD
ENDBRANCH  20  22
ENDBRANCH  19  20
ENDBRANCH  12  19
BRANCH  13  24
HETATM   24  N   UNK N   1      28.767  24.316  -4.350  0.00  0.00    -0.375 N 
HETATM   25  C   UNK N   1      29.335  25.635  -4.484  0.00  0.00     0.150 C 
HETATM   26  C   UNK N   1      27.649  24.178  -3.458  0.00  0.00     0.150 C 
ENDBRANCH  13  24
ENDBRANCH   7   8
ENDBRANCH   1   7
BRANCH   4  27
HETATM   27  N   UNK N   1      26.786  25.481 -10.706  0.00  0.00    -0.323 N 
HETATM   28  C   UNK N   1      27.385  26.497 -10.045  0.00  0.00     0.256 C 
HETATM   29  O   UNK N   1      27.845  27.415 -10.705  0.00  0.00    -0.267 OA
HETATM   30  H   UNK N   1      26.129  25.725 -11.397  0.00  0.00     0.169 HD
BRANCH  28  31
HETATM   31  C   UNK N   1      27.243  26.682  -8.589  0.00  0.00     0.032 A 
HETATM   32  C   UNK N   1      26.104  26.245  -7.896  0.00  0.00     0.018 A 
HETATM   33  C   UNK N   1      25.839  26.740  -6.613  0.00  0.00     0.017 A 
HETATM   34  C   UNK N   1      26.698  27.691  -6.037  0.00  0.00     0.048 A 
HETATM   35  C   UNK N   1      27.865  28.064  -6.702  0.00  0.00     0.017 A 
HETATM   36  C   UNK N   1      28.135  27.561  -7.965  0.00  0.00     0.018 A 
BRANCH  34  37
HETATM   37  C   UNK N   1      26.336  28.405  -4.773  0.00  0.00     0.417 C 
HETATM   38  F   UNK N   1      26.603  29.754  -4.948  0.00  0.00    -0.166 F 
HETATM   39  F   UNK N   1      24.992  28.258  -4.478  0.00  0.00    -0.166 F 
HETATM   40  F   UNK N   1      27.093  27.929  -3.720  0.00  0.00    -0.166 F 
ENDBRANCH  34  37
ENDBRANCH  28  31
ENDBRANCH   4  27
TORSDOF 10
ENDMDL
MODEL 8
REMARK VINA RESULT:      -7.8      3.625      5.650
REMARK  10 active torsions:
REMARK  status: ('A' for Active; 'I' for Inactive)
REMARK    1  A    between atoms: N_2  and  C_4 
REMARK    2  A    between atoms: C_5  and  C_35 
REMARK    3  A    between atoms: C_6  and  N_32 
REMARK    4  A    between atoms: C_9  and  C_12 
REMARK    5  A    between atoms: C_12  and  C_13 
REMARK    6  A    between atoms: C_16  and  N_19 
REMARK       I    between atoms: N_19  and  C_20 
REMARK    7  A    between atoms: C_20  and  C_22 
REMARK    8  A    between atoms: C_25  and  C_28 
REMARK    9  A    between atoms: C_35  and  C_36 
REMARK   10  A    between atoms: C_36  and  O_38 
ROOT
HETATM    1  C   UNK N   1      27.641  16.171   5.685  0.00  0.00    -0.051 A 
HETATM    2  C   UNK N   1      27.884  15.082   4.846  0.00  0.00     0.010 A 
HETATM    3  C   UNK N   1      28.697  15.245   3.734  0.00  0.00     0.030 A 
HETATM    4  C   UNK N   1      29.257  16.492   3.452  0.00  0.00     0.035 A 
HETATM    5  C   UNK N   1      28.900  17.609   4.223  0.00  0.00     0.030 A 
HETATM    6  C   UNK N   1      28.082  17.447   5.335  0.00  0.00     0.010 A 
ENDROOT
BRANCH   1   7
HETATM    7  C   UNK N   1      27.032  15.959   7.021  0.00  0.00     0.115 C 
BRANCH   7   8
HETATM    8  C   UNK N   1      25.646  15.483   6.908  0.00  0.00     0.088 A 
HETATM    9  N   UNK N   1      24.761  16.197   6.193  0.00  0.00    -0.331 N 
HETATM   10  C   UNK N   1      23.459  15.855   6.092  0.00  0.00     0.114 A 
ATOM     11  HN  UNK N   1      25.086  17.031   5.705  1.00  0.00     0.168 HD
HETATM   12  C   UNK N   1      23.009  14.688   6.790  0.00  0.00     0.040 A 
HETATM   13  C   UNK N   1      23.975  13.935   7.544  0.00  0.00     0.114 A 
HETATM   14  N   UNK N   1      25.260  14.376   7.567  0.00  0.00    -0.331 N 
ATOM     15  HN  UNK N   1      25.954  13.852   8.100  1.00  0.00     0.168 HD
BRANCH  10  16
HETATM   16  N   UNK N   1      22.627  16.708   5.288  0.00  0.00    -0.375 N 
HETATM   17  C   UNK N   1      22.085  17.912   5.872  0.00  0.00     0.150 C 
HETATM   18  C   UNK N   1      22.300  16.448   3.912  0.00  0.00     0.150 C 
ENDBRANCH  10  16
BRANCH  12  19
HETATM   19  C   UNK N   1      21.559  14.303   6.749  0.00  0.00     0.156 C 
BRANCH  19  20
HETATM   20  C   UNK N   1      20.827  14.708   7.988  0.00  0.00     0.143 C 
HETATM   21  O   UNK N   1      20.135  13.894   8.575  0.00  0.00    -0.650 OA
BRANCH  20  22
HETATM   22  O   UNK N   1      20.968  15.950   8.487  0.00  0.00    -0.776 OA
HETATM   23  H   UNK N   1      21.016  16.818   8.137  0.00  0.00     0.167 HD
ENDBRANCH  20  22
ENDBRANCH  19  20
ENDBRANCH  12  19
BRANCH  13  24
HETATM   24  N   UNK N   1      23.677  12.747   8.299  0.00  0.00    -0.375 N 
HETATM   25  C   UNK N   1      23.682  11.468   7.634  0.00  0.00     0.150 C 
HETATM   26  C   UNK N   1      23.377  12.749   9.704  0.00  0.00     0.150 C 
ENDBRANCH  13  24
ENDBRANCH   7   8
ENDBRANCH   1   7
BRANCH   4  27
HETATM   27  N   UNK N   1      30.515  16.469   2.820  0.00  0.00    -0.323 N 
HETATM   28  C   UNK N   1      31.608  15.798   3.246  0.00  0.00     0.256 C 
HETATM   29  O   UNK N   1      32.215  15.120   2.433  0.00  0.00    -0.267 OA
HETATM   30  H   UNK N   1      30.606  16.990   1.990  0.00  0.00     0.169 HD
BRANCH  28  31
HETATM   31  C   UNK N   1      32.252  16.083   4.542  0.00  0.00     0.032 A 
HETATM   32  C   UNK N   1      31.788  15.516   5.738  0.00  0.00     0.018 A 
HETATM   33  C   UNK N   1      32.178  16.068   6.965  0.00  0.00     0.017 A 
HETATM   34  C   UNK N   1      33.008  17.202   6.993  0.00  0.00     0.048 A 
HETATM   35  C   UNK N   1      33.522  17.712   5.802  0.00  0.00     0.017 A 
HETATM   36  C   UNK N   1      33.149  17.156   4.588  0.00  0.00     0.018 A 
BRANCH  34  37
HETATM   37  C   UNK N   1      33.265  17.950   8.263  0.00  0.00     0.417 C 
HETATM   38  F   UNK N   1      34.308  18.835   8.038  0.00  0.00    -0.166 F 
HETATM   39  F   UNK N   1      32.154  18.672   8.656  0.00  0.00    -0.166 F 
HETATM   40  F   UNK N   1      33.627  17.075   9.269  0.00  0.00    -0.166 F 
ENDBRANCH  34  37
ENDBRANCH  28  31
ENDBRANCH   4  27
TORSDOF 10
ENDMDL
MODEL 9
REMARK VINA RESULT:      -7.7      2.779      4.151
REMARK  10 active torsions:
REMARK  status: ('A' for Active; 'I' for Inactive)
REMARK    1  A    between atoms: N_2  and  C_4 
REMARK    2  A    between atoms: C_5  and  C_35 
REMARK    3  A    between atoms: C_6  and  N_32 
REMARK    4  A    between atoms: C_9  and  C_12 
REMARK    5  A    between atoms: C_12  and  C_13 
REMARK    6  A    between atoms: C_16  and  N_19 
REMARK       I    between atoms: N_19  and  C_20 
REMARK    7  A    between atoms: C_20  and  C_22 
REMARK    8  A    between atoms: C_25  and  C_28 
REMARK    9  A    between atoms: C_35  and  C_36 
REMARK   10  A    between atoms: C_36  and  O_38 
ROOT
HETATM    1  C   UNK N   1      25.522  18.294   4.629  0.00  0.00    -0.051 A 
HETATM    2  C   UNK N   1      26.553  19.234   4.663  0.00  0.00     0.010 A 
HETATM    3  C   UNK N   1      27.859  18.822   4.439  0.00  0.00     0.030 A 
HETATM    4  C   UNK N   1      28.138  17.477   4.194  0.00  0.00     0.035 A 
HETATM    5  C   UNK N   1      27.115  16.522   4.294  0.00  0.00     0.030 A 
HETATM    6  C   UNK N   1      25.807  16.933   4.523  0.00  0.00     0.010 A 
ENDROOT
BRANCH   1   7
HETATM    7  C   UNK N   1      24.109  18.743   4.568  0.00  0.00     0.115 C 
BRANCH   7   8
HETATM    8  C   UNK N   1      23.182  17.604   4.613  0.00  0.00     0.088 A 
HETATM    9  N   UNK N   1      22.667  17.127   3.468  0.00  0.00    -0.331 N 
HETATM   10  C   UNK N   1      21.766  16.123   3.435  0.00  0.00     0.114 A 
ATOM     11  HN  UNK N   1      22.969  17.541   2.587  1.00  0.00     0.168 HD
HETATM   12  C   UNK N   1      21.338  15.555   4.678  0.00  0.00     0.040 A 
HETATM   13  C   UNK N   1      21.908  16.075   5.892  0.00  0.00     0.114 A 
HETATM   14  N   UNK N   1      22.812  17.086   5.798  0.00  0.00    -0.331 N 
ATOM     15  HN  UNK N   1      23.220  17.465   6.652  1.00  0.00     0.168 HD
BRANCH  10  16
HETATM   16  N   UNK N   1      21.304  15.711   2.138  0.00  0.00    -0.375 N 
HETATM   17  C   UNK N   1      21.951  14.599   1.483  0.00  0.00     0.150 C 
HETATM   18  C   UNK N   1      20.211  16.331   1.439  0.00  0.00     0.150 C 
ENDBRANCH  10  16
BRANCH  12  19
HETATM   19  C   UNK N   1      20.298  14.474   4.690  0.00  0.00     0.156 C 
BRANCH  19  20
HETATM   20  C   UNK N   1      18.909  15.020   4.773  0.00  0.00     0.143 C 
HETATM   21  O   UNK N   1      17.973  14.265   4.973  0.00  0.00    -0.650 OA
BRANCH  20  22
HETATM   22  O   UNK N   1      18.692  16.345   4.679  0.00  0.00    -0.776 OA
HETATM   23  H   UNK N   1      18.229  16.991   5.177  0.00  0.00     0.167 HD
ENDBRANCH  20  22
ENDBRANCH  19  20
ENDBRANCH  12  19
BRANCH  13  24
HETATM   24  N   UNK N   1      21.577  15.614   7.214  0.00  0.00    -0.375 N 
HETATM   25  C   UNK N   1      22.293  14.493   7.771  0.00  0.00     0.150 C 
HETATM   26  C   UNK N   1      20.565  16.213   8.039  0.00  0.00     0.150 C 
ENDBRANCH  13  24
ENDBRANCH   7   8
ENDBRANCH   1   7
BRANCH   4  27
HETATM   27  N   UNK N   1      29.231  17.224   3.343  0.00  0.00    -0.323 N 
HETATM   28  C   UNK N   1      30.385  16.612   3.690  0.00  0.00     0.256 C 
HETATM   29  O   UNK N   1      30.799  15.721   2.966  0.00  0.00    -0.267 OA
HETATM   30  H   UNK N   1      29.146  17.520   2.408  0.00  0.00     0.169 HD
BRANCH  28  31
HETATM   31  C   UNK N   1      31.294  17.165   4.711  0.00  0.00     0.032 A 
HETATM   32  C   UNK N   1      32.639  17.447   4.428  0.00  0.00     0.018 A 
HETATM   33  C   UNK N   1      33.547  17.626   5.480  0.00  0.00     0.017 A 
HETATM   34  C   UNK N   1      33.115  17.495   6.810  0.00  0.00     0.048 A 
HETATM   35  C   UNK N   1      31.763  17.287   7.082  0.00  0.00     0.017 A 
HETATM   36  C   UNK N   1      30.862  17.127   6.041  0.00  0.00     0.018 A 
BRANCH  34  37
HETATM   37  C   UNK N   1      34.087  17.458   7.946  0.00  0.00     0.417 C 
HETATM   38  F   UNK N   1      35.027  16.475   7.679  0.00  0.00    -0.166 F 
HETATM   39  F   UNK N   1      34.744  18.667   8.087  0.00  0.00    -0.166 F 
HETATM   40  F   UNK N   1      33.435  17.148   9.124  0.00  0.00    -0.166 F 
ENDBRANCH  34  37
ENDBRANCH  28  31
ENDBRANCH   4  27
TORSDOF 10
ENDMDL
