MODEL 1
REMARK VINA RESULT:      -7.1      0.000      0.000
REMARK  1 active torsions:
REMARK  status: ('A' for Active; 'I' for Inactive)
REMARK    1  A    between atoms: N_16  and  C_10 
ROOT
HETATM    1  C   UNK N   1      25.646  27.658  -3.859  0.00  0.00     0.001 A 
HETATM    2  C   UNK N   1      24.968  27.605  -5.099  0.00  0.00     0.001 A 
HETATM    3  C   UNK N   1      26.638  26.713  -3.547  0.00  0.00     0.016 A 
HETATM    4  C   UNK N   1      25.272  26.606  -6.043  0.00  0.00     0.018 A 
HETATM    5  C   UNK N   1      31.281  21.748  -2.881  0.00  0.00     0.031 A 
HETATM    6  C   UNK N   1      30.433  22.846  -2.720  0.00  0.00     0.032 A 
HETATM    7  C   UNK N   1      30.350  21.336  -5.080  0.00  0.00     0.040 A 
HETATM    8  C   UNK N   1      28.548  22.778  -6.051  0.00  0.00     0.174 A 
HETATM    9  C   UNK N   1      29.499  22.430  -4.932  0.00  0.00    -0.011 A 
HETATM   10  C   UNK N   1      31.238  20.995  -4.058  0.00  0.00     0.026 A 
HETATM   11  C   UNK N   1      26.919  25.738  -4.497  0.00  0.00     0.024 A 
HETATM   12  C   UNK N   1      26.257  25.682  -5.712  0.00  0.00     0.046 A 
HETATM   13  C   UNK N   1      29.541  23.195  -3.737  0.00  0.00     0.041 A 
HETATM   14  C   UNK N   1      27.865  24.638  -4.490  0.00  0.00     0.122 A 
HETATM   15  C   UNK N   1      26.808  24.536  -6.452  0.00  0.00     0.260 A 
HETATM   16  N   UNK N   1      28.686  24.314  -3.560  0.00  0.00    -0.341 N 
ATOM     17  HN  UNK N   1      28.724  24.857  -2.697  1.00  0.00     0.167 HD
HETATM   18  N   UNK N   1      27.757  23.936  -5.705  0.00  0.00    -0.294 N 
HETATM   19  O   UNK N   1      26.475  24.164  -7.568  0.00  0.00    -0.267 OA
ENDROOT
BRANCH  10  20
HETATM   20  N   UNK N   1      32.094  19.889  -4.215  0.00  0.00    -0.399 N 
HETATM   21  H   UNK N   1      32.580  19.529  -3.438  0.00  0.00     0.156 HD
HETATM   22  H   UNK N   1      32.207  19.476  -5.101  0.00  0.00     0.156 HD
ENDBRANCH  10  20
TORSDOF 1
ENDMDL
MODEL 2
REMARK VINA RESULT:      -6.9     18.929     22.468
REMARK  1 active torsions:
REMARK  status: ('A' for Active; 'I' for Inactive)
REMARK    1  A    between atoms: N_16  and  C_10 
ROOT
HETATM    1  C   UNK N   1      34.938   9.687  14.937  0.00  0.00     0.001 A 
HETATM    2  C   UNK N   1      35.800  10.042  16.001  0.00  0.00     0.001 A 
HETATM    3  C   UNK N   1      34.673  10.595  13.899  0.00  0.00     0.016 A 
HETATM    4  C   UNK N   1      36.408  11.311  16.040  0.00  0.00     0.018 A 
HETATM    5  C   UNK N   1      33.962  15.606   9.312  0.00  0.00     0.031 A 
HETATM    6  C   UNK N   1      33.904  14.423  10.052  0.00  0.00     0.032 A 
HETATM    7  C   UNK N   1      35.474  16.568  10.942  0.00  0.00     0.040 A 
HETATM    8  C   UNK N   1      36.223  15.301  12.968  0.00  0.00     0.174 A 
HETATM    9  C   UNK N   1      35.426  15.392  11.691  0.00  0.00    -0.011 A 
HETATM   10  C   UNK N   1      34.745  16.675   9.757  0.00  0.00     0.026 A 
HETATM   11  C   UNK N   1      35.287  11.841  13.962  0.00  0.00     0.024 A 
HETATM   12  C   UNK N   1      36.132  12.193  15.002  0.00  0.00     0.046 A 
HETATM   13  C   UNK N   1      34.630  14.306  11.239  0.00  0.00     0.041 A 
HETATM   14  C   UNK N   1      35.227  12.985  13.072  0.00  0.00     0.122 A 
HETATM   15  C   UNK N   1      36.590  13.566  14.740  0.00  0.00     0.260 A 
HETATM   16  N   UNK N   1      34.563  13.098  11.981  0.00  0.00    -0.341 N 
ATOM     17  HN  UNK N   1      33.988  12.323  11.648  1.00  0.00     0.167 HD
HETATM   18  N   UNK N   1      36.040  14.010  13.592  0.00  0.00    -0.294 N 
HETATM   19  O   UNK N   1      37.350  14.223  15.436  0.00  0.00    -0.267 OA
ENDROOT
BRANCH  10  20
HETATM   20  N   UNK N   1      34.800  17.865   9.008  0.00  0.00    -0.399 N 
HETATM   21  H   UNK N   1      35.671  18.237   8.738  0.00  0.00     0.156 HD
HETATM   22  H   UNK N   1      33.968  18.325   8.754  0.00  0.00     0.156 HD
ENDBRANCH  10  20
TORSDOF 1
ENDMDL
MODEL 3
REMARK VINA RESULT:      -6.9      2.450      6.786
REMARK  1 active torsions:
REMARK  status: ('A' for Active; 'I' for Inactive)
REMARK    1  A    between atoms: N_16  and  C_10 
ROOT
HETATM    1  C   UNK N   1      33.148  20.074  -5.039  0.00  0.00     0.001 A 
HETATM    2  C   UNK N   1      33.565  20.241  -3.698  0.00  0.00     0.001 A 
HETATM    3  C   UNK N   1      31.995  20.722  -5.513  0.00  0.00     0.016 A 
HETATM    4  C   UNK N   1      32.835  21.057  -2.814  0.00  0.00     0.018 A 
HETATM    5  C   UNK N   1      26.310  24.227  -6.946  0.00  0.00     0.031 A 
HETATM    6  C   UNK N   1      27.449  23.419  -6.964  0.00  0.00     0.032 A 
HETATM    7  C   UNK N   1      26.702  24.751  -4.613  0.00  0.00     0.040 A 
HETATM    8  C   UNK N   1      28.652  23.813  -3.351  0.00  0.00     0.174 A 
HETATM    9  C   UNK N   1      27.842  23.948  -4.617  0.00  0.00    -0.011 A 
HETATM   10  C   UNK N   1      25.938  24.890  -5.772  0.00  0.00     0.026 A 
HETATM   11  C   UNK N   1      31.293  21.522  -4.619  0.00  0.00     0.024 A 
HETATM   12  C   UNK N   1      31.698  21.688  -3.305  0.00  0.00     0.046 A 
HETATM   13  C   UNK N   1      28.221  23.274  -5.808  0.00  0.00     0.041 A 
HETATM   14  C   UNK N   1      30.087  22.313  -4.783  0.00  0.00     0.122 A 
HETATM   15  C   UNK N   1      30.728  22.589  -2.664  0.00  0.00     0.260 A 
HETATM   16  N   UNK N   1      29.376  22.450  -5.841  0.00  0.00    -0.341 N 
ATOM     17  HN  UNK N   1      29.639  21.970  -6.702  1.00  0.00     0.167 HD
HETATM   18  N   UNK N   1      29.786  22.944  -3.562  0.00  0.00    -0.294 N 
HETATM   19  O   UNK N   1      30.749  22.972  -1.504  0.00  0.00    -0.267 OA
ENDROOT
BRANCH  10  20
HETATM   20  N   UNK N   1      24.789  25.702  -5.759  0.00  0.00    -0.399 N 
HETATM   21  H   UNK N   1      24.345  25.940  -6.606  0.00  0.00     0.156 HD
HETATM   22  H   UNK N   1      24.429  26.033  -4.905  0.00  0.00     0.156 HD
ENDBRANCH  10  20
TORSDOF 1
ENDMDL
MODEL 4
REMARK VINA RESULT:      -6.8      2.245      6.419
REMARK  1 active torsions:
REMARK  status: ('A' for Active; 'I' for Inactive)
REMARK    1  A    between atoms: N_16  and  C_10 
ROOT
HETATM    1  C   UNK N   1      28.834  20.213  -8.193  0.00  0.00     0.001 A 
HETATM    2  C   UNK N   1      29.936  19.789  -7.413  0.00  0.00     0.001 A 
HETATM    3  C   UNK N   1      28.110  21.363  -7.838  0.00  0.00     0.016 A 
HETATM    4  C   UNK N   1      30.326  20.509  -6.269  0.00  0.00     0.018 A 
HETATM    5  C   UNK N   1      25.184  27.027  -5.386  0.00  0.00     0.031 A 
HETATM    6  C   UNK N   1      25.552  25.894  -6.115  0.00  0.00     0.032 A 
HETATM    7  C   UNK N   1      26.988  26.621  -3.821  0.00  0.00     0.040 A 
HETATM    8  C   UNK N   1      28.544  24.674  -4.063  0.00  0.00     0.174 A 
HETATM    9  C   UNK N   1      27.366  25.487  -4.539  0.00  0.00    -0.011 A 
HETATM   10  C   UNK N   1      25.902  27.389  -4.242  0.00  0.00     0.026 A 
HETATM   11  C   UNK N   1      28.516  22.055  -6.704  0.00  0.00     0.024 A 
HETATM   12  C   UNK N   1      29.594  21.644  -5.937  0.00  0.00     0.046 A 
HETATM   13  C   UNK N   1      26.638  25.119  -5.701  0.00  0.00     0.041 A 
HETATM   14  C   UNK N   1      27.996  23.255  -6.076  0.00  0.00     0.122 A 
HETATM   15  C   UNK N   1      29.730  22.605  -4.832  0.00  0.00     0.260 A 
HETATM   16  N   UNK N   1      27.000  23.970  -6.451  0.00  0.00    -0.341 N 
ATOM     17  HN  UNK N   1      26.470  23.714  -7.285  1.00  0.00     0.167 HD
HETATM   18  N   UNK N   1      28.772  23.547  -4.938  0.00  0.00    -0.294 N 
HETATM   19  O   UNK N   1      30.570  22.576  -3.944  0.00  0.00    -0.267 OA
ENDROOT
BRANCH  10  20
HETATM   20  N   UNK N   1      25.527  28.532  -3.511  0.00  0.00    -0.399 N 
HETATM   21  H   UNK N   1      26.214  29.071  -3.055  0.00  0.00     0.156 HD
HETATM   22  H   UNK N   1      24.580  28.793  -3.456  0.00  0.00     0.156 HD
ENDBRANCH  10  20
TORSDOF 1
ENDMDL
MODEL 5
REMARK VINA RESULT:      -6.8     15.813     18.822
REMARK  1 active torsions:
REMARK  status: ('A' for Active; 'I' for Inactive)
REMARK    1  A    between atoms: N_16  and  C_10 
ROOT
HETATM    1  C   UNK N   1      31.993  15.036   6.505  0.00  0.00     0.001 A 
HETATM    2  C   UNK N   1      32.308  16.359   6.112  0.00  0.00     0.001 A 
HETATM    3  C   UNK N   1      32.536  14.493   7.681  0.00  0.00     0.016 A 
HETATM    4  C   UNK N   1      33.169  17.155   6.891  0.00  0.00     0.018 A 
HETATM    5  C   UNK N   1      35.607  12.685  13.508  0.00  0.00     0.031 A 
HETATM    6  C   UNK N   1      34.858  12.754  12.331  0.00  0.00     0.032 A 
HETATM    7  C   UNK N   1      36.371  14.960  13.170  0.00  0.00     0.040 A 
HETATM    8  C   UNK N   1      35.654  16.321  11.194  0.00  0.00     0.174 A 
HETATM    9  C   UNK N   1      35.627  15.041  11.993  0.00  0.00    -0.011 A 
HETATM   10  C   UNK N   1      36.361  13.786  13.926  0.00  0.00     0.026 A 
HETATM   11  C   UNK N   1      33.383  15.300   8.431  0.00  0.00     0.024 A 
HETATM   12  C   UNK N   1      33.694  16.595   8.052  0.00  0.00     0.046 A 
HETATM   13  C   UNK N   1      34.861  13.924  11.569  0.00  0.00     0.041 A 
HETATM   14  C   UNK N   1      34.095  15.051   9.671  0.00  0.00     0.122 A 
HETATM   15  C   UNK N   1      34.604  17.139   9.071  0.00  0.00     0.260 A 
HETATM   16  N   UNK N   1      34.096  13.980  10.375  0.00  0.00    -0.341 N 
ATOM     17  HN  UNK N   1      33.548  13.171  10.078  1.00  0.00     0.167 HD
HETATM   18  N   UNK N   1      34.825  16.204  10.018  0.00  0.00    -0.294 N 
HETATM   19  O   UNK N   1      35.097  18.258   9.082  0.00  0.00    -0.267 OA
ENDROOT
BRANCH  10  20
HETATM   20  N   UNK N   1      37.114  13.712  15.112  0.00  0.00    -0.399 N 
HETATM   21  H   UNK N   1      37.013  12.937  15.711  0.00  0.00     0.156 HD
HETATM   22  H   UNK N   1      37.741  14.434  15.343  0.00  0.00     0.156 HD
ENDBRANCH  10  20
TORSDOF 1
ENDMDL
MODEL 6
REMARK VINA RESULT:      -6.8     16.285     17.825
REMARK  1 active torsions:
REMARK  status: ('A' for Active; 'I' for Inactive)
REMARK    1  A    between atoms: N_16  and  C_10 
ROOT
HETATM    1  C   UNK N   1      24.346  12.109  10.626  0.00  0.00     0.001 A 
HETATM    2  C   UNK N   1      23.242  11.843  11.469  0.00  0.00     0.001 A 
HETATM    3  C   UNK N   1      24.195  12.916   9.486  0.00  0.00     0.016 A 
HETATM    4  C   UNK N   1      21.973  12.381  11.183  0.00  0.00     0.018 A 
HETATM    5  C   UNK N   1      22.554  16.913   4.196  0.00  0.00     0.031 A 
HETATM    6  C   UNK N   1      23.185  16.105   5.144  0.00  0.00     0.032 A 
HETATM    7  C   UNK N   1      20.453  16.687   5.383  0.00  0.00     0.040 A 
HETATM    8  C   UNK N   1      20.253  15.333   7.480  0.00  0.00     0.174 A 
HETATM    9  C   UNK N   1      21.072  15.879   6.336  0.00  0.00    -0.011 A 
HETATM   10  C   UNK N   1      21.191  17.202   4.316  0.00  0.00     0.026 A 
HETATM   11  C   UNK N   1      22.932  13.433   9.226  0.00  0.00     0.024 A 
HETATM   12  C   UNK N   1      21.847  13.176  10.049  0.00  0.00     0.046 A 
HETATM   13  C   UNK N   1      22.455  15.584   6.215  0.00  0.00     0.041 A 
HETATM   14  C   UNK N   1      22.445  14.284   8.156  0.00  0.00     0.122 A 
HETATM   15  C   UNK N   1      20.690  13.877   9.472  0.00  0.00     0.260 A 
HETATM   16  N   UNK N   1      23.110  14.765   7.171  0.00  0.00    -0.341 N 
ATOM     17  HN  UNK N   1      24.105  14.559   7.075  1.00  0.00     0.167 HD
HETATM   18  N   UNK N   1      21.072  14.525   8.353  0.00  0.00    -0.294 N 
HETATM   19  O   UNK N   1      19.552  13.888   9.917  0.00  0.00    -0.267 OA
ENDROOT
BRANCH  10  20
HETATM   20  N   UNK N   1      20.559  18.017   3.358  0.00  0.00    -0.399 N 
HETATM   21  H   UNK N   1      20.273  17.633   2.498  0.00  0.00     0.156 HD
HETATM   22  H   UNK N   1      20.404  18.970   3.548  0.00  0.00     0.156 HD
ENDBRANCH  10  20
TORSDOF 1
ENDMDL
MODEL 7
REMARK VINA RESULT:      -6.7     20.857     24.188
REMARK  1 active torsions:
REMARK  status: ('A' for Active; 'I' for Inactive)
REMARK    1  A    between atoms: N_16  and  C_10 
ROOT
HETATM    1  C   UNK N   1      35.021  12.965  18.736  0.00  0.00     0.001 A 
HETATM    2  C   UNK N   1      35.408  11.638  19.037  0.00  0.00     0.001 A 
HETATM    3  C   UNK N   1      35.184  13.479  17.439  0.00  0.00     0.016 A 
HETATM    4  C   UNK N   1      35.963  10.809  18.044  0.00  0.00     0.018 A 
HETATM    5  C   UNK N   1      36.335  15.135  10.913  0.00  0.00     0.031 A 
HETATM    6  C   UNK N   1      35.988  15.101  12.266  0.00  0.00     0.032 A 
HETATM    7  C   UNK N   1      37.108  12.842  11.040  0.00  0.00     0.040 A 
HETATM    8  C   UNK N   1      37.007  11.523  13.167  0.00  0.00     0.174 A 
HETATM    9  C   UNK N   1      36.765  12.795  12.391  0.00  0.00    -0.011 A 
HETATM   10  C   UNK N   1      36.893  14.008  10.303  0.00  0.00     0.026 A 
HETATM   11  C   UNK N   1      35.734  12.640  16.479  0.00  0.00     0.024 A 
HETATM   12  C   UNK N   1      36.115  11.340  16.768  0.00  0.00     0.046 A 
HETATM   13  C   UNK N   1      36.198  13.939  13.012  0.00  0.00     0.041 A 
HETATM   14  C   UNK N   1      36.032  12.855  15.075  0.00  0.00     0.122 A 
HETATM   15  C   UNK N   1      36.649  10.759  15.527  0.00  0.00     0.260 A 
HETATM   16  N   UNK N   1      35.841  13.919  14.385  0.00  0.00    -0.341 N 
ATOM     17  HN  UNK N   1      35.434  14.746  14.822  1.00  0.00     0.167 HD
HETATM   18  N   UNK N   1      36.588  11.677  14.541  0.00  0.00    -0.294 N 
HETATM   19  O   UNK N   1      37.085   9.626  15.384  0.00  0.00    -0.267 OA
ENDROOT
BRANCH  10  20
HETATM   20  N   UNK N   1      37.241  14.047   8.940  0.00  0.00    -0.399 N 
HETATM   21  H   UNK N   1      36.778  13.463   8.297  0.00  0.00     0.156 HD
HETATM   22  H   UNK N   1      37.948  14.658   8.630  0.00  0.00     0.156 HD
ENDBRANCH  10  20
TORSDOF 1
ENDMDL
MODEL 8
REMARK VINA RESULT:      -6.5     13.803     16.120
REMARK  1 active torsions:
REMARK  status: ('A' for Active; 'I' for Inactive)
REMARK    1  A    between atoms: N_16  and  C_10 
ROOT
HETATM    1  C   UNK N   1      29.175  18.362   7.992  0.00  0.00     0.001 A 
HETATM    2  C   UNK N   1      28.815  17.781   6.754  0.00  0.00     0.001 A 
HETATM    3  C   UNK N   1      30.378  18.007   8.624  0.00  0.00     0.016 A 
HETATM    4  C   UNK N   1      29.655  16.838   6.131  0.00  0.00     0.018 A 
HETATM    5  C   UNK N   1      36.372  15.710  10.960  0.00  0.00     0.031 A 
HETATM    6  C   UNK N   1      35.151  16.356  10.755  0.00  0.00     0.032 A 
HETATM    7  C   UNK N   1      36.104  14.513   8.870  0.00  0.00     0.040 A 
HETATM    8  C   UNK N   1      34.099  14.834   7.404  0.00  0.00     0.174 A 
HETATM    9  C   UNK N   1      34.883  15.151   8.654  0.00  0.00    -0.011 A 
HETATM   10  C   UNK N   1      36.846  14.791  10.019  0.00  0.00     0.026 A 
HETATM   11  C   UNK N   1      31.188  17.074   7.988  0.00  0.00     0.024 A 
HETATM   12  C   UNK N   1      30.841  16.502   6.776  0.00  0.00     0.046 A 
HETATM   13  C   UNK N   1      34.400  16.085   9.609  0.00  0.00     0.041 A 
HETATM   14  C   UNK N   1      32.468  16.502   8.363  0.00  0.00     0.122 A 
HETATM   15  C   UNK N   1      31.921  15.573   6.410  0.00  0.00     0.260 A 
HETATM   16  N   UNK N   1      33.161  16.748   9.414  0.00  0.00    -0.341 N 
ATOM     17  HN  UNK N   1      32.823  17.417  10.106  1.00  0.00     0.167 HD
HETATM   18  N   UNK N   1      32.871  15.593   7.367  0.00  0.00    -0.294 N 
HETATM   19  O   UNK N   1      31.974  14.881   5.404  0.00  0.00    -0.267 OA
ENDROOT
BRANCH  10  20
HETATM   20  N   UNK N   1      38.078  14.143  10.229  0.00  0.00    -0.399 N 
HETATM   21  H   UNK N   1      38.350  13.403   9.641  0.00  0.00     0.156 HD
HETATM   22  H   UNK N   1      38.666  14.431  10.964  0.00  0.00     0.156 HD
ENDBRANCH  10  20
TORSDOF 1
ENDMDL
MODEL 9
REMARK VINA RESULT:      -6.5     13.959     17.150
REMARK  1 active torsions:
REMARK  status: ('A' for Active; 'I' for Inactive)
REMARK    1  A    between atoms: N_16  and  C_10 
ROOT
HETATM    1  C   UNK N   1      33.580  15.572   3.815  0.00  0.00     0.001 A 
HETATM    2  C   UNK N   1      33.079  16.894   3.854  0.00  0.00     0.001 A 
HETATM    3  C   UNK N   1      34.136  14.986   4.965  0.00  0.00     0.016 A 
HETATM    4  C   UNK N   1      33.128  17.647   5.042  0.00  0.00     0.018 A 
HETATM    5  C   UNK N   1      36.647  12.954  10.983  0.00  0.00     0.031 A 
HETATM    6  C   UNK N   1      36.222  13.071   9.658  0.00  0.00     0.032 A 
HETATM    7  C   UNK N   1      35.902  15.215  11.436  0.00  0.00     0.040 A 
HETATM    8  C   UNK N   1      34.844  16.643   9.672  0.00  0.00     0.174 A 
HETATM    9  C   UNK N   1      35.473  15.345  10.115  0.00  0.00    -0.011 A 
HETATM   10  C   UNK N   1      36.487  14.023  11.869  0.00  0.00     0.026 A 
HETATM   11  C   UNK N   1      34.172  15.751   6.124  0.00  0.00     0.024 A 
HETATM   12  C   UNK N   1      33.683  17.046   6.167  0.00  0.00     0.046 A 
HETATM   13  C   UNK N   1      35.635  14.259   9.215  0.00  0.00     0.041 A 
HETATM   14  C   UNK N   1      34.669  15.453   7.454  0.00  0.00     0.122 A 
HETATM   15  C   UNK N   1      33.885  17.540   7.537  0.00  0.00     0.260 A 
HETATM   16  N   UNK N   1      35.208  14.364   7.866  0.00  0.00    -0.341 N 
ATOM     17  HN  UNK N   1      35.328  13.578   7.227  1.00  0.00     0.167 HD
HETATM   18  N   UNK N   1      34.470  16.577   8.278  0.00  0.00    -0.294 N 
HETATM   19  O   UNK N   1      33.580  18.644   7.964  0.00  0.00    -0.267 OA
ENDROOT
BRANCH  10  20
HETATM   20  N   UNK N   1      36.917  13.900  13.203  0.00  0.00    -0.399 N 
HETATM   21  H   UNK N   1      37.341  13.065  13.507  0.00  0.00     0.156 HD
HETATM   22  H   UNK N   1      36.795  14.648  13.831  0.00  0.00     0.156 HD
ENDBRANCH  10  20
TORSDOF 1
ENDMDL
