MODEL 1
REMARK VINA RESULT:      -7.9      0.000      0.000
REMARK  3 active torsions:
REMARK  status: ('A' for Active; 'I' for Inactive)
REMARK    1  A    between atoms: C_3  and  C_2 
REMARK    2  A    between atoms: C_3  and  O_28 
REMARK    3  A    between atoms: C_24  and  N_27 
ROOT
HETATM    1  C   UNK N   1      36.725  14.507  10.124  0.00  0.00     0.173 A 
HETATM    2  C   UNK N   1      35.919  14.804   8.886  0.00  0.00     0.002 A 
HETATM    3  C   UNK N   1      34.740  15.553   9.023  0.00  0.00     0.043 A 
HETATM    4  C   UNK N   1      33.978  15.805   7.897  0.00  0.00     0.065 A 
HETATM    5  N   UNK N   1      34.346  15.373   6.675  0.00  0.00    -0.307 N 
HETATM    6  C   UNK N   1      35.494  14.646   6.488  0.00  0.00     0.257 A 
HETATM    7  O   UNK N   1      35.797  14.255   5.372  0.00  0.00    -0.267 OA
HETATM    8  C   UNK N   1      36.304  14.338   7.607  0.00  0.00     0.044 A 
HETATM    9  C   UNK N   1      37.542  13.510   7.420  0.00  0.00     0.224 A 
HETATM   10  O   UNK N   1      38.238  13.221   8.580  0.00  0.00    -0.314 OA
HETATM   11  C   UNK N   1      37.934  13.643   9.834  0.00  0.00     0.298 A 
HETATM   12  O   UNK N   1      38.671  13.321  10.753  0.00  0.00    -0.261 OA
HETATM   13  C   UNK N   1      33.344  15.747   5.656  0.00  0.00     0.173 A 
HETATM   14  C   UNK N   1      32.304  16.424   6.525  0.00  0.00    -0.010 A 
HETATM   15  C   UNK N   1      32.720  16.452   7.825  0.00  0.00     0.068 A 
HETATM   16  N   UNK N   1      31.967  16.953   8.833  0.00  0.00    -0.353 N 
ATOM     17  HN  UNK N   1      32.320  16.956   9.790  1.00  0.00     0.166 HD
HETATM   18  C   UNK N   1      30.732  17.455   8.551  0.00  0.00     0.045 A 
HETATM   19  C   UNK N   1      29.935  17.954   9.582  0.00  0.00     0.030 A 
HETATM   20  C   UNK N   1      28.658  18.446   9.304  0.00  0.00     0.005 A 
HETATM   21  C   UNK N   1      28.171  18.441   7.993  0.00  0.00     0.030 A 
HETATM   22  C   UNK N   1      28.955  17.948   6.944  0.00  0.00     0.038 A 
HETATM   23  C   UNK N   1      30.242  17.450   7.210  0.00  0.00     0.017 A 
HETATM   24  C   UNK N   1      31.053  16.926   6.179  0.00  0.00     0.027 A 
ENDROOT
BRANCH   1  25
HETATM   25  C   UNK N   1      35.796  13.801  11.128  0.00  0.00     0.049 C 
HETATM   26  C   UNK N   1      35.769  14.461  12.499  0.00  0.00     0.009 C 
ENDBRANCH   1  25
BRANCH   1  27
HETATM   27  O   UNK N   1      37.158  15.722  10.664  0.00  0.00    -0.375 OA
HETATM   28  H   UNK N   1      37.507  16.625  10.591  0.00  0.00     0.211 HD
ENDBRANCH   1  27
BRANCH  22  29
HETATM   29  N   UNK N   1      28.435  17.947   5.633  0.00  0.00    -0.398 N 
HETATM   30  H   UNK N   1      27.462  17.940   5.484  0.00  0.00     0.156 HD
HETATM   31  H   UNK N   1      29.048  17.952   4.862  0.00  0.00     0.156 HD
ENDBRANCH  22  29
TORSDOF 3
ENDMDL
MODEL 2
REMARK VINA RESULT:      -7.5      2.760      5.200
REMARK  3 active torsions:
REMARK  status: ('A' for Active; 'I' for Inactive)
REMARK    1  A    between atoms: C_3  and  C_2 
REMARK    2  A    between atoms: C_3  and  O_28 
REMARK    3  A    between atoms: C_24  and  N_27 
ROOT
HETATM    1  C   UNK N   1      33.292  14.392   5.078  0.00  0.00     0.173 A 
HETATM    2  C   UNK N   1      32.470  15.067   6.145  0.00  0.00     0.002 A 
HETATM    3  C   UNK N   1      31.410  15.895   5.744  0.00  0.00     0.043 A 
HETATM    4  C   UNK N   1      30.669  16.543   6.715  0.00  0.00     0.065 A 
HETATM    5  N   UNK N   1      30.921  16.386   8.029  0.00  0.00    -0.307 N 
HETATM    6  C   UNK N   1      31.939  15.580   8.471  0.00  0.00     0.257 A 
HETATM    7  O   UNK N   1      32.155  15.465   9.667  0.00  0.00    -0.267 OA
HETATM    8  C   UNK N   1      32.747  14.908   7.523  0.00  0.00     0.044 A 
HETATM    9  C   UNK N   1      33.888  14.054   7.993  0.00  0.00     0.224 A 
HETATM   10  O   UNK N   1      34.647  13.481   6.990  0.00  0.00    -0.314 OA
HETATM   11  C   UNK N   1      34.433  13.582   5.654  0.00  0.00     0.298 A 
HETATM   12  O   UNK N   1      35.185  12.987   4.896  0.00  0.00    -0.261 OA
HETATM   13  C   UNK N   1      30.009  17.211   8.847  0.00  0.00     0.173 A 
HETATM   14  C   UNK N   1      29.224  17.916   7.761  0.00  0.00    -0.010 A 
HETATM   15  C   UNK N   1      29.628  17.487   6.530  0.00  0.00     0.068 A 
HETATM   16  N   UNK N   1      29.132  17.984   5.371  0.00  0.00    -0.353 N 
ATOM     17  HN  UNK N   1      29.463  17.630   4.473  1.00  0.00     0.166 HD
HETATM   18  C   UNK N   1      28.186  18.963   5.422  0.00  0.00     0.045 A 
HETATM   19  C   UNK N   1      27.683  19.502   4.238  0.00  0.00     0.030 A 
HETATM   20  C   UNK N   1      26.732  20.523   4.282  0.00  0.00     0.005 A 
HETATM   21  C   UNK N   1      26.279  21.011   5.512  0.00  0.00     0.030 A 
HETATM   22  C   UNK N   1      26.769  20.483   6.711  0.00  0.00     0.038 A 
HETATM   23  C   UNK N   1      27.726  19.455   6.682  0.00  0.00     0.017 A 
HETATM   24  C   UNK N   1      28.257  18.912   7.872  0.00  0.00     0.027 A 
ENDROOT
BRANCH   1  25
HETATM   25  C   UNK N   1      33.837  15.487   4.144  0.00  0.00     0.049 C 
HETATM   26  C   UNK N   1      33.438  15.298   2.687  0.00  0.00     0.009 C 
ENDBRANCH   1  25
BRANCH   1  27
HETATM   27  O   UNK N   1      32.452  13.538   4.356  0.00  0.00    -0.375 OA
HETATM   28  H   UNK N   1      31.720  12.905   4.282  0.00  0.00     0.211 HD
ENDBRANCH   1  27
BRANCH  22  29
HETATM   29  N   UNK N   1      26.301  21.002   7.938  0.00  0.00    -0.398 N 
HETATM   30  H   UNK N   1      26.632  21.867   8.269  0.00  0.00     0.156 HD
HETATM   31  H   UNK N   1      25.641  20.494   8.465  0.00  0.00     0.156 HD
ENDBRANCH  22  29
TORSDOF 3
ENDMDL
MODEL 3
REMARK VINA RESULT:      -7.5      5.133      8.815
REMARK  3 active torsions:
REMARK  status: ('A' for Active; 'I' for Inactive)
REMARK    1  A    between atoms: C_3  and  C_2 
REMARK    2  A    between atoms: C_3  and  O_28 
REMARK    3  A    between atoms: C_24  and  N_27 
ROOT
HETATM    1  C   UNK N   1      34.830  14.421  10.103  0.00  0.00     0.173 A 
HETATM    2  C   UNK N   1      34.818  13.140  10.896  0.00  0.00     0.002 A 
HETATM    3  C   UNK N   1      34.764  13.223  12.296  0.00  0.00     0.043 A 
HETATM    4  C   UNK N   1      34.784  12.054  13.033  0.00  0.00     0.065 A 
HETATM    5  N   UNK N   1      34.831  10.842  12.448  0.00  0.00    -0.307 N 
HETATM    6  C   UNK N   1      34.876  10.707  11.083  0.00  0.00     0.257 A 
HETATM    7  O   UNK N   1      34.933   9.597  10.578  0.00  0.00    -0.267 OA
HETATM    8  C   UNK N   1      34.881  11.870  10.276  0.00  0.00     0.044 A 
HETATM    9  C   UNK N   1      34.969  11.736   8.784  0.00  0.00     0.224 A 
HETATM   10  O   UNK N   1      35.018  12.930   8.087  0.00  0.00    -0.314 OA
HETATM   11  C   UNK N   1      34.951  14.179   8.614  0.00  0.00     0.298 A 
HETATM   12  O   UNK N   1      34.980  15.134   7.855  0.00  0.00    -0.261 OA
HETATM   13  C   UNK N   1      34.876   9.765  13.458  0.00  0.00     0.173 A 
HETATM   14  C   UNK N   1      34.902  10.583  14.733  0.00  0.00    -0.010 A 
HETATM   15  C   UNK N   1      34.830  11.915  14.443  0.00  0.00     0.068 A 
HETATM   16  N   UNK N   1      34.885  12.884  15.388  0.00  0.00    -0.353 N 
ATOM     17  HN  UNK N   1      34.825  13.867  15.124  1.00  0.00     0.166 HD
HETATM   18  C   UNK N   1      35.021  12.526  16.696  0.00  0.00     0.045 A 
HETATM   19  C   UNK N   1      35.102  13.513  17.679  0.00  0.00     0.030 A 
HETATM   20  C   UNK N   1      35.267  13.155  19.017  0.00  0.00     0.005 A 
HETATM   21  C   UNK N   1      35.353  11.807  19.381  0.00  0.00     0.030 A 
HETATM   22  C   UNK N   1      35.271  10.802  18.412  0.00  0.00     0.038 A 
HETATM   23  C   UNK N   1      35.105  11.148  17.060  0.00  0.00     0.017 A 
HETATM   24  C   UNK N   1      35.038  10.161  16.052  0.00  0.00     0.027 A 
ENDROOT
BRANCH   1  25
HETATM   25  C   UNK N   1      36.014  15.269  10.602  0.00  0.00     0.049 C 
HETATM   26  C   UNK N   1      35.625  16.689  10.987  0.00  0.00     0.009 C 
ENDBRANCH   1  25
BRANCH   1  27
HETATM   27  O   UNK N   1      33.632  15.099  10.354  0.00  0.00    -0.375 OA
HETATM   28  H   UNK N   1      32.913  15.703  10.109  0.00  0.00     0.211 HD
ENDBRANCH   1  27
BRANCH  22  29
HETATM   29  N   UNK N   1      35.370   9.451  18.806  0.00  0.00    -0.398 N 
HETATM   30  H   UNK N   1      35.417   9.213  19.760  0.00  0.00     0.156 HD
HETATM   31  H   UNK N   1      35.391   8.741  18.123  0.00  0.00     0.156 HD
ENDBRANCH  22  29
TORSDOF 3
ENDMDL
MODEL 4
REMARK VINA RESULT:      -7.4     13.700     16.266
REMARK  3 active torsions:
REMARK  status: ('A' for Active; 'I' for Inactive)
REMARK    1  A    between atoms: C_3  and  C_2 
REMARK    2  A    between atoms: C_3  and  O_28 
REMARK    3  A    between atoms: C_24  and  N_27 
ROOT
HETATM    1  C   UNK N   1      31.696  20.380  -6.945  0.00  0.00     0.173 A 
HETATM    2  C   UNK N   1      31.183  21.163  -5.764  0.00  0.00     0.002 A 
HETATM    3  C   UNK N   1      30.070  21.997  -5.950  0.00  0.00     0.043 A 
HETATM    4  C   UNK N   1      29.612  22.743  -4.880  0.00  0.00     0.065 A 
HETATM    5  N   UNK N   1      30.188  22.675  -3.664  0.00  0.00    -0.307 N 
HETATM    6  C   UNK N   1      31.272  21.868  -3.429  0.00  0.00     0.257 A 
HETATM    7  O   UNK N   1      31.784  21.835  -2.321  0.00  0.00    -0.267 OA
HETATM    8  C   UNK N   1      31.800  21.097  -4.492  0.00  0.00     0.044 A 
HETATM    9  C   UNK N   1      33.009  20.240  -4.257  0.00  0.00     0.224 A 
HETATM   10  O   UNK N   1      33.478  19.565  -5.370  0.00  0.00    -0.314 OA
HETATM   11  C   UNK N   1      32.932  19.574  -6.612  0.00  0.00     0.298 A 
HETATM   12  O   UNK N   1      33.456  18.897  -7.484  0.00  0.00    -0.261 OA
HETATM   13  C   UNK N   1      29.529  23.593  -2.712  0.00  0.00     0.173 A 
HETATM   14  C   UNK N   1      28.504  24.243  -3.619  0.00  0.00    -0.010 A 
HETATM   15  C   UNK N   1      28.574  23.707  -4.873  0.00  0.00     0.068 A 
HETATM   16  N   UNK N   1      27.808  24.135  -5.905  0.00  0.00    -0.353 N 
ATOM     17  HN  UNK N   1      27.893  23.703  -6.825  1.00  0.00     0.166 HD
HETATM   18  C   UNK N   1      26.922  25.149  -5.696  0.00  0.00     0.045 A 
HETATM   19  C   UNK N   1      26.142  25.616  -6.756  0.00  0.00     0.030 A 
HETATM   20  C   UNK N   1      25.252  26.671  -6.556  0.00  0.00     0.005 A 
HETATM   21  C   UNK N   1      25.135  27.267  -5.296  0.00  0.00     0.030 A 
HETATM   22  C   UNK N   1      25.906  26.812  -4.220  0.00  0.00     0.038 A 
HETATM   23  C   UNK N   1      26.807  25.750  -4.407  0.00  0.00     0.017 A 
HETATM   24  C   UNK N   1      27.614  25.278  -3.349  0.00  0.00     0.027 A 
ENDROOT
BRANCH   1  25
HETATM   25  C   UNK N   1      32.002  21.381  -8.073  0.00  0.00     0.049 C 
HETATM   26  C   UNK N   1      33.187  22.289  -7.776  0.00  0.00     0.009 C 
ENDBRANCH   1  25
BRANCH   1  27
HETATM   27  O   UNK N   1      30.685  19.506  -7.359  0.00  0.00    -0.375 OA
HETATM   28  H   UNK N   1      30.146  18.703  -7.271  0.00  0.00     0.211 HD
ENDBRANCH   1  27
BRANCH  22  29
HETATM   29  N   UNK N   1      25.775  27.438  -2.962  0.00  0.00    -0.398 N 
HETATM   30  H   UNK N   1      24.909  27.437  -2.495  0.00  0.00     0.156 HD
HETATM   31  H   UNK N   1      26.554  27.877  -2.549  0.00  0.00     0.156 HD
ENDBRANCH  22  29
TORSDOF 3
ENDMDL
MODEL 5
REMARK VINA RESULT:      -7.4      3.545      7.484
REMARK  3 active torsions:
REMARK  status: ('A' for Active; 'I' for Inactive)
REMARK    1  A    between atoms: C_3  and  C_2 
REMARK    2  A    between atoms: C_3  and  O_28 
REMARK    3  A    between atoms: C_24  and  N_27 
ROOT
HETATM    1  C   UNK N   1      34.499  14.721   5.511  0.00  0.00     0.173 A 
HETATM    2  C   UNK N   1      34.691  15.331   6.876  0.00  0.00     0.002 A 
HETATM    3  C   UNK N   1      35.259  14.538   7.885  0.00  0.00     0.043 A 
HETATM    4  C   UNK N   1      35.411  15.078   9.148  0.00  0.00     0.065 A 
HETATM    5  N   UNK N   1      35.052  16.345   9.430  0.00  0.00    -0.307 N 
HETATM    6  C   UNK N   1      34.502  17.164   8.476  0.00  0.00     0.257 A 
HETATM    7  O   UNK N   1      34.173  18.304   8.760  0.00  0.00    -0.267 OA
HETATM    8  C   UNK N   1      34.301  16.658   7.169  0.00  0.00     0.044 A 
HETATM    9  C   UNK N   1      33.666  17.531   6.126  0.00  0.00     0.224 A 
HETATM   10  O   UNK N   1      33.467  16.930   4.897  0.00  0.00    -0.314 OA
HETATM   11  C   UNK N   1      33.825  15.670   4.543  0.00  0.00     0.298 A 
HETATM   12  O   UNK N   1      33.601  15.298   3.402  0.00  0.00    -0.261 OA
HETATM   13  C   UNK N   1      35.288  16.660  10.854  0.00  0.00     0.173 A 
HETATM   14  C   UNK N   1      35.796  15.323  11.352  0.00  0.00    -0.010 A 
HETATM   15  C   UNK N   1      35.869  14.430  10.322  0.00  0.00     0.068 A 
HETATM   16  N   UNK N   1      36.243  13.139  10.486  0.00  0.00    -0.353 N 
ATOM     17  HN  UNK N   1      36.285  12.507   9.686  1.00  0.00     0.166 HD
HETATM   18  C   UNK N   1      36.563  12.695  11.734  0.00  0.00     0.045 A 
HETATM   19  C   UNK N   1      36.927  11.361  11.921  0.00  0.00     0.030 A 
HETATM   20  C   UNK N   1      37.231  10.893  13.201  0.00  0.00     0.005 A 
HETATM   21  C   UNK N   1      37.172  11.756  14.300  0.00  0.00     0.030 A 
HETATM   22  C   UNK N   1      36.811  13.097  14.133  0.00  0.00     0.038 A 
HETATM   23  C   UNK N   1      36.502  13.582  12.851  0.00  0.00     0.017 A 
HETATM   24  C   UNK N   1      36.116  14.925  12.647  0.00  0.00     0.027 A 
ENDROOT
BRANCH   1  25
HETATM   25  C   UNK N   1      33.653  13.447   5.683  0.00  0.00     0.049 C 
HETATM   26  C   UNK N   1      32.199  13.725   6.035  0.00  0.00     0.009 C 
ENDBRANCH   1  25
BRANCH   1  27
HETATM   27  O   UNK N   1      35.758  14.381   5.005  0.00  0.00    -0.375 OA
HETATM   28  H   UNK N   1      36.615  14.595   4.604  0.00  0.00     0.211 HD
ENDBRANCH   1  27
BRANCH  22  29
HETATM   29  N   UNK N   1      36.750  13.943  15.261  0.00  0.00    -0.398 N 
HETATM   30  H   UNK N   1      37.499  13.975  15.899  0.00  0.00     0.156 HD
HETATM   31  H   UNK N   1      35.955  14.504  15.410  0.00  0.00     0.156 HD
ENDBRANCH  22  29
TORSDOF 3
ENDMDL
MODEL 6
REMARK VINA RESULT:      -7.3     13.640     17.165
REMARK  3 active torsions:
REMARK  status: ('A' for Active; 'I' for Inactive)
REMARK    1  A    between atoms: C_3  and  C_2 
REMARK    2  A    between atoms: C_3  and  O_28 
REMARK    3  A    between atoms: C_24  and  N_27 
ROOT
HETATM    1  C   UNK N   1      27.187  23.924  -5.895  0.00  0.00     0.173 A 
HETATM    2  C   UNK N   1      28.307  23.408  -5.030  0.00  0.00     0.002 A 
HETATM    3  C   UNK N   1      29.343  22.687  -5.643  0.00  0.00     0.043 A 
HETATM    4  C   UNK N   1      30.360  22.183  -4.854  0.00  0.00     0.065 A 
HETATM    5  N   UNK N   1      30.396  22.382  -3.523  0.00  0.00    -0.307 N 
HETATM    6  C   UNK N   1      29.412  23.088  -2.877  0.00  0.00     0.257 A 
HETATM    7  O   UNK N   1      29.460  23.243  -1.668  0.00  0.00    -0.267 OA
HETATM    8  C   UNK N   1      28.333  23.610  -3.630  0.00  0.00     0.044 A 
HETATM    9  C   UNK N   1      27.231  24.351  -2.931  0.00  0.00     0.224 A 
HETATM   10  O   UNK N   1      26.198  24.777  -3.746  0.00  0.00    -0.314 OA
HETATM   11  C   UNK N   1      26.114  24.628  -5.092  0.00  0.00     0.298 A 
HETATM   12  O   UNK N   1      25.143  25.090  -5.671  0.00  0.00    -0.261 OA
HETATM   13  C   UNK N   1      31.565  21.713  -2.916  0.00  0.00     0.173 A 
HETATM   14  C   UNK N   1      32.165  21.044  -4.135  0.00  0.00    -0.010 A 
HETATM   15  C   UNK N   1      31.441  21.356  -5.250  0.00  0.00     0.068 A 
HETATM   16  N   UNK N   1      31.719  20.856  -6.478  0.00  0.00    -0.353 N 
ATOM     17  HN  UNK N   1      31.152  21.120  -7.284  1.00  0.00     0.166 HD
HETATM   18  C   UNK N   1      32.767  19.997  -6.622  0.00  0.00     0.045 A 
HETATM   19  C   UNK N   1      33.051  19.455  -7.876  0.00  0.00     0.030 A 
HETATM   20  C   UNK N   1      34.106  18.554  -8.026  0.00  0.00     0.005 A 
HETATM   21  C   UNK N   1      34.884  18.190  -6.922  0.00  0.00     0.030 A 
HETATM   22  C   UNK N   1      34.617  18.723  -5.656  0.00  0.00     0.038 A 
HETATM   23  C   UNK N   1      33.558  19.631  -5.491  0.00  0.00     0.017 A 
HETATM   24  C   UNK N   1      33.247  20.175  -4.225  0.00  0.00     0.027 A 
ENDROOT
BRANCH   1  25
HETATM   25  C   UNK N   1      26.585  22.724  -6.648  0.00  0.00     0.049 C 
HETATM   26  C   UNK N   1      26.524  22.920  -8.155  0.00  0.00     0.009 C 
ENDBRANCH   1  25
BRANCH   1  27
HETATM   27  O   UNK N   1      27.728  24.829  -6.815  0.00  0.00    -0.375 OA
HETATM   28  H   UNK N   1      27.840  25.716  -7.192  0.00  0.00     0.211 HD
ENDBRANCH   1  27
BRANCH  22  29
HETATM   29  N   UNK N   1      35.412  18.330  -4.558  0.00  0.00    -0.398 N 
HETATM   30  H   UNK N   1      35.110  17.610  -3.959  0.00  0.00     0.156 HD
HETATM   31  H   UNK N   1      36.273  18.779  -4.390  0.00  0.00     0.156 HD
ENDBRANCH  22  29
TORSDOF 3
ENDMDL
MODEL 7
REMARK VINA RESULT:      -7.2      3.826      5.657
REMARK  3 active torsions:
REMARK  status: ('A' for Active; 'I' for Inactive)
REMARK    1  A    between atoms: C_3  and  C_2 
REMARK    2  A    between atoms: C_3  and  O_28 
REMARK    3  A    between atoms: C_24  and  N_27 
ROOT
HETATM    1  C   UNK N   1      32.224  17.236   8.185  0.00  0.00     0.173 A 
HETATM    2  C   UNK N   1      31.532  17.132   6.851  0.00  0.00     0.002 A 
HETATM    3  C   UNK N   1      30.161  16.835   6.834  0.00  0.00     0.043 A 
HETATM    4  C   UNK N   1      29.524  16.707   5.613  0.00  0.00     0.065 A 
HETATM    5  N   UNK N   1      30.174  16.881   4.447  0.00  0.00    -0.307 N 
HETATM    6  C   UNK N   1      31.512  17.182   4.411  0.00  0.00     0.257 A 
HETATM    7  O   UNK N   1      32.082  17.321   3.340  0.00  0.00    -0.267 OA
HETATM    8  C   UNK N   1      32.223  17.303   5.629  0.00  0.00     0.044 A 
HETATM    9  C   UNK N   1      33.696  17.595   5.602  0.00  0.00     0.224 A 
HETATM   10  O   UNK N   1      34.309  17.644   6.840  0.00  0.00    -0.314 OA
HETATM   11  C   UNK N   1      33.708  17.501   8.049  0.00  0.00     0.298 A 
HETATM   12  O   UNK N   1      34.392  17.601   9.056  0.00  0.00    -0.261 OA
HETATM   13  C   UNK N   1      29.274  16.656   3.298  0.00  0.00     0.173 A 
HETATM   14  C   UNK N   1      27.999  16.265   4.017  0.00  0.00    -0.010 A 
HETATM   15  C   UNK N   1      28.182  16.323   5.369  0.00  0.00     0.068 A 
HETATM   16  N   UNK N   1      27.224  15.976   6.261  0.00  0.00    -0.353 N 
ATOM     17  HN  UNK N   1      27.404  16.038   7.263  1.00  0.00     0.166 HD
HETATM   18  C   UNK N   1      26.016  15.545   5.802  0.00  0.00     0.045 A 
HETATM   19  C   UNK N   1      25.027  15.163   6.709  0.00  0.00     0.030 A 
HETATM   20  C   UNK N   1      23.796  14.695   6.246  0.00  0.00     0.005 A 
HETATM   21  C   UNK N   1      23.547  14.608   4.872  0.00  0.00     0.030 A 
HETATM   22  C   UNK N   1      24.524  14.988   3.946  0.00  0.00     0.038 A 
HETATM   23  C   UNK N   1      25.768  15.460   4.398  0.00  0.00     0.017 A 
HETATM   24  C   UNK N   1      26.784  15.835   3.493  0.00  0.00     0.027 A 
ENDROOT
BRANCH   1  25
HETATM   25  C   UNK N   1      31.988  15.915   8.939  0.00  0.00     0.049 C 
HETATM   26  C   UNK N   1      32.677  14.718   8.301  0.00  0.00     0.009 C 
ENDBRANCH   1  25
BRANCH   1  27
HETATM   27  O   UNK N   1      31.642  18.291   8.897  0.00  0.00    -0.375 OA
HETATM   28  H   UNK N   1      31.622  18.941   9.617  0.00  0.00     0.211 HD
ENDBRANCH   1  27
BRANCH  22  29
HETATM   29  N   UNK N   1      24.249  14.880   2.566  0.00  0.00    -0.398 N 
HETATM   30  H   UNK N   1      24.392  15.649   1.970  0.00  0.00     0.156 HD
HETATM   31  H   UNK N   1      23.911  14.031   2.198  0.00  0.00     0.156 HD
ENDBRANCH  22  29
TORSDOF 3
ENDMDL
MODEL 8
REMARK VINA RESULT:      -7.2     14.220     17.810
REMARK  3 active torsions:
REMARK  status: ('A' for Active; 'I' for Inactive)
REMARK    1  A    between atoms: C_3  and  C_2 
REMARK    2  A    between atoms: C_3  and  O_28 
REMARK    3  A    between atoms: C_24  and  N_27 
ROOT
HETATM    1  C   UNK N   1      26.772  26.301  -4.145  0.00  0.00     0.173 A 
HETATM    2  C   UNK N   1      27.247  25.146  -4.988  0.00  0.00     0.002 A 
HETATM    3  C   UNK N   1      28.304  24.360  -4.505  0.00  0.00     0.043 A 
HETATM    4  C   UNK N   1      28.767  23.317  -5.285  0.00  0.00     0.065 A 
HETATM    5  N   UNK N   1      28.220  23.021  -6.480  0.00  0.00    -0.307 N 
HETATM    6  C   UNK N   1      27.178  23.753  -6.991  0.00  0.00     0.257 A 
HETATM    7  O   UNK N   1      26.709  23.474  -8.083  0.00  0.00    -0.267 OA
HETATM    8  C   UNK N   1      26.676  24.848  -6.248  0.00  0.00     0.044 A 
HETATM    9  C   UNK N   1      25.562  25.680  -6.814  0.00  0.00     0.224 A 
HETATM   10  O   UNK N   1      25.176  26.756  -6.035  0.00  0.00    -0.314 OA
HETATM   11  C   UNK N   1      25.670  27.093  -4.817  0.00  0.00     0.298 A 
HETATM   12  O   UNK N   1      25.199  28.063  -4.244  0.00  0.00    -0.261 OA
HETATM   13  C   UNK N   1      28.919  21.888  -7.119  0.00  0.00     0.173 A 
HETATM   14  C   UNK N   1      30.006  21.622  -6.098  0.00  0.00    -0.010 A 
HETATM   15  C   UNK N   1      29.873  22.467  -5.034  0.00  0.00     0.068 A 
HETATM   16  N   UNK N   1      30.737  22.488  -3.991  0.00  0.00    -0.353 N 
ATOM     17  HN  UNK N   1      30.597  23.135  -3.216  1.00  0.00     0.166 HD
HETATM   18  C   UNK N   1      31.798  21.632  -3.993  0.00  0.00     0.045 A 
HETATM   19  C   UNK N   1      32.710  21.658  -2.938  0.00  0.00     0.030 A 
HETATM   20  C   UNK N   1      33.813  20.802  -2.945  0.00  0.00     0.005 A 
HETATM   21  C   UNK N   1      34.009  19.915  -4.008  0.00  0.00     0.030 A 
HETATM   22  C   UNK N   1      33.105  19.871  -5.075  0.00  0.00     0.038 A 
HETATM   23  C   UNK N   1      31.991  20.727  -5.081  0.00  0.00     0.017 A 
HETATM   24  C   UNK N   1      31.068  20.724  -6.150  0.00  0.00     0.027 A 
ENDROOT
BRANCH   1  25
HETATM   25  C   UNK N   1      27.984  27.207  -3.867  0.00  0.00     0.049 C 
HETATM   26  C   UNK N   1      28.465  27.973  -5.092  0.00  0.00     0.009 C 
ENDBRANCH   1  25
BRANCH   1  27
HETATM   27  O   UNK N   1      26.286  25.788  -2.937  0.00  0.00    -0.375 OA
HETATM   28  H   UNK N   1      25.574  25.566  -2.317  0.00  0.00     0.211 HD
ENDBRANCH   1  27
BRANCH  22  29
HETATM   29  N   UNK N   1      33.333  18.973  -6.139  0.00  0.00    -0.398 N 
HETATM   30  H   UNK N   1      33.848  18.148  -5.991  0.00  0.00     0.156 HD
HETATM   31  H   UNK N   1      32.975  19.173  -7.035  0.00  0.00     0.156 HD
ENDBRANCH  22  29
TORSDOF 3
ENDMDL
MODEL 9
REMARK VINA RESULT:      -7.0      2.325      3.427
REMARK  3 active torsions:
REMARK  status: ('A' for Active; 'I' for Inactive)
REMARK    1  A    between atoms: C_3  and  C_2 
REMARK    2  A    between atoms: C_3  and  O_28 
REMARK    3  A    between atoms: C_24  and  N_27 
ROOT
HETATM    1  C   UNK N   1      35.194  12.717  10.008  0.00  0.00     0.173 A 
HETATM    2  C   UNK N   1      34.658  14.053   9.562  0.00  0.00     0.002 A 
HETATM    3  C   UNK N   1      33.556  14.073   8.694  0.00  0.00     0.043 A 
HETATM    4  C   UNK N   1      33.076  15.293   8.256  0.00  0.00     0.065 A 
HETATM    5  N   UNK N   1      33.620  16.458   8.655  0.00  0.00    -0.307 N 
HETATM    6  C   UNK N   1      34.692  16.493   9.510  0.00  0.00     0.257 A 
HETATM    7  O   UNK N   1      35.175  17.563   9.846  0.00  0.00    -0.267 OA
HETATM    8  C   UNK N   1      35.241  15.274   9.975  0.00  0.00     0.044 A 
HETATM    9  C   UNK N   1      36.437  15.298  10.881  0.00  0.00     0.224 A 
HETATM   10  O   UNK N   1      36.930  14.056  11.240  0.00  0.00    -0.314 OA
HETATM   11  C   UNK N   1      36.416  12.849  10.891  0.00  0.00     0.298 A 
HETATM   12  O   UNK N   1      36.956  11.840  11.317  0.00  0.00    -0.261 OA
HETATM   13  C   UNK N   1      32.944  17.607   8.016  0.00  0.00     0.173 A 
HETATM   14  C   UNK N   1      31.948  16.885   7.133  0.00  0.00    -0.010 A 
HETATM   15  C   UNK N   1      32.045  15.535   7.314  0.00  0.00     0.068 A 
HETATM   16  N   UNK N   1      31.309  14.638   6.615  0.00  0.00    -0.353 N 
ATOM     17  HN  UNK N   1      31.414  13.638   6.786  1.00  0.00     0.166 HD
HETATM   18  C   UNK N   1      30.426  15.091   5.682  0.00  0.00     0.045 A 
HETATM   19  C   UNK N   1      29.677  14.178   4.937  0.00  0.00     0.030 A 
HETATM   20  C   UNK N   1      28.789  14.633   3.961  0.00  0.00     0.005 A 
HETATM   21  C   UNK N   1      28.645  16.004   3.724  0.00  0.00     0.030 A 
HETATM   22  C   UNK N   1      29.384  16.936   4.460  0.00  0.00     0.038 A 
HETATM   23  C   UNK N   1      30.282  16.492   5.446  0.00  0.00     0.017 A 
HETATM   24  C   UNK N   1      31.059  17.402   6.195  0.00  0.00     0.027 A 
ENDROOT
BRANCH   1  25
HETATM   25  C   UNK N   1      35.536  11.906   8.745  0.00  0.00     0.049 C 
HETATM   26  C   UNK N   1      36.714  12.468   7.962  0.00  0.00     0.009 C 
ENDBRANCH   1  25
BRANCH   1  27
HETATM   27  O   UNK N   1      34.188  12.062  10.725  0.00  0.00    -0.375 OA
HETATM   28  H   UNK N   1      33.396  11.504  10.791  0.00  0.00     0.211 HD
ENDBRANCH   1  27
BRANCH  22  29
HETATM   29  N   UNK N   1      29.226  18.312   4.193  0.00  0.00    -0.398 N 
HETATM   30  H   UNK N   1      28.645  18.612   3.458  0.00  0.00     0.156 HD
HETATM   31  H   UNK N   1      29.700  18.977   4.745  0.00  0.00     0.156 HD
ENDBRANCH  22  29
TORSDOF 3
ENDMDL
