MODEL 1
REMARK VINA RESULT:      -5.8      0.000      0.000
REMARK  16 active torsions:
REMARK  status: ('A' for Active; 'I' for Inactive)
REMARK    1  A    between atoms: C_3  and  C_2 
REMARK    2  A    between atoms: C_6  and  C_3 
REMARK    3  A    between atoms: C_5  and  C_4 
REMARK    4  A    between atoms: C_8  and  C_5 
REMARK    5  A    between atoms: C_9  and  C_6 
REMARK    6  A    between atoms: C_10  and  C_7 
REMARK    7  A    between atoms: C_11  and  C_8 
REMARK    8  A    between atoms: C_15  and  C_9 
REMARK    9  A    between atoms: C_16  and  C_10 
REMARK   10  A    between atoms: C_20  and  C_11 
REMARK   11  A    between atoms: C_15  and  C_12 
REMARK   12  A    between atoms: C_17  and  C_13 
REMARK   13  A    between atoms: C_15  and  O_21 
REMARK   14  A    between atoms: C_18  and  O_22 
REMARK   15  A    between atoms: C_19  and  O_23 
REMARK   16  A    between atoms: O_25  and  C_20 
ROOT
HETATM    1  C   UNK N   1      28.043  17.968   9.148  0.00  0.00     0.064 C 
HETATM    2  C   UNK N   1      29.416  16.902   7.446  0.00  0.00     0.028 C 
HETATM    3  C   UNK N   1      30.276  17.464   8.607  0.00  0.00     0.043 C 
HETATM    4  C   UNK N   1      27.999  17.440   7.727  0.00  0.00     0.125 C 
HETATM    5  C   UNK N   1      29.425  18.593   9.186  0.00  0.00     0.128 C 
ENDROOT
BRANCH   2   6
HETATM    6  C   UNK N   1      29.822  17.309   6.019  0.00  0.00     0.034 C 
BRANCH   6   7
HETATM    7  C   UNK N   1      28.859  18.290   5.417  0.00  0.00    -0.030 C 
HETATM    8  C   UNK N   1      28.127  17.978   4.343  0.00  0.00    -0.031 C 
BRANCH   8   9
HETATM    9  C   UNK N   1      27.208  18.993   3.726  0.00  0.00     0.027 C 
BRANCH   9  10
HETATM   10  C   UNK N   1      26.040  19.351   4.649  0.00  0.00     0.014 C 
BRANCH  10  11
HETATM   11  C   UNK N   1      26.029  20.826   5.042  0.00  0.00     0.110 C 
BRANCH  11  12
HETATM   12  C   UNK N   1      26.731  21.058   6.341  0.00  0.00     0.139 C 
HETATM   13  O   UNK N   1      27.793  21.655   6.370  0.00  0.00    -0.650 OA
BRANCH  12  14
HETATM   14  O   UNK N   1      26.197  20.582   7.482  0.00  0.00    -0.776 OA
HETATM   15  H   UNK N   1      26.477  20.917   8.311  0.00  0.00     0.167 HD
ENDBRANCH  12  14
ENDBRANCH  11  12
ENDBRANCH  10  11
ENDBRANCH   9  10
ENDBRANCH   8   9
ENDBRANCH   6   7
ENDBRANCH   2   6
BRANCH   3  16
HETATM   16  C   UNK N   1      31.724  17.744   8.258  0.00  0.00    -0.021 C 
HETATM   17  C   UNK N   1      32.753  16.956   8.628  0.00  0.00     0.001 C 
BRANCH  17  18
HETATM   18  C   UNK N   1      34.174  17.323   8.280  0.00  0.00     0.140 C 
BRANCH  18  19
HETATM   19  C   UNK N   1      34.841  16.254   7.415  0.00  0.00     0.036 C 
BRANCH  19  20
HETATM   20  C   UNK N   1      33.924  15.696   6.330  0.00  0.00     0.003 C 
BRANCH  20  21
HETATM   21  C   UNK N   1      33.716  16.727   5.228  0.00  0.00    -0.000 C 
BRANCH  21  22
HETATM   22  C   UNK N   1      33.041  16.127   4.000  0.00  0.00    -0.005 C 
HETATM   23  C   UNK N   1      32.303  17.196   3.220  0.00  0.00     0.005 C 
ENDBRANCH  21  22
ENDBRANCH  20  21
ENDBRANCH  19  20
ENDBRANCH  18  19
BRANCH  18  24
HETATM   24  O   UNK N   1      34.904  17.519   9.453  0.00  0.00    -0.392 OA
HETATM   25  H   UNK N   1      34.967  17.410  10.415  0.00  0.00     0.210 HD
ENDBRANCH  18  24
ENDBRANCH  17  18
ENDBRANCH   3  16
BRANCH   4  26
HETATM   26  O   UNK N   1      27.021  16.458   7.555  0.00  0.00    -0.395 OA
HETATM   27  H   UNK N   1      26.624  15.987   8.304  0.00  0.00     0.210 HD
ENDBRANCH   4  26
BRANCH   5  28
HETATM   28  O   UNK N   1      29.801  18.910  10.493  0.00  0.00    -0.395 OA
HETATM   29  H   UNK N   1      30.575  18.523  10.931  0.00  0.00     0.210 HD
ENDBRANCH   5  28
TORSDOF 16
ENDMDL
MODEL 2
REMARK VINA RESULT:      -5.7      5.562      9.186
REMARK  16 active torsions:
REMARK  status: ('A' for Active; 'I' for Inactive)
REMARK    1  A    between atoms: C_3  and  C_2 
REMARK    2  A    between atoms: C_6  and  C_3 
REMARK    3  A    between atoms: C_5  and  C_4 
REMARK    4  A    between atoms: C_8  and  C_5 
REMARK    5  A    between atoms: C_9  and  C_6 
REMARK    6  A    between atoms: C_10  and  C_7 
REMARK    7  A    between atoms: C_11  and  C_8 
REMARK    8  A    between atoms: C_15  and  C_9 
REMARK    9  A    between atoms: C_16  and  C_10 
REMARK   10  A    between atoms: C_20  and  C_11 
REMARK   11  A    between atoms: C_15  and  C_12 
REMARK   12  A    between atoms: C_17  and  C_13 
REMARK   13  A    between atoms: C_15  and  O_21 
REMARK   14  A    between atoms: C_18  and  O_22 
REMARK   15  A    between atoms: C_19  and  O_23 
REMARK   16  A    between atoms: O_25  and  C_20 
ROOT
HETATM    1  C   UNK N   1      20.122  20.219   2.313  0.00  0.00     0.064 C 
HETATM    2  C   UNK N   1      20.811  18.180   3.446  0.00  0.00     0.028 C 
HETATM    3  C   UNK N   1      21.788  19.349   3.727  0.00  0.00     0.043 C 
HETATM    4  C   UNK N   1      19.869  18.725   2.354  0.00  0.00     0.125 C 
HETATM    5  C   UNK N   1      21.625  20.268   2.518  0.00  0.00     0.128 C 
ENDROOT
BRANCH   2   6
HETATM    6  C   UNK N   1      21.428  16.861   2.949  0.00  0.00     0.034 C 
BRANCH   6   7
HETATM    7  C   UNK N   1      21.245  15.746   3.937  0.00  0.00    -0.030 C 
HETATM    8  C   UNK N   1      21.123  15.988   5.247  0.00  0.00    -0.031 C 
BRANCH   8   9
HETATM    9  C   UNK N   1      20.994  14.854   6.222  0.00  0.00     0.027 C 
BRANCH   9  10
HETATM   10  C   UNK N   1      20.897  15.345   7.669  0.00  0.00     0.014 C 
BRANCH  10  11
HETATM   11  C   UNK N   1      20.632  16.844   7.766  0.00  0.00     0.110 C 
BRANCH  11  12
HETATM   12  C   UNK N   1      19.340  17.134   8.461  0.00  0.00     0.139 C 
HETATM   13  O   UNK N   1      19.278  18.012   9.304  0.00  0.00    -0.650 OA
BRANCH  12  14
HETATM   14  O   UNK N   1      18.248  16.402   8.172  0.00  0.00    -0.776 OA
HETATM   15  H   UNK N   1      17.888  15.818   8.809  0.00  0.00     0.167 HD
ENDBRANCH  12  14
ENDBRANCH  11  12
ENDBRANCH  10  11
ENDBRANCH   9  10
ENDBRANCH   8   9
ENDBRANCH   6   7
ENDBRANCH   2   6
BRANCH   3  16
HETATM   16  C   UNK N   1      23.184  18.934   4.148  0.00  0.00    -0.021 C 
HETATM   17  C   UNK N   1      24.313  19.436   3.609  0.00  0.00     0.001 C 
BRANCH  17  18
HETATM   18  C   UNK N   1      25.668  18.941   4.050  0.00  0.00     0.140 C 
BRANCH  18  19
HETATM   19  C   UNK N   1      26.783  19.909   3.654  0.00  0.00     0.036 C 
BRANCH  19  20
HETATM   20  C   UNK N   1      27.918  19.972   4.671  0.00  0.00     0.003 C 
BRANCH  20  21
HETATM   21  C   UNK N   1      27.361  20.127   6.080  0.00  0.00    -0.000 C 
BRANCH  21  22
HETATM   22  C   UNK N   1      26.922  21.558   6.369  0.00  0.00    -0.005 C 
HETATM   23  C   UNK N   1      26.015  21.604   7.582  0.00  0.00     0.005 C 
ENDBRANCH  21  22
ENDBRANCH  20  21
ENDBRANCH  19  20
ENDBRANCH  18  19
BRANCH  18  24
HETATM   24  O   UNK N   1      25.904  17.681   3.500  0.00  0.00    -0.392 OA
HETATM   25  H   UNK N   1      25.688  16.735   3.478  0.00  0.00     0.210 HD
ENDBRANCH  18  24
ENDBRANCH  17  18
ENDBRANCH   3  16
BRANCH   4  26
HETATM   26  O   UNK N   1      18.532  18.419   2.613  0.00  0.00    -0.395 OA
HETATM   27  H   UNK N   1      17.866  19.106   2.774  0.00  0.00     0.210 HD
ENDBRANCH   4  26
BRANCH   5  28
HETATM   28  O   UNK N   1      22.057  21.568   2.790  0.00  0.00    -0.395 OA
HETATM   29  H   UNK N   1      22.528  22.116   2.143  0.00  0.00     0.210 HD
ENDBRANCH   5  28
TORSDOF 16
ENDMDL
MODEL 3
REMARK VINA RESULT:      -5.7     11.444     13.911
REMARK  16 active torsions:
REMARK  status: ('A' for Active; 'I' for Inactive)
REMARK    1  A    between atoms: C_3  and  C_2 
REMARK    2  A    between atoms: C_6  and  C_3 
REMARK    3  A    between atoms: C_5  and  C_4 
REMARK    4  A    between atoms: C_8  and  C_5 
REMARK    5  A    between atoms: C_9  and  C_6 
REMARK    6  A    between atoms: C_10  and  C_7 
REMARK    7  A    between atoms: C_11  and  C_8 
REMARK    8  A    between atoms: C_15  and  C_9 
REMARK    9  A    between atoms: C_16  and  C_10 
REMARK   10  A    between atoms: C_20  and  C_11 
REMARK   11  A    between atoms: C_15  and  C_12 
REMARK   12  A    between atoms: C_17  and  C_13 
REMARK   13  A    between atoms: C_15  and  O_21 
REMARK   14  A    between atoms: C_18  and  O_22 
REMARK   15  A    between atoms: C_19  and  O_23 
REMARK   16  A    between atoms: O_25  and  C_20 
ROOT
HETATM    1  C   UNK N   1      25.491  24.785  -5.263  0.00  0.00     0.064 C 
HETATM    2  C   UNK N   1      27.481  24.197  -6.534  0.00  0.00     0.028 C 
HETATM    3  C   UNK N   1      27.561  23.684  -5.073  0.00  0.00     0.043 C 
HETATM    4  C   UNK N   1      26.225  25.090  -6.555  0.00  0.00     0.125 C 
HETATM    5  C   UNK N   1      26.651  24.633  -4.296  0.00  0.00     0.128 C 
ENDROOT
BRANCH   2   6
HETATM    6  C   UNK N   1      28.676  25.015  -7.051  0.00  0.00     0.034 C 
BRANCH   6   7
HETATM    7  C   UNK N   1      28.497  26.486  -6.811  0.00  0.00    -0.030 C 
HETATM    8  C   UNK N   1      29.073  27.098  -5.771  0.00  0.00    -0.031 C 
BRANCH   8   9
HETATM    9  C   UNK N   1      28.836  28.560  -5.521  0.00  0.00     0.027 C 
BRANCH   9  10
HETATM   10  C   UNK N   1      27.358  28.936  -5.652  0.00  0.00     0.014 C 
BRANCH  10  11
HETATM   11  C   UNK N   1      26.867  29.807  -4.499  0.00  0.00     0.110 C 
BRANCH  11  12
HETATM   12  C   UNK N   1      26.483  28.986  -3.310  0.00  0.00     0.139 C 
HETATM   13  O   UNK N   1      27.187  28.974  -2.315  0.00  0.00    -0.650 OA
BRANCH  12  14
HETATM   14  O   UNK N   1      25.366  28.236  -3.350  0.00  0.00    -0.776 OA
HETATM   15  H   UNK N   1      25.347  27.393  -2.940  0.00  0.00     0.167 HD
ENDBRANCH  12  14
ENDBRANCH  11  12
ENDBRANCH  10  11
ENDBRANCH   9  10
ENDBRANCH   8   9
ENDBRANCH   6   7
ENDBRANCH   2   6
BRANCH   3  16
HETATM   16  C   UNK N   1      28.964  23.428  -4.557  0.00  0.00    -0.021 C 
HETATM   17  C   UNK N   1      29.468  23.988  -3.440  0.00  0.00     0.001 C 
BRANCH  17  18
HETATM   18  C   UNK N   1      30.890  23.719  -3.013  0.00  0.00     0.140 C 
BRANCH  18  19
HETATM   19  C   UNK N   1      31.670  22.959  -4.085  0.00  0.00     0.036 C 
BRANCH  19  20
HETATM   20  C   UNK N   1      32.077  21.553  -3.653  0.00  0.00     0.003 C 
BRANCH  20  21
HETATM   21  C   UNK N   1      31.110  20.522  -4.223  0.00  0.00    -0.000 C 
BRANCH  21  22
HETATM   22  C   UNK N   1      31.328  20.292  -5.713  0.00  0.00    -0.005 C 
HETATM   23  C   UNK N   1      30.047  20.534  -6.485  0.00  0.00     0.005 C 
ENDBRANCH  21  22
ENDBRANCH  20  21
ENDBRANCH  19  20
ENDBRANCH  18  19
BRANCH  18  24
HETATM   24  O   UNK N   1      30.887  23.001  -1.817  0.00  0.00    -0.392 OA
HETATM   25  H   UNK N   1      30.821  22.143  -1.368  0.00  0.00     0.210 HD
ENDBRANCH  18  24
ENDBRANCH  17  18
ENDBRANCH   3  16
BRANCH   4  26
HETATM   26  O   UNK N   1      25.435  24.859  -7.682  0.00  0.00    -0.395 OA
HETATM   27  H   UNK N   1      24.734  25.471  -7.957  0.00  0.00     0.210 HD
ENDBRANCH   4  26
BRANCH   5  28
HETATM   28  O   UNK N   1      26.231  24.077  -3.086  0.00  0.00    -0.395 OA
HETATM   29  H   UNK N   1      26.612  23.266  -2.715  0.00  0.00     0.210 HD
ENDBRANCH   5  28
TORSDOF 16
ENDMDL
MODEL 4
REMARK VINA RESULT:      -5.6      9.587     12.689
REMARK  16 active torsions:
REMARK  status: ('A' for Active; 'I' for Inactive)
REMARK    1  A    between atoms: C_3  and  C_2 
REMARK    2  A    between atoms: C_6  and  C_3 
REMARK    3  A    between atoms: C_5  and  C_4 
REMARK    4  A    between atoms: C_8  and  C_5 
REMARK    5  A    between atoms: C_9  and  C_6 
REMARK    6  A    between atoms: C_10  and  C_7 
REMARK    7  A    between atoms: C_11  and  C_8 
REMARK    8  A    between atoms: C_15  and  C_9 
REMARK    9  A    between atoms: C_16  and  C_10 
REMARK   10  A    between atoms: C_20  and  C_11 
REMARK   11  A    between atoms: C_15  and  C_12 
REMARK   12  A    between atoms: C_17  and  C_13 
REMARK   13  A    between atoms: C_15  and  O_21 
REMARK   14  A    between atoms: C_18  and  O_22 
REMARK   15  A    between atoms: C_19  and  O_23 
REMARK   16  A    between atoms: O_25  and  C_20 
ROOT
HETATM    1  C   UNK N   1      36.300  14.226  13.881  0.00  0.00     0.064 C 
HETATM    2  C   UNK N   1      34.677  12.739  14.916  0.00  0.00     0.028 C 
HETATM    3  C   UNK N   1      35.549  13.461  15.974  0.00  0.00     0.043 C 
HETATM    4  C   UNK N   1      35.339  13.096  13.570  0.00  0.00     0.125 C 
HETATM    5  C   UNK N   1      36.841  13.788  15.230  0.00  0.00     0.128 C 
ENDROOT
BRANCH   2   6
HETATM    6  C   UNK N   1      34.576  11.208  15.024  0.00  0.00     0.034 C 
BRANCH   6   7
HETATM    7  C   UNK N   1      33.820  10.610  13.874  0.00  0.00    -0.030 C 
HETATM    8  C   UNK N   1      34.435   9.873  12.943  0.00  0.00    -0.031 C 
BRANCH   8   9
HETATM    9  C   UNK N   1      33.668   9.330  11.772  0.00  0.00     0.027 C 
BRANCH   9  10
HETATM   10  C   UNK N   1      34.423   9.512  10.452  0.00  0.00     0.014 C 
BRANCH  10  11
HETATM   11  C   UNK N   1      33.559   9.205   9.232  0.00  0.00     0.110 C 
BRANCH  11  12
HETATM   12  C   UNK N   1      32.207   9.833   9.339  0.00  0.00     0.139 C 
HETATM   13  O   UNK N   1      31.201   9.160   9.193  0.00  0.00    -0.650 OA
BRANCH  12  14
HETATM   14  O   UNK N   1      32.101  11.155   9.572  0.00  0.00    -0.776 OA
HETATM   15  H   UNK N   1      31.688  11.714   8.944  0.00  0.00     0.167 HD
ENDBRANCH  12  14
ENDBRANCH  11  12
ENDBRANCH  10  11
ENDBRANCH   9  10
ENDBRANCH   8   9
ENDBRANCH   6   7
ENDBRANCH   2   6
BRANCH   3  16
HETATM   16  C   UNK N   1      35.635  12.766  17.320  0.00  0.00    -0.021 C 
HETATM   17  C   UNK N   1      35.263  13.333  18.484  0.00  0.00     0.001 C 
BRANCH  17  18
HETATM   18  C   UNK N   1      35.419  12.594  19.790  0.00  0.00     0.140 C 
BRANCH  18  19
HETATM   19  C   UNK N   1      35.554  11.087  19.576  0.00  0.00     0.036 C 
BRANCH  19  20
HETATM   20  C   UNK N   1      34.522  10.272  20.350  0.00  0.00     0.003 C 
BRANCH  20  21
HETATM   21  C   UNK N   1      33.944   9.172  19.468  0.00  0.00    -0.000 C 
BRANCH  21  22
HETATM   22  C   UNK N   1      34.475   9.242  18.041  0.00  0.00    -0.005 C 
HETATM   23  C   UNK N   1      35.144   7.938  17.656  0.00  0.00     0.005 C 
ENDBRANCH  21  22
ENDBRANCH  20  21
ENDBRANCH  19  20
ENDBRANCH  18  19
BRANCH  18  24
HETATM   24  O   UNK N   1      34.327  12.869  20.613  0.00  0.00    -0.392 OA
HETATM   25  H   UNK N   1      33.839  13.512  21.151  0.00  0.00     0.210 HD
ENDBRANCH  18  24
ENDBRANCH  17  18
ENDBRANCH   3  16
BRANCH   4  26
HETATM   26  O   UNK N   1      34.399  13.449  12.600  0.00  0.00    -0.395 OA
HETATM   27  H   UNK N   1      34.029  14.343  12.541  0.00  0.00     0.210 HD
ENDBRANCH   4  26
BRANCH   5  28
HETATM   28  O   UNK N   1      37.552  14.819  15.848  0.00  0.00    -0.395 OA
HETATM   29  H   UNK N   1      37.994  15.529  15.355  0.00  0.00     0.210 HD
ENDBRANCH   5  28
TORSDOF 16
ENDMDL
MODEL 5
REMARK VINA RESULT:      -5.6      6.137      9.334
REMARK  16 active torsions:
REMARK  status: ('A' for Active; 'I' for Inactive)
REMARK    1  A    between atoms: C_3  and  C_2 
REMARK    2  A    between atoms: C_6  and  C_3 
REMARK    3  A    between atoms: C_5  and  C_4 
REMARK    4  A    between atoms: C_8  and  C_5 
REMARK    5  A    between atoms: C_9  and  C_6 
REMARK    6  A    between atoms: C_10  and  C_7 
REMARK    7  A    between atoms: C_11  and  C_8 
REMARK    8  A    between atoms: C_15  and  C_9 
REMARK    9  A    between atoms: C_16  and  C_10 
REMARK   10  A    between atoms: C_20  and  C_11 
REMARK   11  A    between atoms: C_15  and  C_12 
REMARK   12  A    between atoms: C_17  and  C_13 
REMARK   13  A    between atoms: C_15  and  O_21 
REMARK   14  A    between atoms: C_18  and  O_22 
REMARK   15  A    between atoms: C_19  and  O_23 
REMARK   16  A    between atoms: O_25  and  C_20 
ROOT
HETATM    1  C   UNK N   1      22.798  11.851  11.739  0.00  0.00     0.064 C 
HETATM    2  C   UNK N   1      23.659  13.203   9.909  0.00  0.00     0.028 C 
HETATM    3  C   UNK N   1      22.140  13.427  10.121  0.00  0.00     0.043 C 
HETATM    4  C   UNK N   1      24.001  12.016  10.831  0.00  0.00     0.125 C 
HETATM    5  C   UNK N   1      21.661  12.132  10.773  0.00  0.00     0.128 C 
ENDROOT
BRANCH   2   6
HETATM    6  C   UNK N   1      24.118  12.865   8.480  0.00  0.00     0.034 C 
BRANCH   6   7
HETATM    7  C   UNK N   1      25.235  13.755   8.022  0.00  0.00    -0.030 C 
HETATM    8  C   UNK N   1      25.033  14.719   7.117  0.00  0.00    -0.031 C 
BRANCH   8   9
HETATM    9  C   UNK N   1      26.177  15.564   6.635  0.00  0.00     0.027 C 
BRANCH   9  10
HETATM   10  C   UNK N   1      26.055  15.905   5.147  0.00  0.00     0.014 C 
BRANCH  10  11
HETATM   11  C   UNK N   1      25.519  17.315   4.908  0.00  0.00     0.110 C 
BRANCH  11  12
HETATM   12  C   UNK N   1      26.550  18.356   5.202  0.00  0.00     0.139 C 
HETATM   13  O   UNK N   1      27.690  18.230   4.787  0.00  0.00    -0.650 OA
BRANCH  12  14
HETATM   14  O   UNK N   1      26.224  19.426   5.952  0.00  0.00    -0.776 OA
HETATM   15  H   UNK N   1      26.553  19.509   6.825  0.00  0.00     0.167 HD
ENDBRANCH  12  14
ENDBRANCH  11  12
ENDBRANCH  10  11
ENDBRANCH   9  10
ENDBRANCH   8   9
ENDBRANCH   6   7
ENDBRANCH   2   6
BRANCH   3  16
HETATM   16  C   UNK N   1      21.393  13.960   8.915  0.00  0.00    -0.021 C 
HETATM   17  C   UNK N   1      21.002  15.242   8.778  0.00  0.00     0.001 C 
BRANCH  17  18
HETATM   18  C   UNK N   1      20.223  15.689   7.566  0.00  0.00     0.140 C 
BRANCH  18  19
HETATM   19  C   UNK N   1      20.849  16.919   6.909  0.00  0.00     0.036 C 
BRANCH  19  20
HETATM   20  C   UNK N   1      22.058  16.588   6.037  0.00  0.00     0.003 C 
BRANCH  20  21
HETATM   21  C   UNK N   1      21.624  15.809   4.802  0.00  0.00    -0.000 C 
BRANCH  21  22
HETATM   22  C   UNK N   1      22.557  14.641   4.503  0.00  0.00    -0.005 C 
HETATM   23  C   UNK N   1      22.127  13.405   5.267  0.00  0.00     0.005 C 
ENDBRANCH  21  22
ENDBRANCH  20  21
ENDBRANCH  19  20
ENDBRANCH  18  19
BRANCH  18  24
HETATM   24  O   UNK N   1      18.904  15.957   7.934  0.00  0.00    -0.392 OA
HETATM   25  H   UNK N   1      17.970  15.695   7.913  0.00  0.00     0.210 HD
ENDBRANCH  18  24
ENDBRANCH  17  18
ENDBRANCH   3  16
BRANCH   4  26
HETATM   26  O   UNK N   1      25.181  12.230  11.546  0.00  0.00    -0.395 OA
HETATM   27  H   UNK N   1      25.883  11.563  11.596  0.00  0.00     0.210 HD
ENDBRANCH   4  26
BRANCH   5  28
HETATM   28  O   UNK N   1      20.453  12.306  11.451  0.00  0.00    -0.395 OA
HETATM   29  H   UNK N   1      19.988  13.156  11.497  0.00  0.00     0.210 HD
ENDBRANCH   5  28
TORSDOF 16
ENDMDL
MODEL 6
REMARK VINA RESULT:      -5.5     11.680     14.919
REMARK  16 active torsions:
REMARK  status: ('A' for Active; 'I' for Inactive)
REMARK    1  A    between atoms: C_3  and  C_2 
REMARK    2  A    between atoms: C_6  and  C_3 
REMARK    3  A    between atoms: C_5  and  C_4 
REMARK    4  A    between atoms: C_8  and  C_5 
REMARK    5  A    between atoms: C_9  and  C_6 
REMARK    6  A    between atoms: C_10  and  C_7 
REMARK    7  A    between atoms: C_11  and  C_8 
REMARK    8  A    between atoms: C_15  and  C_9 
REMARK    9  A    between atoms: C_16  and  C_10 
REMARK   10  A    between atoms: C_20  and  C_11 
REMARK   11  A    between atoms: C_15  and  C_12 
REMARK   12  A    between atoms: C_17  and  C_13 
REMARK   13  A    between atoms: C_15  and  O_21 
REMARK   14  A    between atoms: C_18  and  O_22 
REMARK   15  A    between atoms: C_19  and  O_23 
REMARK   16  A    between atoms: O_25  and  C_20 
ROOT
HETATM    1  C   UNK N   1      32.159  23.058  -3.890  0.00  0.00     0.064 C 
HETATM    2  C   UNK N   1      30.834  24.629  -5.191  0.00  0.00     0.028 C 
HETATM    3  C   UNK N   1      30.282  24.469  -3.751  0.00  0.00     0.043 C 
HETATM    4  C   UNK N   1      31.915  23.537  -5.307  0.00  0.00     0.125 C 
HETATM    5  C   UNK N   1      30.749  23.079  -3.327  0.00  0.00     0.128 C 
ENDROOT
BRANCH   2   6
HETATM    6  C   UNK N   1      29.830  24.453  -6.344  0.00  0.00     0.034 C 
BRANCH   6   7
HETATM    7  C   UNK N   1      29.524  25.754  -7.026  0.00  0.00    -0.030 C 
HETATM    8  C   UNK N   1      29.097  26.819  -6.339  0.00  0.00    -0.031 C 
BRANCH   8   9
HETATM    9  C   UNK N   1      28.746  28.094  -7.051  0.00  0.00     0.027 C 
BRANCH   9  10
HETATM   10  C   UNK N   1      27.657  28.883  -6.318  0.00  0.00     0.014 C 
BRANCH  10  11
HETATM   11  C   UNK N   1      26.997  28.079  -5.201  0.00  0.00     0.110 C 
BRANCH  11  12
HETATM   12  C   UNK N   1      26.290  28.963  -4.225  0.00  0.00     0.139 C 
HETATM   13  O   UNK N   1      26.488  30.166  -4.228  0.00  0.00    -0.650 OA
BRANCH  12  14
HETATM   14  O   UNK N   1      25.451  28.423  -3.322  0.00  0.00    -0.776 OA
HETATM   15  H   UNK N   1      24.616  28.094  -3.589  0.00  0.00     0.167 HD
ENDBRANCH  12  14
ENDBRANCH  11  12
ENDBRANCH  10  11
ENDBRANCH   9  10
ENDBRANCH   8   9
ENDBRANCH   6   7
ENDBRANCH   2   6
BRANCH   3  16
HETATM   16  C   UNK N   1      28.822  24.836  -3.577  0.00  0.00    -0.021 C 
HETATM   17  C   UNK N   1      27.801  23.982  -3.788  0.00  0.00     0.001 C 
BRANCH  17  18
HETATM   18  C   UNK N   1      26.370  24.434  -3.636  0.00  0.00     0.140 C 
BRANCH  18  19
HETATM   19  C   UNK N   1      25.676  24.589  -4.990  0.00  0.00     0.036 C 
BRANCH  19  20
HETATM   20  C   UNK N   1      26.031  23.484  -5.980  0.00  0.00     0.003 C 
BRANCH  20  21
HETATM   21  C   UNK N   1      26.168  24.055  -7.386  0.00  0.00    -0.000 C 
BRANCH  21  22
HETATM   22  C   UNK N   1      25.786  25.529  -7.447  0.00  0.00    -0.005 C 
HETATM   23  C   UNK N   1      26.098  26.107  -8.813  0.00  0.00     0.005 C 
ENDBRANCH  21  22
ENDBRANCH  20  21
ENDBRANCH  19  20
ENDBRANCH  18  19
BRANCH  18  24
HETATM   24  O   UNK N   1      26.335  25.639  -2.935  0.00  0.00    -0.392 OA
HETATM   25  H   UNK N   1      26.822  26.381  -2.540  0.00  0.00     0.210 HD
ENDBRANCH  18  24
ENDBRANCH  17  18
ENDBRANCH   3  16
BRANCH   4  26
HETATM   26  O   UNK N   1      33.079  24.013  -5.915  0.00  0.00    -0.395 OA
HETATM   27  H   UNK N   1      33.696  23.427  -6.380  0.00  0.00     0.210 HD
ENDBRANCH   4  26
BRANCH   5  28
HETATM   28  O   UNK N   1      30.756  22.933  -1.938  0.00  0.00    -0.395 OA
HETATM   29  H   UNK N   1      31.105  23.608  -1.336  0.00  0.00     0.210 HD
ENDBRANCH   5  28
TORSDOF 16
ENDMDL
MODEL 7
REMARK VINA RESULT:      -5.4     12.089     15.291
REMARK  16 active torsions:
REMARK  status: ('A' for Active; 'I' for Inactive)
REMARK    1  A    between atoms: C_3  and  C_2 
REMARK    2  A    between atoms: C_6  and  C_3 
REMARK    3  A    between atoms: C_5  and  C_4 
REMARK    4  A    between atoms: C_8  and  C_5 
REMARK    5  A    between atoms: C_9  and  C_6 
REMARK    6  A    between atoms: C_10  and  C_7 
REMARK    7  A    between atoms: C_11  and  C_8 
REMARK    8  A    between atoms: C_15  and  C_9 
REMARK    9  A    between atoms: C_16  and  C_10 
REMARK   10  A    between atoms: C_20  and  C_11 
REMARK   11  A    between atoms: C_15  and  C_12 
REMARK   12  A    between atoms: C_17  and  C_13 
REMARK   13  A    between atoms: C_15  and  O_21 
REMARK   14  A    between atoms: C_18  and  O_22 
REMARK   15  A    between atoms: C_19  and  O_23 
REMARK   16  A    between atoms: O_25  and  C_20 
ROOT
HETATM    1  C   UNK N   1      25.770  20.936  -8.619  0.00  0.00     0.064 C 
HETATM    2  C   UNK N   1      25.878  22.978  -7.301  0.00  0.00     0.028 C 
HETATM    3  C   UNK N   1      27.218  22.692  -8.024  0.00  0.00     0.043 C 
HETATM    4  C   UNK N   1      25.039  21.706  -7.537  0.00  0.00     0.125 C 
HETATM    5  C   UNK N   1      27.216  21.178  -8.225  0.00  0.00     0.128 C 
ENDROOT
BRANCH   2   6
HETATM    6  C   UNK N   1      25.947  23.248  -5.788  0.00  0.00     0.034 C 
BRANCH   6   7
HETATM    7  C   UNK N   1      25.607  24.670  -5.453  0.00  0.00    -0.030 C 
HETATM    8  C   UNK N   1      25.590  25.623  -6.392  0.00  0.00    -0.031 C 
BRANCH   8   9
HETATM    9  C   UNK N   1      25.298  27.049  -6.025  0.00  0.00     0.027 C 
BRANCH   9  10
HETATM   10  C   UNK N   1      26.577  27.879  -5.874  0.00  0.00     0.014 C 
BRANCH  10  11
HETATM   11  C   UNK N   1      27.208  27.742  -4.491  0.00  0.00     0.110 C 
BRANCH  11  12
HETATM   12  C   UNK N   1      26.285  28.206  -3.412  0.00  0.00     0.139 C 
HETATM   13  O   UNK N   1      25.882  27.425  -2.568  0.00  0.00    -0.650 OA
BRANCH  12  14
HETATM   14  O   UNK N   1      25.876  29.488  -3.389  0.00  0.00    -0.776 OA
HETATM   15  H   UNK N   1      26.502  30.185  -3.370  0.00  0.00     0.167 HD
ENDBRANCH  12  14
ENDBRANCH  11  12
ENDBRANCH  10  11
ENDBRANCH   9  10
ENDBRANCH   8   9
ENDBRANCH   6   7
ENDBRANCH   2   6
BRANCH   3  16
HETATM   16  C   UNK N   1      28.437  23.346  -7.403  0.00  0.00    -0.021 C 
HETATM   17  C   UNK N   1      28.937  24.534  -7.799  0.00  0.00     0.001 C 
BRANCH  17  18
HETATM   18  C   UNK N   1      30.180  25.101  -7.162  0.00  0.00     0.140 C 
BRANCH  18  19
HETATM   19  C   UNK N   1      29.917  25.587  -5.737  0.00  0.00     0.036 C 
BRANCH  19  20
HETATM   20  C   UNK N   1      30.974  25.129  -4.737  0.00  0.00     0.003 C 
BRANCH  20  21
HETATM   21  C   UNK N   1      30.326  24.772  -3.405  0.00  0.00    -0.000 C 
BRANCH  21  22
HETATM   22  C   UNK N   1      29.255  23.699  -3.557  0.00  0.00    -0.005 C 
HETATM   23  C   UNK N   1      29.012  22.996  -2.236  0.00  0.00     0.005 C 
ENDBRANCH  21  22
ENDBRANCH  20  21
ENDBRANCH  19  20
ENDBRANCH  18  19
BRANCH  18  24
HETATM   24  O   UNK N   1      30.669  26.147  -7.946  0.00  0.00    -0.392 OA
HETATM   25  H   UNK N   1      30.549  26.732  -8.711  0.00  0.00     0.210 HD
ENDBRANCH  18  24
ENDBRANCH  17  18
ENDBRANCH   3  16
BRANCH   4  26
HETATM   26  O   UNK N   1      23.722  22.005  -7.894  0.00  0.00    -0.395 OA
HETATM   27  H   UNK N   1      23.497  22.411  -8.745  0.00  0.00     0.210 HD
ENDBRANCH   4  26
BRANCH   5  28
HETATM   28  O   UNK N   1      28.090  20.786  -9.241  0.00  0.00    -0.395 OA
HETATM   29  H   UNK N   1      27.815  20.243  -9.997  0.00  0.00     0.210 HD
ENDBRANCH   5  28
TORSDOF 16
ENDMDL
MODEL 8
REMARK VINA RESULT:      -5.4     11.062     14.135
REMARK  16 active torsions:
REMARK  status: ('A' for Active; 'I' for Inactive)
REMARK    1  A    between atoms: C_3  and  C_2 
REMARK    2  A    between atoms: C_6  and  C_3 
REMARK    3  A    between atoms: C_5  and  C_4 
REMARK    4  A    between atoms: C_8  and  C_5 
REMARK    5  A    between atoms: C_9  and  C_6 
REMARK    6  A    between atoms: C_10  and  C_7 
REMARK    7  A    between atoms: C_11  and  C_8 
REMARK    8  A    between atoms: C_15  and  C_9 
REMARK    9  A    between atoms: C_16  and  C_10 
REMARK   10  A    between atoms: C_20  and  C_11 
REMARK   11  A    between atoms: C_15  and  C_12 
REMARK   12  A    between atoms: C_17  and  C_13 
REMARK   13  A    between atoms: C_15  and  O_21 
REMARK   14  A    between atoms: C_18  and  O_22 
REMARK   15  A    between atoms: C_19  and  O_23 
REMARK   16  A    between atoms: O_25  and  C_20 
ROOT
HETATM    1  C   UNK N   1      33.212  21.415  -4.303  0.00  0.00     0.064 C 
HETATM    2  C   UNK N   1      30.885  21.360  -3.596  0.00  0.00     0.028 C 
HETATM    3  C   UNK N   1      31.021  21.204  -5.132  0.00  0.00     0.043 C 
HETATM    4  C   UNK N   1      32.309  21.713  -3.122  0.00  0.00     0.125 C 
HETATM    5  C   UNK N   1      32.348  21.885  -5.459  0.00  0.00     0.128 C 
ENDROOT
BRANCH   2   6
HETATM    6  C   UNK N   1      29.916  22.443  -3.091  0.00  0.00     0.034 C 
BRANCH   6   7
HETATM    7  C   UNK N   1      30.590  23.775  -2.937  0.00  0.00    -0.030 C 
HETATM    8  C   UNK N   1      30.363  24.775  -3.795  0.00  0.00    -0.031 C 
BRANCH   8   9
HETATM    9  C   UNK N   1      31.089  26.081  -3.652  0.00  0.00     0.027 C 
BRANCH   9  10
HETATM   10  C   UNK N   1      30.132  27.277  -3.652  0.00  0.00     0.014 C 
BRANCH  10  11
HETATM   11  C   UNK N   1      29.087  27.195  -4.762  0.00  0.00     0.110 C 
BRANCH  11  12
HETATM   12  C   UNK N   1      27.871  28.001  -4.438  0.00  0.00     0.139 C 
HETATM   13  O   UNK N   1      27.491  28.876  -5.197  0.00  0.00    -0.650 OA
BRANCH  12  14
HETATM   14  O   UNK N   1      27.208  27.777  -3.288  0.00  0.00    -0.776 OA
HETATM   15  H   UNK N   1      26.287  27.939  -3.233  0.00  0.00     0.167 HD
ENDBRANCH  12  14
ENDBRANCH  11  12
ENDBRANCH  10  11
ENDBRANCH   9  10
ENDBRANCH   8   9
ENDBRANCH   6   7
ENDBRANCH   2   6
BRANCH   3  16
HETATM   16  C   UNK N   1      29.788  21.581  -5.930  0.00  0.00    -0.021 C 
HETATM   17  C   UNK N   1      29.481  21.057  -7.133  0.00  0.00     0.001 C 
BRANCH  17  18
HETATM   18  C   UNK N   1      28.257  21.515  -7.887  0.00  0.00     0.140 C 
BRANCH  18  19
HETATM   19  C   UNK N   1      27.660  22.786  -7.282  0.00  0.00     0.036 C 
BRANCH  19  20
HETATM   20  C   UNK N   1      26.151  22.704  -7.073  0.00  0.00     0.003 C 
BRANCH  20  21
HETATM   21  C   UNK N   1      25.750  23.441  -5.801  0.00  0.00    -0.000 C 
BRANCH  21  22
HETATM   22  C   UNK N   1      26.932  24.152  -5.153  0.00  0.00    -0.005 C 
HETATM   23  C   UNK N   1      26.721  24.286  -3.658  0.00  0.00     0.005 C 
ENDBRANCH  21  22
ENDBRANCH  20  21
ENDBRANCH  19  20
ENDBRANCH  18  19
BRANCH  18  24
HETATM   24  O   UNK N   1      27.308  20.493  -7.897  0.00  0.00    -0.392 OA
HETATM   25  H   UNK N   1      26.936  19.706  -7.467  0.00  0.00     0.210 HD
ENDBRANCH  18  24
ENDBRANCH  17  18
ENDBRANCH   3  16
BRANCH   4  26
HETATM   26  O   UNK N   1      32.674  20.997  -1.980  0.00  0.00    -0.395 OA
HETATM   27  H   UNK N   1      32.884  21.435  -1.141  0.00  0.00     0.210 HD
ENDBRANCH   4  26
BRANCH   5  28
HETATM   28  O   UNK N   1      32.865  21.458  -6.684  0.00  0.00    -0.395 OA
HETATM   29  H   UNK N   1      32.330  21.388  -7.490  0.00  0.00     0.210 HD
ENDBRANCH   5  28
TORSDOF 16
ENDMDL
MODEL 9
REMARK VINA RESULT:      -5.4     11.762     14.449
REMARK  16 active torsions:
REMARK  status: ('A' for Active; 'I' for Inactive)
REMARK    1  A    between atoms: C_3  and  C_2 
REMARK    2  A    between atoms: C_6  and  C_3 
REMARK    3  A    between atoms: C_5  and  C_4 
REMARK    4  A    between atoms: C_8  and  C_5 
REMARK    5  A    between atoms: C_9  and  C_6 
REMARK    6  A    between atoms: C_10  and  C_7 
REMARK    7  A    between atoms: C_11  and  C_8 
REMARK    8  A    between atoms: C_15  and  C_9 
REMARK    9  A    between atoms: C_16  and  C_10 
REMARK   10  A    between atoms: C_20  and  C_11 
REMARK   11  A    between atoms: C_15  and  C_12 
REMARK   12  A    between atoms: C_17  and  C_13 
REMARK   13  A    between atoms: C_15  and  O_21 
REMARK   14  A    between atoms: C_18  and  O_22 
REMARK   15  A    between atoms: C_19  and  O_23 
REMARK   16  A    between atoms: O_25  and  C_20 
ROOT
HETATM    1  C   UNK N   1      26.365  21.656  -8.660  0.00  0.00     0.064 C 
HETATM    2  C   UNK N   1      26.357  23.438  -7.004  0.00  0.00     0.028 C 
HETATM    3  C   UNK N   1      27.781  22.868  -7.225  0.00  0.00     0.043 C 
HETATM    4  C   UNK N   1      25.438  22.482  -7.789  0.00  0.00     0.125 C 
HETATM    5  C   UNK N   1      27.537  21.444  -7.720  0.00  0.00     0.128 C 
ENDROOT
BRANCH   2   6
HETATM    6  C   UNK N   1      25.858  23.519  -5.551  0.00  0.00     0.034 C 
BRANCH   6   7
HETATM    7  C   UNK N   1      25.402  24.902  -5.188  0.00  0.00    -0.030 C 
HETATM    8  C   UNK N   1      25.325  25.873  -6.104  0.00  0.00    -0.031 C 
BRANCH   8   9
HETATM    9  C   UNK N   1      24.917  27.263  -5.707  0.00  0.00     0.027 C 
BRANCH   9  10
HETATM   10  C   UNK N   1      25.613  27.725  -4.423  0.00  0.00     0.014 C 
BRANCH  10  11
HETATM   11  C   UNK N   1      27.043  28.199  -4.665  0.00  0.00     0.110 C 
BRANCH  11  12
HETATM   12  C   UNK N   1      27.790  28.382  -3.384  0.00  0.00     0.139 C 
HETATM   13  O   UNK N   1      28.983  28.136  -3.325  0.00  0.00    -0.650 OA
BRANCH  12  14
HETATM   14  O   UNK N   1      27.135  28.794  -2.282  0.00  0.00    -0.776 OA
HETATM   15  H   UNK N   1      27.577  29.305  -1.632  0.00  0.00     0.167 HD
ENDBRANCH  12  14
ENDBRANCH  11  12
ENDBRANCH  10  11
ENDBRANCH   9  10
ENDBRANCH   8   9
ENDBRANCH   6   7
ENDBRANCH   2   6
BRANCH   3  16
HETATM   16  C   UNK N   1      28.748  23.089  -6.078  0.00  0.00    -0.021 C 
HETATM   17  C   UNK N   1      29.122  24.305  -5.634  0.00  0.00     0.001 C 
BRANCH  17  18
HETATM   18  C   UNK N   1      30.124  24.445  -4.515  0.00  0.00     0.140 C 
BRANCH  18  19
HETATM   19  C   UNK N   1      29.558  23.958  -3.181  0.00  0.00     0.036 C 
BRANCH  19  20
HETATM   20  C   UNK N   1      30.494  23.009  -2.439  0.00  0.00     0.003 C 
BRANCH  20  21
HETATM   21  C   UNK N   1      31.356  22.232  -3.426  0.00  0.00    -0.000 C 
BRANCH  21  22
HETATM   22  C   UNK N   1      30.713  20.913  -3.835  0.00  0.00    -0.005 C 
HETATM   23  C   UNK N   1      31.409  20.333  -5.051  0.00  0.00     0.005 C 
ENDBRANCH  21  22
ENDBRANCH  20  21
ENDBRANCH  19  20
ENDBRANCH  18  19
BRANCH  18  24
HETATM   24  O   UNK N   1      30.522  25.779  -4.412  0.00  0.00    -0.392 OA
HETATM   25  H   UNK N   1      30.822  26.512  -3.850  0.00  0.00     0.210 HD
ENDBRANCH  18  24
ENDBRANCH  17  18
ENDBRANCH   3  16
BRANCH   4  26
HETATM   26  O   UNK N   1      24.480  23.170  -8.536  0.00  0.00    -0.395 OA
HETATM   27  H   UNK N   1      23.744  23.645  -8.120  0.00  0.00     0.210 HD
ENDBRANCH   4  26
BRANCH   5  28
HETATM   28  O   UNK N   1      28.644  20.932  -8.400  0.00  0.00    -0.395 OA
HETATM   29  H   UNK N   1      29.381  21.485  -8.706  0.00  0.00     0.210 HD
ENDBRANCH   5  28
TORSDOF 16
ENDMDL
