MODEL 1
REMARK VINA RESULT:      -6.0      0.000      0.000
REMARK  22 active torsions:
REMARK  status: ('A' for Active; 'I' for Inactive)
REMARK    1  A    between atoms: C_2  and  C_3 
REMARK    2  A    between atoms: C_3  and  C_4 
REMARK    3  A    between atoms: C_4  and  C_5 
REMARK    4  A    between atoms: C_5  and  C_6 
REMARK    5  A    between atoms: C_6  and  C_7 
REMARK    6  A    between atoms: C_7  and  C_8 
REMARK    7  A    between atoms: C_8  and  C_9 
REMARK    8  A    between atoms: C_9  and  C_10 
REMARK    9  A    between atoms: C_10  and  C_11 
REMARK   10  A    between atoms: C_11  and  C_12 
REMARK   11  A    between atoms: C_12  and  C_13 
REMARK   12  A    between atoms: C_13  and  C_14 
REMARK   13  A    between atoms: C_14  and  O_15 
REMARK   14  A    between atoms: O_15  and  C_16 
REMARK   15  A    between atoms: C_19  and  C_21 
REMARK   16  A    between atoms: C_21  and  O_23 
REMARK   17  A    between atoms: O_23  and  C_24 
REMARK   18  A    between atoms: C_24  and  C_25 
REMARK       I    between atoms: C_25  and  N_27 
REMARK   19  A    between atoms: N_27  and  C_29 
REMARK   20  A    between atoms: C_29  and  C_30 
REMARK   21  A    between atoms: C_30  and  O_32 
REMARK   22  A    between atoms: O_32  and  C_33 
ROOT
HETATM    1  C   UNK N   1      35.737  14.587  12.391  0.00  0.00     0.185 A 
HETATM    2  C   UNK N   1      34.797  13.772  11.806  0.00  0.00     0.067 A 
HETATM    3  C   UNK N   1      34.258  14.539  10.787  0.00  0.00     0.048 A 
HETATM    4  C   UNK N   1      34.883  15.776  10.874  0.00  0.00     0.153 A 
HETATM    5  O   UNK N   1      35.747  15.764  11.839  0.00  0.00    -0.282 OA
ENDROOT
BRANCH   1   6
HETATM    6  O   UNK N   1      36.709  14.177  13.210  0.00  0.00    -0.330 OA
BRANCH   6   7
HETATM    7  C   UNK N   1      36.432  13.089  14.009  0.00  0.00     0.178 C 
BRANCH   7   8
HETATM    8  C   UNK N   1      36.548  13.385  15.483  0.00  0.00     0.027 C 
BRANCH   8   9
HETATM    9  C   UNK N   1      35.227  13.830  16.063  0.00  0.00     0.002 C 
BRANCH   9  10
HETATM   10  C   UNK N   1      34.856  12.893  17.201  0.00  0.00     0.000 C 
BRANCH  10  11
HETATM   11  C   UNK N   1      35.245  13.483  18.549  0.00  0.00     0.000 C 
BRANCH  11  12
HETATM   12  C   UNK N   1      35.430  12.412  19.613  0.00  0.00     0.000 C 
BRANCH  12  13
HETATM   13  C   UNK N   1      35.130  11.006  19.098  0.00  0.00     0.000 C 
BRANCH  13  14
HETATM   14  C   UNK N   1      36.387  10.242  18.686  0.00  0.00     0.000 C 
BRANCH  14  15
HETATM   15  C   UNK N   1      36.115   9.263  17.556  0.00  0.00     0.000 C 
BRANCH  15  16
HETATM   16  C   UNK N   1      36.874   9.655  16.297  0.00  0.00     0.000 C 
BRANCH  16  17
HETATM   17  C   UNK N   1      35.924   9.739  15.114  0.00  0.00     0.000 C 
BRANCH  17  18
HETATM   18  C   UNK N   1      34.481   9.838  15.580  0.00  0.00    -0.000 C 
BRANCH  18  19
HETATM   19  C   UNK N   1      33.663  10.683  14.622  0.00  0.00    -0.005 C 
HETATM   20  C   UNK N   1      34.065  10.362  13.199  0.00  0.00     0.005 C 
ENDBRANCH  18  19
ENDBRANCH  17  18
ENDBRANCH  16  17
ENDBRANCH  15  16
ENDBRANCH  14  15
ENDBRANCH  13  14
ENDBRANCH  12  13
ENDBRANCH  11  12
ENDBRANCH  10  11
ENDBRANCH   9  10
ENDBRANCH   8   9
ENDBRANCH   7   8
ENDBRANCH   6   7
ENDBRANCH   1   6
BRANCH   4  21
HETATM   21  C   UNK N   1      34.891  16.883   9.909  0.00  0.00     0.317 C 
HETATM   22  O   UNK N   1      35.621  17.835  10.120  0.00  0.00    -0.257 OA
BRANCH  21  23
HETATM   23  O   UNK N   1      34.302  16.769   8.690  0.00  0.00    -0.307 OA
BRANCH  23  24
HETATM   24  C   UNK N   1      33.145  17.414   8.312  0.00  0.00     0.281 C 
BRANCH  24  25
HETATM   25  C   UNK N   1      33.168  17.455   6.821  0.00  0.00     0.244 C 
HETATM   26  O   UNK N   1      34.144  17.911   6.257  0.00  0.00    -0.271 OA
HETATM   27  N   UNK N   1      32.152  16.889   6.113  0.00  0.00    -0.345 N 
HETATM   28  C   UNK N   1      32.310  16.694   4.689  0.00  0.00     0.153 C 
BRANCH  27  29
HETATM   29  C   UNK N   1      30.951  16.418   6.774  0.00  0.00     0.236 C 
BRANCH  29  30
HETATM   30  C   UNK N   1      29.824  17.384   6.586  0.00  0.00     0.276 C 
HETATM   31  O   UNK N   1      29.208  17.373   5.529  0.00  0.00    -0.263 OA
BRANCH  30  32
HETATM   32  O   UNK N   1      29.499  18.267   7.565  0.00  0.00    -0.321 OA
BRANCH  32  33
HETATM   33  C   UNK N   1      29.608  17.963   8.909  0.00  0.00     0.174 C 
HETATM   34  C   UNK N   1      28.296  17.420   9.457  0.00  0.00     0.034 C 
ENDBRANCH  32  33
ENDBRANCH  30  32
ENDBRANCH  29  30
ENDBRANCH  27  29
ENDBRANCH  24  25
ENDBRANCH  23  24
ENDBRANCH  21  23
ENDBRANCH   4  21
TORSDOF 22
ENDMDL
MODEL 2
REMARK VINA RESULT:      -5.7      4.997     11.568
REMARK  22 active torsions:
REMARK  status: ('A' for Active; 'I' for Inactive)
REMARK    1  A    between atoms: C_2  and  C_3 
REMARK    2  A    between atoms: C_3  and  C_4 
REMARK    3  A    between atoms: C_4  and  C_5 
REMARK    4  A    between atoms: C_5  and  C_6 
REMARK    5  A    between atoms: C_6  and  C_7 
REMARK    6  A    between atoms: C_7  and  C_8 
REMARK    7  A    between atoms: C_8  and  C_9 
REMARK    8  A    between atoms: C_9  and  C_10 
REMARK    9  A    between atoms: C_10  and  C_11 
REMARK   10  A    between atoms: C_11  and  C_12 
REMARK   11  A    between atoms: C_12  and  C_13 
REMARK   12  A    between atoms: C_13  and  C_14 
REMARK   13  A    between atoms: C_14  and  O_15 
REMARK   14  A    between atoms: O_15  and  C_16 
REMARK   15  A    between atoms: C_19  and  C_21 
REMARK   16  A    between atoms: C_21  and  O_23 
REMARK   17  A    between atoms: O_23  and  C_24 
REMARK   18  A    between atoms: C_24  and  C_25 
REMARK       I    between atoms: C_25  and  N_27 
REMARK   19  A    between atoms: N_27  and  C_29 
REMARK   20  A    between atoms: C_29  and  C_30 
REMARK   21  A    between atoms: C_30  and  O_32 
REMARK   22  A    between atoms: O_32  and  C_33 
ROOT
HETATM    1  C   UNK N   1      31.710  17.056   6.893  0.00  0.00     0.185 A 
HETATM    2  C   UNK N   1      32.469  17.115   5.747  0.00  0.00     0.067 A 
HETATM    3  C   UNK N   1      33.692  17.611   6.166  0.00  0.00     0.048 A 
HETATM    4  C   UNK N   1      33.554  17.860   7.524  0.00  0.00     0.153 A 
HETATM    5  O   UNK N   1      32.365  17.523   7.914  0.00  0.00    -0.282 OA
ENDROOT
BRANCH   1   6
HETATM    6  O   UNK N   1      30.576  16.366   7.031  0.00  0.00    -0.330 OA
BRANCH   6   7
HETATM    7  C   UNK N   1      29.411  17.004   6.664  0.00  0.00     0.178 C 
BRANCH   7   8
HETATM    8  C   UNK N   1      28.524  17.346   7.835  0.00  0.00     0.027 C 
BRANCH   8   9
HETATM    9  C   UNK N   1      28.208  18.822   7.876  0.00  0.00     0.002 C 
BRANCH   9  10
HETATM   10  C   UNK N   1      28.008  19.316   6.453  0.00  0.00     0.000 C 
BRANCH  10  11
HETATM   11  C   UNK N   1      27.502  20.751   6.434  0.00  0.00     0.000 C 
BRANCH  11  12
HETATM   12  C   UNK N   1      26.475  20.984   5.337  0.00  0.00     0.000 C 
BRANCH  12  13
HETATM   13  C   UNK N   1      26.860  20.323   4.015  0.00  0.00     0.000 C 
BRANCH  13  14
HETATM   14  C   UNK N   1      25.650  19.952   3.159  0.00  0.00     0.000 C 
BRANCH  14  15
HETATM   15  C   UNK N   1      24.508  19.399   3.995  0.00  0.00     0.000 C 
BRANCH  15  16
HETATM   16  C   UNK N   1      24.371  17.895   3.808  0.00  0.00     0.000 C 
BRANCH  16  17
HETATM   17  C   UNK N   1      24.674  17.173   5.110  0.00  0.00     0.000 C 
BRANCH  17  18
HETATM   18  C   UNK N   1      26.057  16.543   5.075  0.00  0.00    -0.000 C 
BRANCH  18  19
HETATM   19  C   UNK N   1      26.486  16.264   3.647  0.00  0.00    -0.005 C 
HETATM   20  C   UNK N   1      27.895  16.773   3.438  0.00  0.00     0.005 C 
ENDBRANCH  18  19
ENDBRANCH  17  18
ENDBRANCH  16  17
ENDBRANCH  15  16
ENDBRANCH  14  15
ENDBRANCH  13  14
ENDBRANCH  12  13
ENDBRANCH  11  12
ENDBRANCH  10  11
ENDBRANCH   9  10
ENDBRANCH   8   9
ENDBRANCH   7   8
ENDBRANCH   6   7
ENDBRANCH   1   6
BRANCH   4  21
HETATM   21  C   UNK N   1      34.589  18.150   8.526  0.00  0.00     0.317 C 
HETATM   22  O   UNK N   1      35.247  19.168   8.406  0.00  0.00    -0.257 OA
BRANCH  21  23
HETATM   23  O   UNK N   1      34.668  17.454   9.689  0.00  0.00    -0.307 OA
BRANCH  23  24
HETATM   24  C   UNK N   1      35.354  16.270   9.853  0.00  0.00     0.281 C 
BRANCH  24  25
HETATM   25  C   UNK N   1      34.354  15.185   9.631  0.00  0.00     0.244 C 
HETATM   26  O   UNK N   1      33.487  14.999  10.464  0.00  0.00    -0.271 OA
HETATM   27  N   UNK N   1      34.357  14.491   8.459  0.00  0.00    -0.345 N 
HETATM   28  C   UNK N   1      33.233  13.639   8.142  0.00  0.00     0.153 C 
BRANCH  27  29
HETATM   29  C   UNK N   1      35.432  14.651   7.499  0.00  0.00     0.236 C 
BRANCH  29  30
HETATM   30  C   UNK N   1      36.318  13.445   7.486  0.00  0.00     0.276 C 
HETATM   31  O   UNK N   1      36.084  12.550   6.685  0.00  0.00    -0.263 OA
BRANCH  30  32
HETATM   32  O   UNK N   1      37.355  13.339   8.355  0.00  0.00    -0.321 OA
BRANCH  32  33
HETATM   33  C   UNK N   1      37.225  12.761   9.604  0.00  0.00     0.174 C 
HETATM   34  C   UNK N   1      38.391  13.138  10.507  0.00  0.00     0.034 C 
ENDBRANCH  32  33
ENDBRANCH  30  32
ENDBRANCH  29  30
ENDBRANCH  27  29
ENDBRANCH  24  25
ENDBRANCH  23  24
ENDBRANCH  21  23
ENDBRANCH   4  21
TORSDOF 22
ENDMDL
MODEL 3
REMARK VINA RESULT:      -5.7      8.284     12.377
REMARK  22 active torsions:
REMARK  status: ('A' for Active; 'I' for Inactive)
REMARK    1  A    between atoms: C_2  and  C_3 
REMARK    2  A    between atoms: C_3  and  C_4 
REMARK    3  A    between atoms: C_4  and  C_5 
REMARK    4  A    between atoms: C_5  and  C_6 
REMARK    5  A    between atoms: C_6  and  C_7 
REMARK    6  A    between atoms: C_7  and  C_8 
REMARK    7  A    between atoms: C_8  and  C_9 
REMARK    8  A    between atoms: C_9  and  C_10 
REMARK    9  A    between atoms: C_10  and  C_11 
REMARK   10  A    between atoms: C_11  and  C_12 
REMARK   11  A    between atoms: C_12  and  C_13 
REMARK   12  A    between atoms: C_13  and  C_14 
REMARK   13  A    between atoms: C_14  and  O_15 
REMARK   14  A    between atoms: O_15  and  C_16 
REMARK   15  A    between atoms: C_19  and  C_21 
REMARK   16  A    between atoms: C_21  and  O_23 
REMARK   17  A    between atoms: O_23  and  C_24 
REMARK   18  A    between atoms: C_24  and  C_25 
REMARK       I    between atoms: C_25  and  N_27 
REMARK   19  A    between atoms: N_27  and  C_29 
REMARK   20  A    between atoms: C_29  and  C_30 
REMARK   21  A    between atoms: C_30  and  O_32 
REMARK   22  A    between atoms: O_32  and  C_33 
ROOT
HETATM    1  C   UNK N   1      26.651  18.336   3.850  0.00  0.00     0.185 A 
HETATM    2  C   UNK N   1      27.301  19.546   3.933  0.00  0.00     0.067 A 
HETATM    3  C   UNK N   1      26.325  20.485   3.643  0.00  0.00     0.048 A 
HETATM    4  C   UNK N   1      25.176  19.760   3.358  0.00  0.00     0.153 A 
HETATM    5  O   UNK N   1      25.413  18.493   3.486  0.00  0.00    -0.282 OA
ENDROOT
BRANCH   1   6
HETATM    6  O   UNK N   1      27.109  17.182   4.339  0.00  0.00    -0.330 OA
BRANCH   6   7
HETATM    7  C   UNK N   1      27.516  17.181   5.656  0.00  0.00     0.178 C 
BRANCH   7   8
HETATM    8  C   UNK N   1      28.811  16.440   5.879  0.00  0.00     0.027 C 
BRANCH   8   9
HETATM    9  C   UNK N   1      29.676  16.453   4.642  0.00  0.00     0.002 C 
BRANCH   9  10
HETATM   10  C   UNK N   1      30.607  17.651   4.712  0.00  0.00     0.000 C 
BRANCH  10  11
HETATM   11  C   UNK N   1      31.930  17.362   4.018  0.00  0.00     0.000 C 
BRANCH  11  12
HETATM   12  C   UNK N   1      33.121  17.562   4.944  0.00  0.00     0.000 C 
BRANCH  12  13
HETATM   13  C   UNK N   1      33.745  16.244   5.398  0.00  0.00     0.000 C 
BRANCH  13  14
HETATM   14  C   UNK N   1      33.619  16.012   6.903  0.00  0.00     0.000 C 
BRANCH  14  15
HETATM   15  C   UNK N   1      32.222  15.563   7.295  0.00  0.00     0.000 C 
BRANCH  15  16
HETATM   16  C   UNK N   1      31.766  16.248   8.575  0.00  0.00     0.000 C 
BRANCH  16  17
HETATM   17  C   UNK N   1      31.847  17.758   8.422  0.00  0.00     0.000 C 
BRANCH  17  18
HETATM   18  C   UNK N   1      30.517  18.412   8.756  0.00  0.00    -0.000 C 
BRANCH  18  19
HETATM   19  C   UNK N   1      29.581  17.421   9.422  0.00  0.00    -0.005 C 
HETATM   20  C   UNK N   1      28.152  17.894   9.264  0.00  0.00     0.005 C 
ENDBRANCH  18  19
ENDBRANCH  17  18
ENDBRANCH  16  17
ENDBRANCH  15  16
ENDBRANCH  14  15
ENDBRANCH  13  14
ENDBRANCH  12  13
ENDBRANCH  11  12
ENDBRANCH  10  11
ENDBRANCH   9  10
ENDBRANCH   8   9
ENDBRANCH   7   8
ENDBRANCH   6   7
ENDBRANCH   1   6
BRANCH   4  21
HETATM   21  C   UNK N   1      23.789  20.228   3.231  0.00  0.00     0.317 C 
HETATM   22  O   UNK N   1      23.590  21.364   2.839  0.00  0.00    -0.257 OA
BRANCH  21  23
HETATM   23  O   UNK N   1      22.739  19.369   3.306  0.00  0.00    -0.307 OA
BRANCH  23  24
HETATM   24  C   UNK N   1      21.414  19.744   3.285  0.00  0.00     0.281 C 
BRANCH  24  25
HETATM   25  C   UNK N   1      20.841  19.148   2.043  0.00  0.00     0.244 C 
HETATM   26  O   UNK N   1      20.977  19.735   0.987  0.00  0.00    -0.271 OA
HETATM   27  N   UNK N   1      20.270  17.912   2.087  0.00  0.00    -0.345 N 
HETATM   28  C   UNK N   1      19.965  17.233   0.847  0.00  0.00     0.153 C 
BRANCH  27  29
HETATM   29  C   UNK N   1      20.032  17.243   3.351  0.00  0.00     0.236 C 
BRANCH  29  30
HETATM   30  C   UNK N   1      21.188  16.366   3.717  0.00  0.00     0.276 C 
HETATM   31  O   UNK N   1      21.823  15.823   2.823  0.00  0.00    -0.263 OA
BRANCH  30  32
HETATM   32  O   UNK N   1      21.518  16.164   5.018  0.00  0.00    -0.321 OA
BRANCH  32  33
HETATM   33  C   UNK N   1      22.495  16.900   5.662  0.00  0.00     0.174 C 
HETATM   34  C   UNK N   1      23.811  16.138   5.715  0.00  0.00     0.034 C 
ENDBRANCH  32  33
ENDBRANCH  30  32
ENDBRANCH  29  30
ENDBRANCH  27  29
ENDBRANCH  24  25
ENDBRANCH  23  24
ENDBRANCH  21  23
ENDBRANCH   4  21
TORSDOF 22
ENDMDL
MODEL 4
REMARK VINA RESULT:      -5.6      1.103      1.983
REMARK  22 active torsions:
REMARK  status: ('A' for Active; 'I' for Inactive)
REMARK    1  A    between atoms: C_2  and  C_3 
REMARK    2  A    between atoms: C_3  and  C_4 
REMARK    3  A    between atoms: C_4  and  C_5 
REMARK    4  A    between atoms: C_5  and  C_6 
REMARK    5  A    between atoms: C_6  and  C_7 
REMARK    6  A    between atoms: C_7  and  C_8 
REMARK    7  A    between atoms: C_8  and  C_9 
REMARK    8  A    between atoms: C_9  and  C_10 
REMARK    9  A    between atoms: C_10  and  C_11 
REMARK   10  A    between atoms: C_11  and  C_12 
REMARK   11  A    between atoms: C_12  and  C_13 
REMARK   12  A    between atoms: C_13  and  C_14 
REMARK   13  A    between atoms: C_14  and  O_15 
REMARK   14  A    between atoms: O_15  and  C_16 
REMARK   15  A    between atoms: C_19  and  C_21 
REMARK   16  A    between atoms: C_21  and  O_23 
REMARK   17  A    between atoms: O_23  and  C_24 
REMARK   18  A    between atoms: C_24  and  C_25 
REMARK       I    between atoms: C_25  and  N_27 
REMARK   19  A    between atoms: N_27  and  C_29 
REMARK   20  A    between atoms: C_29  and  C_30 
REMARK   21  A    between atoms: C_30  and  O_32 
REMARK   22  A    between atoms: O_32  and  C_33 
ROOT
HETATM    1  C   UNK N   1      35.762  14.176  12.616  0.00  0.00     0.185 A 
HETATM    2  C   UNK N   1      34.987  13.351  11.833  0.00  0.00     0.067 A 
HETATM    3  C   UNK N   1      34.559  14.161  10.794  0.00  0.00     0.048 A 
HETATM    4  C   UNK N   1      35.070  15.424  11.064  0.00  0.00     0.153 A 
HETATM    5  O   UNK N   1      35.771  15.390  12.153  0.00  0.00    -0.282 OA
ENDROOT
BRANCH   1   6
HETATM    6  O   UNK N   1      36.621  13.764  13.551  0.00  0.00    -0.330 OA
BRANCH   6   7
HETATM    7  C   UNK N   1      36.710  14.529  14.694  0.00  0.00     0.178 C 
BRANCH   7   8
HETATM    8  C   UNK N   1      36.694  13.711  15.962  0.00  0.00     0.027 C 
BRANCH   8   9
HETATM    9  C   UNK N   1      35.854  14.367  17.031  0.00  0.00     0.002 C 
BRANCH   9  10
HETATM   10  C   UNK N   1      34.894  13.333  17.597  0.00  0.00     0.000 C 
BRANCH  10  11
HETATM   11  C   UNK N   1      35.505  12.607  18.786  0.00  0.00     0.000 C 
BRANCH  11  12
HETATM   12  C   UNK N   1      35.161  11.126  18.794  0.00  0.00     0.000 C 
BRANCH  12  13
HETATM   13  C   UNK N   1      36.248  10.261  18.158  0.00  0.00     0.000 C 
BRANCH  13  14
HETATM   14  C   UNK N   1      35.695   9.251  17.154  0.00  0.00     0.000 C 
BRANCH  14  15
HETATM   15  C   UNK N   1      34.512   9.806  16.379  0.00  0.00     0.000 C 
BRANCH  15  16
HETATM   16  C   UNK N   1      34.972  10.540  15.127  0.00  0.00     0.000 C 
BRANCH  16  17
HETATM   17  C   UNK N   1      35.871   9.644  14.292  0.00  0.00     0.000 C 
BRANCH  17  18
HETATM   18  C   UNK N   1      36.836  10.467  13.455  0.00  0.00    -0.000 C 
BRANCH  18  19
HETATM   19  C   UNK N   1      38.116  10.741  14.222  0.00  0.00    -0.005 C 
HETATM   20  C   UNK N   1      38.577   9.470  14.900  0.00  0.00     0.005 C 
ENDBRANCH  18  19
ENDBRANCH  17  18
ENDBRANCH  16  17
ENDBRANCH  15  16
ENDBRANCH  14  15
ENDBRANCH  13  14
ENDBRANCH  12  13
ENDBRANCH  11  12
ENDBRANCH  10  11
ENDBRANCH   9  10
ENDBRANCH   8   9
ENDBRANCH   7   8
ENDBRANCH   6   7
ENDBRANCH   1   6
BRANCH   4  21
HETATM   21  C   UNK N   1      35.147  16.601  10.189  0.00  0.00     0.317 C 
HETATM   22  O   UNK N   1      35.931  17.490  10.475  0.00  0.00    -0.257 OA
BRANCH  21  23
HETATM   23  O   UNK N   1      34.557  16.619   8.966  0.00  0.00    -0.307 OA
BRANCH  23  24
HETATM   24  C   UNK N   1      33.347  17.214   8.684  0.00  0.00     0.281 C 
BRANCH  24  25
HETATM   25  C   UNK N   1      33.394  17.570   7.236  0.00  0.00     0.244 C 
HETATM   26  O   UNK N   1      34.319  18.241   6.821  0.00  0.00    -0.271 OA
HETATM   27  N   UNK N   1      32.466  17.054   6.383  0.00  0.00    -0.345 N 
HETATM   28  C   UNK N   1      32.673  17.181   4.957  0.00  0.00     0.153 C 
BRANCH  27  29
HETATM   29  C   UNK N   1      31.317  16.323   6.880  0.00  0.00     0.236 C 
BRANCH  29  30
HETATM   30  C   UNK N   1      30.092  17.181   6.870  0.00  0.00     0.276 C 
HETATM   31  O   UNK N   1      29.901  17.948   7.803  0.00  0.00    -0.263 OA
BRANCH  30  32
HETATM   32  O   UNK N   1      29.200  17.101   5.849  0.00  0.00    -0.321 OA
BRANCH  32  33
HETATM   33  C   UNK N   1      29.058  18.099   4.903  0.00  0.00     0.174 C 
HETATM   34  C   UNK N   1      27.629  18.624   4.870  0.00  0.00     0.034 C 
ENDBRANCH  32  33
ENDBRANCH  30  32
ENDBRANCH  29  30
ENDBRANCH  27  29
ENDBRANCH  24  25
ENDBRANCH  23  24
ENDBRANCH  21  23
ENDBRANCH   4  21
TORSDOF 22
ENDMDL
MODEL 5
REMARK VINA RESULT:      -5.5      3.045     11.164
REMARK  22 active torsions:
REMARK  status: ('A' for Active; 'I' for Inactive)
REMARK    1  A    between atoms: C_2  and  C_3 
REMARK    2  A    between atoms: C_3  and  C_4 
REMARK    3  A    between atoms: C_4  and  C_5 
REMARK    4  A    between atoms: C_5  and  C_6 
REMARK    5  A    between atoms: C_6  and  C_7 
REMARK    6  A    between atoms: C_7  and  C_8 
REMARK    7  A    between atoms: C_8  and  C_9 
REMARK    8  A    between atoms: C_9  and  C_10 
REMARK    9  A    between atoms: C_10  and  C_11 
REMARK   10  A    between atoms: C_11  and  C_12 
REMARK   11  A    between atoms: C_12  and  C_13 
REMARK   12  A    between atoms: C_13  and  C_14 
REMARK   13  A    between atoms: C_14  and  O_15 
REMARK   14  A    between atoms: O_15  and  C_16 
REMARK   15  A    between atoms: C_19  and  C_21 
REMARK   16  A    between atoms: C_21  and  O_23 
REMARK   17  A    between atoms: O_23  and  C_24 
REMARK   18  A    between atoms: C_24  and  C_25 
REMARK       I    between atoms: C_25  and  N_27 
REMARK   19  A    between atoms: N_27  and  C_29 
REMARK   20  A    between atoms: C_29  and  C_30 
REMARK   21  A    between atoms: C_30  and  O_32 
REMARK   22  A    between atoms: O_32  and  C_33 
ROOT
HETATM    1  C   UNK N   1      33.573  16.879   6.183  0.00  0.00     0.185 A 
HETATM    2  C   UNK N   1      32.403  17.324   6.753  0.00  0.00     0.067 A 
HETATM    3  C   UNK N   1      32.783  17.799   7.998  0.00  0.00     0.048 A 
HETATM    4  C   UNK N   1      34.145  17.554   8.096  0.00  0.00     0.153 A 
HETATM    5  O   UNK N   1      34.573  17.004   7.004  0.00  0.00    -0.282 OA
ENDROOT
BRANCH   1   6
HETATM    6  O   UNK N   1      33.746  16.620   4.884  0.00  0.00    -0.330 OA
BRANCH   6   7
HETATM    7  C   UNK N   1      32.942  17.306   4.000  0.00  0.00     0.178 C 
BRANCH   7   8
HETATM    8  C   UNK N   1      32.305  16.418   2.961  0.00  0.00     0.027 C 
BRANCH   8   9
HETATM    9  C   UNK N   1      31.473  15.331   3.597  0.00  0.00     0.002 C 
BRANCH   9  10
HETATM   10  C   UNK N   1      30.070  15.388   3.016  0.00  0.00     0.000 C 
BRANCH  10  11
HETATM   11  C   UNK N   1      29.385  16.703   3.360  0.00  0.00     0.000 C 
BRANCH  11  12
HETATM   12  C   UNK N   1      29.392  16.980   4.856  0.00  0.00     0.000 C 
BRANCH  12  13
HETATM   13  C   UNK N   1      28.385  16.125   5.622  0.00  0.00     0.000 C 
BRANCH  13  14
HETATM   14  C   UNK N   1      27.511  16.940   6.574  0.00  0.00     0.000 C 
BRANCH  14  15
HETATM   15  C   UNK N   1      28.340  17.752   7.555  0.00  0.00     0.000 C 
BRANCH  15  16
HETATM   16  C   UNK N   1      28.188  19.244   7.297  0.00  0.00     0.000 C 
BRANCH  16  17
HETATM   17  C   UNK N   1      27.140  19.489   6.224  0.00  0.00     0.000 C 
BRANCH  17  18
HETATM   18  C   UNK N   1      27.660  20.444   5.163  0.00  0.00    -0.000 C 
BRANCH  18  19
HETATM   19  C   UNK N   1      27.217  20.005   3.780  0.00  0.00    -0.005 C 
HETATM   20  C   UNK N   1      26.135  18.955   3.908  0.00  0.00     0.005 C 
ENDBRANCH  18  19
ENDBRANCH  17  18
ENDBRANCH  16  17
ENDBRANCH  15  16
ENDBRANCH  14  15
ENDBRANCH  13  14
ENDBRANCH  12  13
ENDBRANCH  11  12
ENDBRANCH  10  11
ENDBRANCH   9  10
ENDBRANCH   8   9
ENDBRANCH   7   8
ENDBRANCH   6   7
ENDBRANCH   1   6
BRANCH   4  21
HETATM   21  C   UNK N   1      35.113  18.065   9.076  0.00  0.00     0.317 C 
HETATM   22  O   UNK N   1      35.494  19.218   8.972  0.00  0.00    -0.257 OA
BRANCH  21  23
HETATM   23  O   UNK N   1      35.406  17.381  10.212  0.00  0.00    -0.307 OA
BRANCH  23  24
HETATM   24  C   UNK N   1      35.016  16.085  10.472  0.00  0.00     0.281 C 
BRANCH  24  25
HETATM   25  C   UNK N   1      36.276  15.294  10.580  0.00  0.00     0.244 C 
HETATM   26  O   UNK N   1      37.345  15.870  10.510  0.00  0.00    -0.271 OA
HETATM   27  N   UNK N   1      36.217  13.962  10.861  0.00  0.00    -0.345 N 
HETATM   28  C   UNK N   1      37.429  13.266  11.228  0.00  0.00     0.153 C 
BRANCH  27  29
HETATM   29  C   UNK N   1      34.951  13.255  10.866  0.00  0.00     0.236 C 
BRANCH  29  30
HETATM   30  C   UNK N   1      34.726  12.573  12.179  0.00  0.00     0.276 C 
HETATM   31  O   UNK N   1      34.712  13.248  13.199  0.00  0.00    -0.263 OA
BRANCH  30  32
HETATM   32  O   UNK N   1      34.554  11.228  12.239  0.00  0.00    -0.321 OA
BRANCH  32  33
HETATM   33  C   UNK N   1      33.896  10.607  13.283  0.00  0.00     0.174 C 
HETATM   34  C   UNK N   1      34.862  10.244  14.403  0.00  0.00     0.034 C 
ENDBRANCH  32  33
ENDBRANCH  30  32
ENDBRANCH  29  30
ENDBRANCH  27  29
ENDBRANCH  24  25
ENDBRANCH  23  24
ENDBRANCH  21  23
ENDBRANCH   4  21
TORSDOF 22
ENDMDL
MODEL 6
REMARK VINA RESULT:      -5.5      3.649     11.978
REMARK  22 active torsions:
REMARK  status: ('A' for Active; 'I' for Inactive)
REMARK    1  A    between atoms: C_2  and  C_3 
REMARK    2  A    between atoms: C_3  and  C_4 
REMARK    3  A    between atoms: C_4  and  C_5 
REMARK    4  A    between atoms: C_5  and  C_6 
REMARK    5  A    between atoms: C_6  and  C_7 
REMARK    6  A    between atoms: C_7  and  C_8 
REMARK    7  A    between atoms: C_8  and  C_9 
REMARK    8  A    between atoms: C_9  and  C_10 
REMARK    9  A    between atoms: C_10  and  C_11 
REMARK   10  A    between atoms: C_11  and  C_12 
REMARK   11  A    between atoms: C_12  and  C_13 
REMARK   12  A    between atoms: C_13  and  C_14 
REMARK   13  A    between atoms: C_14  and  O_15 
REMARK   14  A    between atoms: O_15  and  C_16 
REMARK   15  A    between atoms: C_19  and  C_21 
REMARK   16  A    between atoms: C_21  and  O_23 
REMARK   17  A    between atoms: O_23  and  C_24 
REMARK   18  A    between atoms: C_24  and  C_25 
REMARK       I    between atoms: C_25  and  N_27 
REMARK   19  A    between atoms: N_27  and  C_29 
REMARK   20  A    between atoms: C_29  and  C_30 
REMARK   21  A    between atoms: C_30  and  O_32 
REMARK   22  A    between atoms: O_32  and  C_33 
ROOT
HETATM    1  C   UNK N   1      31.586  17.137   6.484  0.00  0.00     0.185 A 
HETATM    2  C   UNK N   1      32.446  17.110   5.411  0.00  0.00     0.067 A 
HETATM    3  C   UNK N   1      33.656  17.546   5.925  0.00  0.00     0.048 A 
HETATM    4  C   UNK N   1      33.414  17.850   7.257  0.00  0.00     0.153 A 
HETATM    5  O   UNK N   1      32.176  17.599   7.547  0.00  0.00    -0.282 OA
ENDROOT
BRANCH   1   6
HETATM    6  O   UNK N   1      30.403  16.522   6.537  0.00  0.00    -0.330 OA
BRANCH   6   7
HETATM    7  C   UNK N   1      29.284  17.308   6.363  0.00  0.00     0.178 C 
BRANCH   7   8
HETATM    8  C   UNK N   1      28.472  17.476   7.623  0.00  0.00     0.027 C 
BRANCH   8   9
HETATM    9  C   UNK N   1      28.109  18.923   7.857  0.00  0.00     0.002 C 
BRANCH   9  10
HETATM   10  C   UNK N   1      28.141  19.654   6.526  0.00  0.00     0.000 C 
BRANCH  10  11
HETATM   11  C   UNK N   1      27.229  20.871   6.544  0.00  0.00     0.000 C 
BRANCH  11  12
HETATM   12  C   UNK N   1      26.172  20.814   5.451  0.00  0.00     0.000 C 
BRANCH  12  13
HETATM   13  C   UNK N   1      26.748  20.433   4.089  0.00  0.00     0.000 C 
BRANCH  13  14
HETATM   14  C   UNK N   1      26.116  19.170   3.506  0.00  0.00     0.000 C 
BRANCH  14  15
HETATM   15  C   UNK N   1      25.145  18.518   4.475  0.00  0.00     0.000 C 
BRANCH  15  16
HETATM   16  C   UNK N   1      25.357  17.012   4.532  0.00  0.00     0.000 C 
BRANCH  16  17
HETATM   17  C   UNK N   1      25.624  16.464   3.141  0.00  0.00     0.000 C 
BRANCH  17  18
HETATM   18  C   UNK N   1      24.700  15.299   2.827  0.00  0.00    -0.000 C 
BRANCH  18  19
HETATM   19  C   UNK N   1      25.085  14.645   1.514  0.00  0.00    -0.005 C 
HETATM   20  C   UNK N   1      23.832  14.226   0.775  0.00  0.00     0.005 C 
ENDBRANCH  18  19
ENDBRANCH  17  18
ENDBRANCH  16  17
ENDBRANCH  15  16
ENDBRANCH  14  15
ENDBRANCH  13  14
ENDBRANCH  12  13
ENDBRANCH  11  12
ENDBRANCH  10  11
ENDBRANCH   9  10
ENDBRANCH   8   9
ENDBRANCH   7   8
ENDBRANCH   6   7
ENDBRANCH   1   6
BRANCH   4  21
HETATM   21  C   UNK N   1      34.371  18.112   8.340  0.00  0.00     0.317 C 
HETATM   22  O   UNK N   1      35.081  19.099   8.264  0.00  0.00    -0.257 OA
BRANCH  21  23
HETATM   23  O   UNK N   1      34.319  17.434   9.515  0.00  0.00    -0.307 OA
BRANCH  23  24
HETATM   24  C   UNK N   1      35.253  16.510   9.932  0.00  0.00     0.281 C 
BRANCH  24  25
HETATM   25  C   UNK N   1      34.541  15.200   9.973  0.00  0.00     0.244 C 
HETATM   26  O   UNK N   1      33.383  15.143   9.606  0.00  0.00    -0.271 OA
HETATM   27  N   UNK N   1      35.220  14.071  10.318  0.00  0.00    -0.345 N 
HETATM   28  C   UNK N   1      34.603  12.782  10.097  0.00  0.00     0.153 C 
BRANCH  27  29
HETATM   29  C   UNK N   1      36.573  14.141  10.834  0.00  0.00     0.236 C 
BRANCH  29  30
HETATM   30  C   UNK N   1      36.692  13.390  12.123  0.00  0.00     0.276 C 
HETATM   31  O   UNK N   1      37.445  12.427  12.177  0.00  0.00    -0.263 OA
BRANCH  30  32
HETATM   32  O   UNK N   1      35.969  13.762  13.209  0.00  0.00    -0.321 OA
BRANCH  32  33
HETATM   33  C   UNK N   1      36.517  14.465  14.266  0.00  0.00     0.174 C 
HETATM   34  C   UNK N   1      36.513  13.632  15.540  0.00  0.00     0.034 C 
ENDBRANCH  32  33
ENDBRANCH  30  32
ENDBRANCH  29  30
ENDBRANCH  27  29
ENDBRANCH  24  25
ENDBRANCH  23  24
ENDBRANCH  21  23
ENDBRANCH   4  21
TORSDOF 22
ENDMDL
MODEL 7
REMARK VINA RESULT:      -5.4     10.123     14.105
REMARK  22 active torsions:
REMARK  status: ('A' for Active; 'I' for Inactive)
REMARK    1  A    between atoms: C_2  and  C_3 
REMARK    2  A    between atoms: C_3  and  C_4 
REMARK    3  A    between atoms: C_4  and  C_5 
REMARK    4  A    between atoms: C_5  and  C_6 
REMARK    5  A    between atoms: C_6  and  C_7 
REMARK    6  A    between atoms: C_7  and  C_8 
REMARK    7  A    between atoms: C_8  and  C_9 
REMARK    8  A    between atoms: C_9  and  C_10 
REMARK    9  A    between atoms: C_10  and  C_11 
REMARK   10  A    between atoms: C_11  and  C_12 
REMARK   11  A    between atoms: C_12  and  C_13 
REMARK   12  A    between atoms: C_13  and  C_14 
REMARK   13  A    between atoms: C_14  and  O_15 
REMARK   14  A    between atoms: O_15  and  C_16 
REMARK   15  A    between atoms: C_19  and  C_21 
REMARK   16  A    between atoms: C_21  and  O_23 
REMARK   17  A    between atoms: O_23  and  C_24 
REMARK   18  A    between atoms: C_24  and  C_25 
REMARK       I    between atoms: C_25  and  N_27 
REMARK   19  A    between atoms: N_27  and  C_29 
REMARK   20  A    between atoms: C_29  and  C_30 
REMARK   21  A    between atoms: C_30  and  O_32 
REMARK   22  A    between atoms: O_32  and  C_33 
ROOT
HETATM    1  C   UNK N   1      23.312  12.811  10.009  0.00  0.00     0.185 A 
HETATM    2  C   UNK N   1      22.557  11.941  10.761  0.00  0.00     0.067 A 
HETATM    3  C   UNK N   1      21.279  12.473  10.726  0.00  0.00     0.048 A 
HETATM    4  C   UNK N   1      21.378  13.650   9.997  0.00  0.00     0.153 A 
HETATM    5  O   UNK N   1      22.598  13.816   9.595  0.00  0.00    -0.282 OA
ENDROOT
BRANCH   1   6
HETATM    6  O   UNK N   1      24.525  12.549   9.516  0.00  0.00    -0.330 OA
BRANCH   6   7
HETATM    7  C   UNK N   1      25.067  13.487   8.665  0.00  0.00     0.178 C 
BRANCH   7   8
HETATM    8  C   UNK N   1      25.031  13.069   7.216  0.00  0.00     0.027 C 
BRANCH   8   9
HETATM    9  C   UNK N   1      24.052  13.902   6.425  0.00  0.00     0.002 C 
BRANCH   9  10
HETATM   10  C   UNK N   1      24.521  15.347   6.439  0.00  0.00     0.000 C 
BRANCH  10  11
HETATM   11  C   UNK N   1      24.899  15.818   5.042  0.00  0.00     0.000 C 
BRANCH  11  12
HETATM   12  C   UNK N   1      25.422  17.246   5.038  0.00  0.00     0.000 C 
BRANCH  12  13
HETATM   13  C   UNK N   1      25.368  17.893   3.656  0.00  0.00     0.000 C 
BRANCH  13  14
HETATM   14  C   UNK N   1      25.993  19.287   3.625  0.00  0.00     0.000 C 
BRANCH  14  15
HETATM   15  C   UNK N   1      27.198  19.392   4.543  0.00  0.00     0.000 C 
BRANCH  15  16
HETATM   16  C   UNK N   1      27.028  20.527   5.542  0.00  0.00     0.000 C 
BRANCH  16  17
HETATM   17  C   UNK N   1      27.549  20.109   6.907  0.00  0.00     0.000 C 
BRANCH  17  18
HETATM   18  C   UNK N   1      28.098  18.693   6.871  0.00  0.00    -0.000 C 
BRANCH  18  19
HETATM   19  C   UNK N   1      28.994  18.432   8.067  0.00  0.00    -0.005 C 
HETATM   20  C   UNK N   1      28.165  17.873   9.203  0.00  0.00     0.005 C 
ENDBRANCH  18  19
ENDBRANCH  17  18
ENDBRANCH  16  17
ENDBRANCH  15  16
ENDBRANCH  14  15
ENDBRANCH  13  14
ENDBRANCH  12  13
ENDBRANCH  11  12
ENDBRANCH  10  11
ENDBRANCH   9  10
ENDBRANCH   8   9
ENDBRANCH   7   8
ENDBRANCH   6   7
ENDBRANCH   1   6
BRANCH   4  21
HETATM   21  C   UNK N   1      20.311  14.487   9.433  0.00  0.00     0.317 C 
HETATM   22  O   UNK N   1      19.174  14.341   9.849  0.00  0.00    -0.257 OA
BRANCH  21  23
HETATM   23  O   UNK N   1      20.588  15.563   8.653  0.00  0.00    -0.307 OA
BRANCH  23  24
HETATM   24  C   UNK N   1      20.387  15.621   7.292  0.00  0.00     0.281 C 
BRANCH  24  25
HETATM   25  C   UNK N   1      20.799  16.993   6.876  0.00  0.00     0.244 C 
HETATM   26  O   UNK N   1      20.808  17.885   7.703  0.00  0.00    -0.271 OA
HETATM   27  N   UNK N   1      21.258  17.208   5.612  0.00  0.00    -0.345 N 
HETATM   28  C   UNK N   1      21.903  18.464   5.300  0.00  0.00     0.153 C 
BRANCH  27  29
HETATM   29  C   UNK N   1      21.175  16.173   4.600  0.00  0.00     0.236 C 
BRANCH  29  30
HETATM   30  C   UNK N   1      20.116  16.495   3.593  0.00  0.00     0.276 C 
HETATM   31  O   UNK N   1      19.026  16.887   3.987  0.00  0.00    -0.263 OA
BRANCH  30  32
HETATM   32  O   UNK N   1      20.355  16.342   2.265  0.00  0.00    -0.321 OA
BRANCH  32  33
HETATM   33  C   UNK N   1      20.574  15.107   1.684  0.00  0.00     0.174 C 
HETATM   34  C   UNK N   1      19.424  14.723   0.763  0.00  0.00     0.034 C 
ENDBRANCH  32  33
ENDBRANCH  30  32
ENDBRANCH  29  30
ENDBRANCH  27  29
ENDBRANCH  24  25
ENDBRANCH  23  24
ENDBRANCH  21  23
ENDBRANCH   4  21
TORSDOF 22
ENDMDL
MODEL 8
REMARK VINA RESULT:      -5.4      2.252      4.333
REMARK  22 active torsions:
REMARK  status: ('A' for Active; 'I' for Inactive)
REMARK    1  A    between atoms: C_2  and  C_3 
REMARK    2  A    between atoms: C_3  and  C_4 
REMARK    3  A    between atoms: C_4  and  C_5 
REMARK    4  A    between atoms: C_5  and  C_6 
REMARK    5  A    between atoms: C_6  and  C_7 
REMARK    6  A    between atoms: C_7  and  C_8 
REMARK    7  A    between atoms: C_8  and  C_9 
REMARK    8  A    between atoms: C_9  and  C_10 
REMARK    9  A    between atoms: C_10  and  C_11 
REMARK   10  A    between atoms: C_11  and  C_12 
REMARK   11  A    between atoms: C_12  and  C_13 
REMARK   12  A    between atoms: C_13  and  C_14 
REMARK   13  A    between atoms: C_14  and  O_15 
REMARK   14  A    between atoms: O_15  and  C_16 
REMARK   15  A    between atoms: C_19  and  C_21 
REMARK   16  A    between atoms: C_21  and  O_23 
REMARK   17  A    between atoms: O_23  and  C_24 
REMARK   18  A    between atoms: C_24  and  C_25 
REMARK       I    between atoms: C_25  and  N_27 
REMARK   19  A    between atoms: N_27  and  C_29 
REMARK   20  A    between atoms: C_29  and  C_30 
REMARK   21  A    between atoms: C_30  and  O_32 
REMARK   22  A    between atoms: O_32  and  C_33 
ROOT
HETATM    1  C   UNK N   1      34.636  16.847   8.864  0.00  0.00     0.185 A 
HETATM    2  C   UNK N   1      34.566  18.143   8.409  0.00  0.00     0.067 A 
HETATM    3  C   UNK N   1      33.281  18.266   7.906  0.00  0.00     0.048 A 
HETATM    4  C   UNK N   1      32.697  17.015   8.054  0.00  0.00     0.153 A 
HETATM    5  O   UNK N   1      33.534  16.203   8.619  0.00  0.00    -0.282 OA
ENDROOT
BRANCH   1   6
HETATM    6  O   UNK N   1      35.569  16.371   9.692  0.00  0.00    -0.330 OA
BRANCH   6   7
HETATM    7  C   UNK N   1      35.349  16.542  11.041  0.00  0.00     0.178 C 
BRANCH   7   8
HETATM    8  C   UNK N   1      35.975  15.462  11.889  0.00  0.00     0.027 C 
BRANCH   8   9
HETATM    9  C   UNK N   1      35.132  14.210  11.900  0.00  0.00     0.002 C 
BRANCH   9  10
HETATM   10  C   UNK N   1      35.143  13.629  13.304  0.00  0.00     0.000 C 
BRANCH  10  11
HETATM   11  C   UNK N   1      36.498  13.821  13.969  0.00  0.00     0.000 C 
BRANCH  11  12
HETATM   12  C   UNK N   1      36.533  13.250  15.379  0.00  0.00     0.000 C 
BRANCH  12  13
HETATM   13  C   UNK N   1      35.151  12.848  15.889  0.00  0.00     0.000 C 
BRANCH  13  14
HETATM   14  C   UNK N   1      35.137  11.471  16.551  0.00  0.00     0.000 C 
BRANCH  14  15
HETATM   15  C   UNK N   1      34.787  10.368  15.566  0.00  0.00     0.000 C 
BRANCH  15  16
HETATM   16  C   UNK N   1      33.630  10.781  14.669  0.00  0.00     0.000 C 
BRANCH  16  17
HETATM   17  C   UNK N   1      33.863  10.291  13.250  0.00  0.00     0.000 C 
BRANCH  17  18
HETATM   18  C   UNK N   1      35.313   9.886  13.044  0.00  0.00    -0.000 C 
BRANCH  18  19
HETATM   19  C   UNK N   1      35.854  10.462  11.749  0.00  0.00    -0.005 C 
HETATM   20  C   UNK N   1      37.306  10.845  11.937  0.00  0.00     0.005 C 
ENDBRANCH  18  19
ENDBRANCH  17  18
ENDBRANCH  16  17
ENDBRANCH  15  16
ENDBRANCH  14  15
ENDBRANCH  13  14
ENDBRANCH  12  13
ENDBRANCH  11  12
ENDBRANCH  10  11
ENDBRANCH   9  10
ENDBRANCH   8   9
ENDBRANCH   7   8
ENDBRANCH   6   7
ENDBRANCH   1   6
BRANCH   4  21
HETATM   21  C   UNK N   1      31.286  16.628   7.929  0.00  0.00     0.317 C 
HETATM   22  O   UNK N   1      30.538  16.836   8.868  0.00  0.00    -0.257 OA
BRANCH  21  23
HETATM   23  O   UNK N   1      30.748  16.275   6.732  0.00  0.00    -0.307 OA
BRANCH  23  24
HETATM   24  C   UNK N   1      30.375  17.160   5.745  0.00  0.00     0.281 C 
BRANCH  24  25
HETATM   25  C   UNK N   1      28.962  16.823   5.407  0.00  0.00     0.244 C 
HETATM   26  O   UNK N   1      28.738  15.881   4.670  0.00  0.00    -0.271 OA
HETATM   27  N   UNK N   1      27.943  17.500   6.005  0.00  0.00    -0.345 N 
HETATM   28  C   UNK N   1      26.593  16.994   5.881  0.00  0.00     0.153 C 
BRANCH  27  29
HETATM   29  C   UNK N   1      28.199  18.672   6.818  0.00  0.00     0.236 C 
BRANCH  29  30
HETATM   30  C   UNK N   1      27.601  19.895   6.195  0.00  0.00     0.276 C 
HETATM   31  O   UNK N   1      26.747  20.514   6.815  0.00  0.00    -0.263 OA
BRANCH  30  32
HETATM   32  O   UNK N   1      27.988  20.302   4.959  0.00  0.00    -0.321 OA
BRANCH  32  33
HETATM   33  C   UNK N   1      27.311  19.940   3.809  0.00  0.00     0.174 C 
HETATM   34  C   UNK N   1      25.817  20.197   3.949  0.00  0.00     0.034 C 
ENDBRANCH  32  33
ENDBRANCH  30  32
ENDBRANCH  29  30
ENDBRANCH  27  29
ENDBRANCH  24  25
ENDBRANCH  23  24
ENDBRANCH  21  23
ENDBRANCH   4  21
TORSDOF 22
ENDMDL
MODEL 9
REMARK VINA RESULT:      -5.4      1.427      2.529
REMARK  22 active torsions:
REMARK  status: ('A' for Active; 'I' for Inactive)
REMARK    1  A    between atoms: C_2  and  C_3 
REMARK    2  A    between atoms: C_3  and  C_4 
REMARK    3  A    between atoms: C_4  and  C_5 
REMARK    4  A    between atoms: C_5  and  C_6 
REMARK    5  A    between atoms: C_6  and  C_7 
REMARK    6  A    between atoms: C_7  and  C_8 
REMARK    7  A    between atoms: C_8  and  C_9 
REMARK    8  A    between atoms: C_9  and  C_10 
REMARK    9  A    between atoms: C_10  and  C_11 
REMARK   10  A    between atoms: C_11  and  C_12 
REMARK   11  A    between atoms: C_12  and  C_13 
REMARK   12  A    between atoms: C_13  and  C_14 
REMARK   13  A    between atoms: C_14  and  O_15 
REMARK   14  A    between atoms: O_15  and  C_16 
REMARK   15  A    between atoms: C_19  and  C_21 
REMARK   16  A    between atoms: C_21  and  O_23 
REMARK   17  A    between atoms: O_23  and  C_24 
REMARK   18  A    between atoms: C_24  and  C_25 
REMARK       I    between atoms: C_25  and  N_27 
REMARK   19  A    between atoms: N_27  and  C_29 
REMARK   20  A    between atoms: C_29  and  C_30 
REMARK   21  A    between atoms: C_30  and  O_32 
REMARK   22  A    between atoms: O_32  and  C_33 
ROOT
HETATM    1  C   UNK N   1      35.131  13.990  12.171  0.00  0.00     0.185 A 
HETATM    2  C   UNK N   1      36.489  14.115  11.995  0.00  0.00     0.067 A 
HETATM    3  C   UNK N   1      36.625  15.096  11.027  0.00  0.00     0.048 A 
HETATM    4  C   UNK N   1      35.332  15.448  10.661  0.00  0.00     0.153 A 
HETATM    5  O   UNK N   1      34.478  14.766  11.358  0.00  0.00    -0.282 OA
ENDROOT
BRANCH   1   6
HETATM    6  O   UNK N   1      34.542  13.388  13.207  0.00  0.00    -0.330 OA
BRANCH   6   7
HETATM    7  C   UNK N   1      35.339  13.092  14.291  0.00  0.00     0.178 C 
BRANCH   7   8
HETATM    8  C   UNK N   1      34.588  12.433  15.421  0.00  0.00     0.027 C 
BRANCH   8   9
HETATM    9  C   UNK N   1      35.160  12.819  16.764  0.00  0.00     0.002 C 
BRANCH   9  10
HETATM   10  C   UNK N   1      35.282  11.569  17.618  0.00  0.00     0.000 C 
BRANCH  10  11
HETATM   11  C   UNK N   1      36.511  10.757  17.235  0.00  0.00     0.000 C 
BRANCH  11  12
HETATM   12  C   UNK N   1      36.253   9.260  17.298  0.00  0.00     0.000 C 
BRANCH  12  13
HETATM   13  C   UNK N   1      35.161   8.805  16.332  0.00  0.00     0.000 C 
BRANCH  13  14
HETATM   14  C   UNK N   1      35.714   8.101  15.095  0.00  0.00     0.000 C 
BRANCH  14  15
HETATM   15  C   UNK N   1      35.661   8.987  13.862  0.00  0.00     0.000 C 
BRANCH  15  16
HETATM   16  C   UNK N   1      37.038   9.131  13.230  0.00  0.00     0.000 C 
BRANCH  16  17
HETATM   17  C   UNK N   1      37.735  10.371  13.764  0.00  0.00     0.000 C 
BRANCH  17  18
HETATM   18  C   UNK N   1      38.909   9.996  14.653  0.00  0.00    -0.000 C 
BRANCH  18  19
HETATM   19  C   UNK N   1      39.307   8.548  14.438  0.00  0.00    -0.005 C 
HETATM   20  C   UNK N   1      39.396   7.846  15.775  0.00  0.00     0.005 C 
ENDBRANCH  18  19
ENDBRANCH  17  18
ENDBRANCH  16  17
ENDBRANCH  15  16
ENDBRANCH  14  15
ENDBRANCH  13  14
ENDBRANCH  12  13
ENDBRANCH  11  12
ENDBRANCH  10  11
ENDBRANCH   9  10
ENDBRANCH   8   9
ENDBRANCH   7   8
ENDBRANCH   6   7
ENDBRANCH   1   6
BRANCH   4  21
HETATM   21  C   UNK N   1      34.870  16.597   9.872  0.00  0.00     0.317 C 
HETATM   22  O   UNK N   1      35.453  17.660   9.992  0.00  0.00    -0.257 OA
BRANCH  21  23
HETATM   23  O   UNK N   1      33.983  16.450   8.854  0.00  0.00    -0.307 OA
BRANCH  23  24
HETATM   24  C   UNK N   1      33.032  17.380   8.498  0.00  0.00     0.281 C 
BRANCH  24  25
HETATM   25  C   UNK N   1      33.205  17.603   7.033  0.00  0.00     0.244 C 
HETATM   26  O   UNK N   1      34.187  18.201   6.637  0.00  0.00    -0.271 OA
HETATM   27  N   UNK N   1      32.324  17.045   6.156  0.00  0.00    -0.345 N 
HETATM   28  C   UNK N   1      32.646  17.037   4.746  0.00  0.00     0.153 C 
BRANCH  27  29
HETATM   29  C   UNK N   1      31.112  16.402   6.621  0.00  0.00     0.236 C 
BRANCH  29  30
HETATM   30  C   UNK N   1      29.923  17.285   6.407  0.00  0.00     0.276 C 
HETATM   31  O   UNK N   1      29.337  17.237   5.334  0.00  0.00    -0.263 OA
BRANCH  30  32
HETATM   32  O   UNK N   1      29.510  18.137   7.380  0.00  0.00    -0.321 OA
BRANCH  32  33
HETATM   33  C   UNK N   1      29.081  17.701   8.620  0.00  0.00     0.174 C 
HETATM   34  C   UNK N   1      29.680  18.547   9.735  0.00  0.00     0.034 C 
ENDBRANCH  32  33
ENDBRANCH  30  32
ENDBRANCH  29  30
ENDBRANCH  27  29
ENDBRANCH  24  25
ENDBRANCH  23  24
ENDBRANCH  21  23
ENDBRANCH   4  21
TORSDOF 22
ENDMDL
