MODEL 1
REMARK VINA RESULT:      -5.6      0.000      0.000
REMARK  3 active torsions:
REMARK  status: ('A' for Active; 'I' for Inactive)
REMARK    1  A    between atoms: C_2  and  C_3 
REMARK    2  A    between atoms: C_3  and  C_4 
REMARK    3  A    between atoms: C_4  and  C_5 
ROOT
HETATM    1  C   UNK N   1      33.354  17.076   5.529  0.00  0.00     0.166 A 
HETATM    2  C   UNK N   1      32.186  17.176   6.487  0.00  0.00    -0.013 A 
HETATM    3  C   UNK N   1      32.578  17.801   7.633  0.00  0.00     0.048 A 
HETATM    4  C   UNK N   1      31.713  18.012   8.705  0.00  0.00     0.018 A 
HETATM    5  C   UNK N   1      30.389  17.557   8.576  0.00  0.00     0.001 A 
HETATM    6  C   UNK N   1      29.973  16.910   7.393  0.00  0.00     0.001 A 
HETATM    7  C   UNK N   1      30.879  16.713   6.333  0.00  0.00     0.011 A 
HETATM    8  O   UNK N   1      34.377  17.715   6.244  0.00  0.00    -0.307 OA
HETATM    9  C   UNK N   1      33.953  18.129   7.456  0.00  0.00     0.294 A 
HETATM   10  O   UNK N   1      34.664  18.692   8.269  0.00  0.00    -0.259 OA
ENDROOT
BRANCH   1  11
HETATM   11  C   UNK N   1      33.036  17.767   4.192  0.00  0.00     0.037 C 
BRANCH  11  12
HETATM   12  C   UNK N   1      32.621  16.827   3.062  0.00  0.00     0.002 C 
BRANCH  12  13
HETATM   13  C   UNK N   1      33.410  15.530   3.087  0.00  0.00    -0.004 C 
HETATM   14  C   UNK N   1      32.443  14.364   3.095  0.00  0.00     0.005 C 
ENDBRANCH  12  13
ENDBRANCH  11  12
ENDBRANCH   1  11
TORSDOF 3
ENDMDL
MODEL 2
REMARK VINA RESULT:      -5.5      2.793      4.756
REMARK  3 active torsions:
REMARK  status: ('A' for Active; 'I' for Inactive)
REMARK    1  A    between atoms: C_2  and  C_3 
REMARK    2  A    between atoms: C_3  and  C_4 
REMARK    3  A    between atoms: C_4  and  C_5 
ROOT
HETATM    1  C   UNK N   1      32.669  16.801   7.796  0.00  0.00     0.166 A 
HETATM    2  C   UNK N   1      33.430  16.261   8.988  0.00  0.00    -0.013 A 
HETATM    3  C   UNK N   1      34.446  17.108   9.313  0.00  0.00     0.048 A 
HETATM    4  C   UNK N   1      35.330  16.852  10.359  0.00  0.00     0.018 A 
HETATM    5  C   UNK N   1      35.145  15.669  11.096  0.00  0.00     0.001 A 
HETATM    6  C   UNK N   1      34.095  14.786  10.769  0.00  0.00     0.001 A 
HETATM    7  C   UNK N   1      33.225  15.079   9.701  0.00  0.00     0.011 A 
HETATM    8  O   UNK N   1      33.342  18.004   7.537  0.00  0.00    -0.307 OA
HETATM    9  C   UNK N   1      34.370  18.192   8.391  0.00  0.00     0.294 A 
HETATM   10  O   UNK N   1      35.117  19.153   8.353  0.00  0.00    -0.259 OA
ENDROOT
BRANCH   1  11
HETATM   11  C   UNK N   1      31.183  17.008   8.133  0.00  0.00     0.037 C 
BRANCH  11  12
HETATM   12  C   UNK N   1      30.849  18.346   8.789  0.00  0.00     0.002 C 
BRANCH  12  13
HETATM   13  C   UNK N   1      29.639  18.242   9.700  0.00  0.00    -0.004 C 
HETATM   14  C   UNK N   1      28.382  18.387   8.869  0.00  0.00     0.005 C 
ENDBRANCH  12  13
ENDBRANCH  11  12
ENDBRANCH   1  11
TORSDOF 3
ENDMDL
MODEL 3
REMARK VINA RESULT:      -5.4      2.201      2.893
REMARK  3 active torsions:
REMARK  status: ('A' for Active; 'I' for Inactive)
REMARK    1  A    between atoms: C_2  and  C_3 
REMARK    2  A    between atoms: C_3  and  C_4 
REMARK    3  A    between atoms: C_4  and  C_5 
ROOT
HETATM    1  C   UNK N   1      33.568  17.064   6.756  0.00  0.00     0.166 A 
HETATM    2  C   UNK N   1      33.818  16.331   8.057  0.00  0.00    -0.013 A 
HETATM    3  C   UNK N   1      34.546  17.116   8.899  0.00  0.00     0.048 A 
HETATM    4  C   UNK N   1      34.946  16.689  10.164  0.00  0.00     0.018 A 
HETATM    5  C   UNK N   1      34.568  15.396  10.567  0.00  0.00     0.001 A 
HETATM    6  C   UNK N   1      33.812  14.576   9.703  0.00  0.00     0.001 A 
HETATM    7  C   UNK N   1      33.432  15.043   8.430  0.00  0.00     0.011 A 
HETATM    8  O   UNK N   1      34.195  18.297   6.988  0.00  0.00    -0.307 OA
HETATM    9  C   UNK N   1      34.769  18.341   8.208  0.00  0.00     0.294 A 
HETATM   10  O   UNK N   1      35.392  19.299   8.631  0.00  0.00    -0.259 OA
ENDROOT
BRANCH   1  11
HETATM   11  C   UNK N   1      32.062  17.201   6.476  0.00  0.00     0.037 C 
BRANCH  11  12
HETATM   12  C   UNK N   1      31.678  17.214   4.998  0.00  0.00     0.002 C 
BRANCH  12  13
HETATM   13  C   UNK N   1      32.876  17.487   4.106  0.00  0.00    -0.004 C 
HETATM   14  C   UNK N   1      32.931  16.434   3.019  0.00  0.00     0.005 C 
ENDBRANCH  12  13
ENDBRANCH  11  12
ENDBRANCH   1  11
TORSDOF 3
ENDMDL
MODEL 4
REMARK VINA RESULT:      -5.4     10.650     12.159
REMARK  3 active torsions:
REMARK  status: ('A' for Active; 'I' for Inactive)
REMARK    1  A    between atoms: C_2  and  C_3 
REMARK    2  A    between atoms: C_3  and  C_4 
REMARK    3  A    between atoms: C_4  and  C_5 
ROOT
HETATM    1  C   UNK N   1      21.220  13.631   9.113  0.00  0.00     0.166 A 
HETATM    2  C   UNK N   1      22.485  13.111   9.761  0.00  0.00    -0.013 A 
HETATM    3  C   UNK N   1      22.177  12.432  10.902  0.00  0.00     0.048 A 
HETATM    4  C   UNK N   1      23.150  11.861  11.720  0.00  0.00     0.018 A 
HETATM    5  C   UNK N   1      24.494  11.999  11.332  0.00  0.00     0.001 A 
HETATM    6  C   UNK N   1      24.824  12.698  10.152  0.00  0.00     0.001 A 
HETATM    7  C   UNK N   1      23.811  13.265   9.354  0.00  0.00     0.011 A 
HETATM    8  O   UNK N   1      20.227  13.156   9.981  0.00  0.00    -0.307 OA
HETATM    9  C   UNK N   1      20.758  12.474  11.018  0.00  0.00     0.294 A 
HETATM   10  O   UNK N   1      20.099  11.982  11.916  0.00  0.00    -0.259 OA
ENDROOT
BRANCH   1  11
HETATM   11  C   UNK N   1      21.069  13.096   7.680  0.00  0.00     0.037 C 
BRANCH  11  12
HETATM   12  C   UNK N   1      21.157  14.153   6.582  0.00  0.00     0.002 C 
BRANCH  12  13
HETATM   13  C   UNK N   1      21.634  15.489   7.122  0.00  0.00    -0.004 C 
HETATM   14  C   UNK N   1      22.842  15.940   6.328  0.00  0.00     0.005 C 
ENDBRANCH  12  13
ENDBRANCH  11  12
ENDBRANCH   1  11
TORSDOF 3
ENDMDL
MODEL 5
REMARK VINA RESULT:      -5.4      1.774      3.745
REMARK  3 active torsions:
REMARK  status: ('A' for Active; 'I' for Inactive)
REMARK    1  A    between atoms: C_2  and  C_3 
REMARK    2  A    between atoms: C_3  and  C_4 
REMARK    3  A    between atoms: C_4  and  C_5 
ROOT
HETATM    1  C   UNK N   1      34.002  18.112   7.881  0.00  0.00     0.166 A 
HETATM    2  C   UNK N   1      32.526  17.810   7.733  0.00  0.00    -0.013 A 
HETATM    3  C   UNK N   1      32.278  17.302   6.494  0.00  0.00     0.048 A 
HETATM    4  C   UNK N   1      30.997  16.954   6.070  0.00  0.00     0.018 A 
HETATM    5  C   UNK N   1      29.936  17.138   6.974  0.00  0.00     0.001 A 
HETATM    6  C   UNK N   1      30.183  17.661   8.260  0.00  0.00     0.001 A 
HETATM    7  C   UNK N   1      31.492  18.005   8.650  0.00  0.00     0.011 A 
HETATM    8  O   UNK N   1      34.512  17.703   6.640  0.00  0.00    -0.307 OA
HETATM    9  C   UNK N   1      33.536  17.245   5.828  0.00  0.00     0.294 A 
HETATM   10  O   UNK N   1      33.727  16.853   4.691  0.00  0.00    -0.259 OA
ENDROOT
BRANCH   1  11
HETATM   11  C   UNK N   1      34.613  17.340   9.062  0.00  0.00     0.037 C 
BRANCH  11  12
HETATM   12  C   UNK N   1      34.693  15.827   8.873  0.00  0.00     0.002 C 
BRANCH  12  13
HETATM   13  C   UNK N   1      33.721  15.092   9.778  0.00  0.00    -0.004 C 
HETATM   14  C   UNK N   1      32.682  14.395   8.924  0.00  0.00     0.005 C 
ENDBRANCH  12  13
ENDBRANCH  11  12
ENDBRANCH   1  11
TORSDOF 3
ENDMDL
MODEL 6
REMARK VINA RESULT:      -5.3     14.468     15.945
REMARK  3 active torsions:
REMARK  status: ('A' for Active; 'I' for Inactive)
REMARK    1  A    between atoms: C_2  and  C_3 
REMARK    2  A    between atoms: C_3  and  C_4 
REMARK    3  A    between atoms: C_4  and  C_5 
ROOT
HETATM    1  C   UNK N   1      25.696  24.456  -5.794  0.00  0.00     0.166 A 
HETATM    2  C   UNK N   1      25.696  25.827  -5.152  0.00  0.00    -0.013 A 
HETATM    3  C   UNK N   1      26.215  25.751  -3.894  0.00  0.00     0.048 A 
HETATM    4  C   UNK N   1      26.317  26.860  -3.057  0.00  0.00     0.018 A 
HETATM    5  C   UNK N   1      25.865  28.096  -3.552  0.00  0.00     0.001 A 
HETATM    6  C   UNK N   1      25.327  28.186  -4.853  0.00  0.00     0.001 A 
HETATM    7  C   UNK N   1      25.237  27.040  -5.667  0.00  0.00     0.011 A 
HETATM    8  O   UNK N   1      26.274  23.662  -4.793  0.00  0.00    -0.307 OA
HETATM    9  C   UNK N   1      26.570  24.386  -3.693  0.00  0.00     0.294 A 
HETATM   10  O   UNK N   1      27.061  23.915  -2.682  0.00  0.00    -0.259 OA
ENDROOT
BRANCH   1  11
HETATM   11  C   UNK N   1      26.505  24.454  -7.101  0.00  0.00     0.037 C 
BRANCH  11  12
HETATM   12  C   UNK N   1      25.669  24.512  -8.378  0.00  0.00     0.002 C 
BRANCH  12  13
HETATM   13  C   UNK N   1      25.858  25.825  -9.117  0.00  0.00    -0.004 C 
HETATM   14  C   UNK N   1      27.170  26.448  -8.689  0.00  0.00     0.005 C 
ENDBRANCH  12  13
ENDBRANCH  11  12
ENDBRANCH   1  11
TORSDOF 3
ENDMDL
MODEL 7
REMARK VINA RESULT:      -5.3     11.106     13.272
REMARK  3 active torsions:
REMARK  status: ('A' for Active; 'I' for Inactive)
REMARK    1  A    between atoms: C_2  and  C_3 
REMARK    2  A    between atoms: C_3  and  C_4 
REMARK    3  A    between atoms: C_4  and  C_5 
ROOT
HETATM    1  C   UNK N   1      28.937  24.156  -3.624  0.00  0.00     0.166 A 
HETATM    2  C   UNK N   1      29.263  23.033  -4.586  0.00  0.00    -0.013 A 
HETATM    3  C   UNK N   1      30.229  22.233  -4.055  0.00  0.00     0.048 A 
HETATM    4  C   UNK N   1      30.744  21.130  -4.733  0.00  0.00     0.018 A 
HETATM    5  C   UNK N   1      30.228  20.848  -6.010  0.00  0.00     0.001 A 
HETATM    6  C   UNK N   1      29.226  21.669  -6.568  0.00  0.00     0.001 A 
HETATM    7  C   UNK N   1      28.735  22.778  -5.852  0.00  0.00     0.011 A 
HETATM    8  O   UNK N   1      29.783  23.872  -2.543  0.00  0.00    -0.307 OA
HETATM    9  C   UNK N   1      30.539  22.778  -2.776  0.00  0.00     0.294 A 
HETATM   10  O   UNK N   1      31.366  22.344  -1.994  0.00  0.00    -0.259 OA
ENDROOT
BRANCH   1  11
HETATM   11  C   UNK N   1      27.449  24.144  -3.238  0.00  0.00     0.037 C 
BRANCH  11  12
HETATM   12  C   UNK N   1      26.625  25.299  -3.803  0.00  0.00     0.002 C 
BRANCH  12  13
HETATM   13  C   UNK N   1      25.772  24.862  -4.980  0.00  0.00    -0.004 C 
HETATM   14  C   UNK N   1      25.225  26.091  -5.676  0.00  0.00     0.005 C 
ENDBRANCH  12  13
ENDBRANCH  11  12
ENDBRANCH   1  11
TORSDOF 3
ENDMDL
MODEL 8
REMARK VINA RESULT:      -5.2     10.595     11.691
REMARK  3 active torsions:
REMARK  status: ('A' for Active; 'I' for Inactive)
REMARK    1  A    between atoms: C_2  and  C_3 
REMARK    2  A    between atoms: C_3  and  C_4 
REMARK    3  A    between atoms: C_4  and  C_5 
ROOT
HETATM    1  C   UNK N   1      22.360  14.021   8.259  0.00  0.00     0.166 A 
HETATM    2  C   UNK N   1      23.021  13.265   9.391  0.00  0.00    -0.013 A 
HETATM    3  C   UNK N   1      22.086  12.896  10.311  0.00  0.00     0.048 A 
HETATM    4  C   UNK N   1      22.414  12.204  11.476  0.00  0.00     0.018 A 
HETATM    5  C   UNK N   1      23.765  11.883  11.687  0.00  0.00     0.001 A 
HETATM    6  C   UNK N   1      24.741  12.259  10.740  0.00  0.00     0.001 A 
HETATM    7  C   UNK N   1      24.370  12.961   9.577  0.00  0.00     0.011 A 
HETATM    8  O   UNK N   1      21.010  13.999   8.638  0.00  0.00    -0.307 OA
HETATM    9  C   UNK N   1      20.835  13.366   9.817  0.00  0.00     0.294 A 
HETATM   10  O   UNK N   1      19.756  13.237  10.365  0.00  0.00    -0.259 OA
ENDROOT
BRANCH   1  11
HETATM   11  C   UNK N   1      22.613  13.332   6.908  0.00  0.00     0.037 C 
BRANCH  11  12
HETATM   12  C   UNK N   1      22.238  11.852   6.857  0.00  0.00     0.002 C 
BRANCH  12  13
HETATM   13  C   UNK N   1      23.425  10.982   6.486  0.00  0.00    -0.004 C 
HETATM   14  C   UNK N   1      23.661   9.972   7.590  0.00  0.00     0.005 C 
ENDBRANCH  12  13
ENDBRANCH  11  12
ENDBRANCH   1  11
TORSDOF 3
ENDMDL
MODEL 9
REMARK VINA RESULT:      -5.2     10.919     12.265
REMARK  3 active torsions:
REMARK  status: ('A' for Active; 'I' for Inactive)
REMARK    1  A    between atoms: C_2  and  C_3 
REMARK    2  A    between atoms: C_3  and  C_4 
REMARK    3  A    between atoms: C_4  and  C_5 
ROOT
HETATM    1  C   UNK N   1      35.700  12.961  16.178  0.00  0.00     0.166 A 
HETATM    2  C   UNK N   1      35.464  12.113  17.410  0.00  0.00    -0.013 A 
HETATM    3  C   UNK N   1      35.319  12.913  18.503  0.00  0.00     0.048 A 
HETATM    4  C   UNK N   1      35.113  12.402  19.783  0.00  0.00     0.018 A 
HETATM    5  C   UNK N   1      35.051  11.005  19.927  0.00  0.00     0.001 A 
HETATM    6  C   UNK N   1      35.197  10.168  18.801  0.00  0.00     0.001 A 
HETATM    7  C   UNK N   1      35.409  10.724  17.525  0.00  0.00     0.011 A 
HETATM    8  O   UNK N   1      35.644  14.261  16.700  0.00  0.00    -0.307 OA
HETATM    9  C   UNK N   1      35.435  14.253  18.033  0.00  0.00     0.294 A 
HETATM   10  O   UNK N   1      35.370  15.259  18.717  0.00  0.00    -0.259 OA
ENDROOT
BRANCH   1  11
HETATM   11  C   UNK N   1      34.627  12.699  15.108  0.00  0.00     0.037 C 
BRANCH  11  12
HETATM   12  C   UNK N   1      35.166  12.424  13.706  0.00  0.00     0.002 C 
BRANCH  12  13
HETATM   13  C   UNK N   1      34.664  11.101  13.158  0.00  0.00    -0.004 C 
HETATM   14  C   UNK N   1      33.687  10.496  14.145  0.00  0.00     0.005 C 
ENDBRANCH  12  13
ENDBRANCH  11  12
ENDBRANCH   1  11
TORSDOF 3
ENDMDL
