MODEL 1
REMARK VINA RESULT:      -7.1      0.000      0.000
REMARK  15 active torsions:
REMARK  status: ('A' for Active; 'I' for Inactive)
REMARK    1  A    between atoms: C_2  and  C_3 
REMARK    2  A    between atoms: C_3  and  C_4 
REMARK    3  A    between atoms: C_5  and  O_20 
REMARK    4  A    between atoms: C_9  and  O_10 
REMARK    5  A    between atoms: O_10  and  C_11 
REMARK    6  A    between atoms: C_16  and  C_17 
REMARK    7  A    between atoms: C_17  and  O_19 
REMARK    8  A    between atoms: O_20  and  C_21 
REMARK    9  A    between atoms: C_21  and  C_22 
REMARK   10  A    between atoms: C_22  and  C_23 
REMARK   11  A    between atoms: C_23  and  O_24 
REMARK   12  A    between atoms: O_24  and  C_25 
REMARK   13  A    between atoms: C_27  and  O_40 
REMARK   14  A    between atoms: C_28  and  C_33 
REMARK   15  A    between atoms: C_30  and  C_31 
ROOT
HETATM    1  O   UNK N   1      26.177  28.377  -4.876  0.00  0.00    -0.350 OA
ENDROOT
BRANCH   1   2
HETATM    2  C   UNK N   1      26.269  27.046  -4.624  0.00  0.00     0.077 A 
HETATM    3  C   UNK N   1      26.045  26.061  -5.616  0.00  0.00     0.009 A 
HETATM    4  C   UNK N   1      26.282  24.703  -5.321  0.00  0.00     0.085 A 
HETATM    5  C   UNK N   1      26.672  24.338  -4.023  0.00  0.00     0.038 A 
HETATM    6  C   UNK N   1      26.817  25.301  -3.028  0.00  0.00     0.005 A 
HETATM    7  C   UNK N   1      26.633  26.647  -3.333  0.00  0.00     0.037 A 
BRANCH   3   8
HETATM    8  C   UNK N   1      25.542  26.444  -6.976  0.00  0.00     0.044 C 
BRANCH   8   9
HETATM    9  C   UNK N   1      26.655  26.595  -7.987  0.00  0.00     0.000 C 
HETATM   10  C   UNK N   1      26.264  25.830  -9.235  0.00  0.00     0.005 C 
ENDBRANCH   8   9
ENDBRANCH   3   8
BRANCH   4  11
HETATM   11  O   UNK N   1      26.188  23.799  -6.333  0.00  0.00    -0.309 OA
BRANCH  11  12
HETATM   12  C   UNK N   1      27.085  22.840  -6.702  0.00  0.00     0.093 A 
HETATM   13  C   UNK N   1      28.372  22.772  -6.141  0.00  0.00     0.038 A 
HETATM   14  C   UNK N   1      29.290  21.814  -6.573  0.00  0.00     0.003 A 
HETATM   15  C   UNK N   1      28.937  20.919  -7.581  0.00  0.00     0.001 A 
HETATM   16  C   UNK N   1      27.664  20.972  -8.149  0.00  0.00     0.021 A 
HETATM   17  C   UNK N   1      26.725  21.922  -7.716  0.00  0.00     0.071 A 
BRANCH  17  18
HETATM   18  C   UNK N   1      25.394  21.948  -8.376  0.00  0.00     0.178 C 
HETATM   19  O   UNK N   1      25.297  21.951  -9.596  0.00  0.00    -0.646 OA
BRANCH  18  20
HETATM   20  O   UNK N   1      24.272  21.966  -7.634  0.00  0.00    -0.773 OA
HETATM   21  H   UNK N   1      23.563  22.540  -7.846  0.00  0.00     0.167 HD
ENDBRANCH  18  20
ENDBRANCH  17  18
ENDBRANCH  11  12
ENDBRANCH   4  11
ENDBRANCH   1   2
BRANCH   1  22
HETATM   22  C   UNK N   1      26.262  29.362  -3.905  0.00  0.00     0.178 C 
BRANCH  22  23
HETATM   23  C   UNK N   1      27.104  30.556  -4.365  0.00  0.00     0.053 C 
BRANCH  23  24
HETATM   24  C   UNK N   1      28.008  30.200  -5.535  0.00  0.00     0.178 C 
BRANCH  24  25
HETATM   25  O   UNK N   1      29.217  29.817  -5.018  0.00  0.00    -0.350 OA
BRANCH  25  26
HETATM   26  C   UNK N   1      29.619  28.544  -4.853  0.00  0.00     0.077 A 
HETATM   27  C   UNK N   1      29.594  27.616  -5.904  0.00  0.00     0.074 A 
HETATM   28  C   UNK N   1      30.035  26.302  -5.698  0.00  0.00     0.079 A 
HETATM   29  C   UNK N   1      30.495  25.906  -4.416  0.00  0.00     0.008 A 
HETATM   30  C   UNK N   1      30.488  26.847  -3.382  0.00  0.00     0.025 A 
HETATM   31  C   UNK N   1      30.070  28.149  -3.590  0.00  0.00    -0.024 A 
BRANCH  28  32
HETATM   32  O   UNK N   1      30.018  25.443  -6.732  0.00  0.00    -0.360 OA
HETATM   33  H   UNK N   1      30.818  25.065  -7.043  0.00  0.00     0.217 HD
ENDBRANCH  28  32
BRANCH  29  34
HETATM   34  C   UNK N   1      31.014  24.549  -4.096  0.00  0.00    -0.023 A 
HETATM   35  C   UNK N   1      32.128  24.002  -4.749  0.00  0.00     0.015 A 
HETATM   36  C   UNK N   1      32.612  22.741  -4.384  0.00  0.00     0.043 A 
HETATM   37  C   UNK N   1      31.987  22.017  -3.363  0.00  0.00     0.116 A 
HETATM   38  C   UNK N   1      30.874  22.548  -2.713  0.00  0.00     0.043 A 
HETATM   39  F   UNK N   1      32.461  20.804  -3.000  0.00  0.00    -0.206 F 
HETATM   40  C   UNK N   1      30.394  23.804  -3.075  0.00  0.00     0.015 A 
ENDBRANCH  29  34
BRANCH  31  41
HETATM   41  C   UNK N   1      30.068  29.103  -2.442  0.00  0.00     0.037 C 
HETATM   42  C   UNK N   1      31.405  29.117  -1.729  0.00  0.00     0.010 C 
ENDBRANCH  31  41
ENDBRANCH  25  26
ENDBRANCH  24  25
ENDBRANCH  23  24
ENDBRANCH  22  23
ENDBRANCH   1  22
TORSDOF 15
ENDMDL
MODEL 2
REMARK VINA RESULT:      -6.8     13.436     16.360
REMARK  15 active torsions:
REMARK  status: ('A' for Active; 'I' for Inactive)
REMARK    1  A    between atoms: C_2  and  C_3 
REMARK    2  A    between atoms: C_3  and  C_4 
REMARK    3  A    between atoms: C_5  and  O_20 
REMARK    4  A    between atoms: C_9  and  O_10 
REMARK    5  A    between atoms: O_10  and  C_11 
REMARK    6  A    between atoms: C_16  and  C_17 
REMARK    7  A    between atoms: C_17  and  O_19 
REMARK    8  A    between atoms: O_20  and  C_21 
REMARK    9  A    between atoms: C_21  and  C_22 
REMARK   10  A    between atoms: C_22  and  C_23 
REMARK   11  A    between atoms: C_23  and  O_24 
REMARK   12  A    between atoms: O_24  and  C_25 
REMARK   13  A    between atoms: C_27  and  O_40 
REMARK   14  A    between atoms: C_28  and  C_33 
REMARK   15  A    between atoms: C_30  and  C_31 
ROOT
HETATM    1  O   UNK N   1      24.199  19.200   3.666  0.00  0.00    -0.350 OA
ENDROOT
BRANCH   1   2
HETATM    2  C   UNK N   1      25.297  19.382   4.444  0.00  0.00     0.077 A 
HETATM    3  C   UNK N   1      25.901  18.332   5.175  0.00  0.00     0.009 A 
HETATM    4  C   UNK N   1      27.112  18.559   5.859  0.00  0.00     0.085 A 
HETATM    5  C   UNK N   1      27.670  19.849   5.862  0.00  0.00     0.038 A 
HETATM    6  C   UNK N   1      27.034  20.898   5.205  0.00  0.00     0.005 A 
HETATM    7  C   UNK N   1      25.864  20.661   4.488  0.00  0.00     0.037 A 
BRANCH   3   8
HETATM    8  C   UNK N   1      25.257  16.979   5.245  0.00  0.00     0.044 C 
BRANCH   8   9
HETATM    9  C   UNK N   1      25.822  16.012   4.230  0.00  0.00     0.000 C 
HETATM   10  C   UNK N   1      26.023  14.675   4.914  0.00  0.00     0.005 C 
ENDBRANCH   8   9
ENDBRANCH   3   8
BRANCH   4  11
HETATM   11  O   UNK N   1      27.735  17.498   6.437  0.00  0.00    -0.309 OA
BRANCH  11  12
HETATM   12  C   UNK N   1      29.029  17.395   6.854  0.00  0.00     0.093 A 
HETATM   13  C   UNK N   1      30.092  17.245   5.946  0.00  0.00     0.038 A 
HETATM   14  C   UNK N   1      31.402  17.089   6.400  0.00  0.00     0.003 A 
HETATM   15  C   UNK N   1      31.666  17.070   7.768  0.00  0.00     0.001 A 
HETATM   16  C   UNK N   1      30.624  17.217   8.683  0.00  0.00     0.021 A 
HETATM   17  C   UNK N   1      29.301  17.388   8.243  0.00  0.00     0.071 A 
BRANCH  17  18
HETATM   18  C   UNK N   1      28.229  17.514   9.264  0.00  0.00     0.178 C 
HETATM   19  O   UNK N   1      28.101  16.677  10.146  0.00  0.00    -0.646 OA
BRANCH  18  20
HETATM   20  O   UNK N   1      27.384  18.559   9.229  0.00  0.00    -0.773 OA
HETATM   21  H   UNK N   1      26.463  18.439   9.353  0.00  0.00     0.167 HD
ENDBRANCH  18  20
ENDBRANCH  17  18
ENDBRANCH  11  12
ENDBRANCH   4  11
ENDBRANCH   1   2
BRANCH   1  22
HETATM   22  C   UNK N   1      23.439  20.231   3.136  0.00  0.00     0.178 C 
BRANCH  22  23
HETATM   23  C   UNK N   1      22.004  19.792   2.830  0.00  0.00     0.053 C 
BRANCH  23  24
HETATM   24  C   UNK N   1      21.247  19.398   4.088  0.00  0.00     0.178 C 
BRANCH  24  25
HETATM   25  O   UNK N   1      21.021  18.048   4.025  0.00  0.00    -0.350 OA
BRANCH  25  26
HETATM   26  C   UNK N   1      21.253  17.178   5.024  0.00  0.00     0.077 A 
HETATM   27  C   UNK N   1      20.925  17.473   6.355  0.00  0.00     0.074 A 
HETATM   28  C   UNK N   1      21.168  16.535   7.368  0.00  0.00     0.079 A 
HETATM   29  C   UNK N   1      21.762  15.287   7.045  0.00  0.00     0.008 A 
HETATM   30  C   UNK N   1      22.097  15.030   5.712  0.00  0.00     0.025 A 
HETATM   31  C   UNK N   1      21.841  15.949   4.710  0.00  0.00    -0.024 A 
BRANCH  28  32
HETATM   32  O   UNK N   1      20.822  16.840   8.630  0.00  0.00    -0.360 OA
HETATM   33  H   UNK N   1      21.418  17.311   9.180  0.00  0.00     0.217 HD
ENDBRANCH  28  32
BRANCH  29  34
HETATM   34  C   UNK N   1      22.034  14.210   8.034  0.00  0.00    -0.023 A 
HETATM   35  C   UNK N   1      21.276  14.062   9.205  0.00  0.00     0.015 A 
HETATM   36  C   UNK N   1      21.534  13.005  10.085  0.00  0.00     0.043 A 
HETATM   37  C   UNK N   1      22.552  12.089   9.802  0.00  0.00     0.116 A 
HETATM   38  C   UNK N   1      23.316  12.231   8.645  0.00  0.00     0.043 A 
HETATM   39  F   UNK N   1      22.795  11.059  10.645  0.00  0.00    -0.206 F 
HETATM   40  C   UNK N   1      23.057  13.280   7.768  0.00  0.00     0.015 A 
ENDBRANCH  29  34
BRANCH  31  41
HETATM   41  C   UNK N   1      22.239  15.624   3.309  0.00  0.00     0.037 C 
HETATM   42  C   UNK N   1      22.756  14.204   3.193  0.00  0.00     0.010 C 
ENDBRANCH  31  41
ENDBRANCH  25  26
ENDBRANCH  24  25
ENDBRANCH  23  24
ENDBRANCH  22  23
ENDBRANCH   1  22
TORSDOF 15
ENDMDL
MODEL 3
REMARK VINA RESULT:      -6.8     14.099     17.075
REMARK  15 active torsions:
REMARK  status: ('A' for Active; 'I' for Inactive)
REMARK    1  A    between atoms: C_2  and  C_3 
REMARK    2  A    between atoms: C_3  and  C_4 
REMARK    3  A    between atoms: C_5  and  O_20 
REMARK    4  A    between atoms: C_9  and  O_10 
REMARK    5  A    between atoms: O_10  and  C_11 
REMARK    6  A    between atoms: C_16  and  C_17 
REMARK    7  A    between atoms: C_17  and  O_19 
REMARK    8  A    between atoms: O_20  and  C_21 
REMARK    9  A    between atoms: C_21  and  C_22 
REMARK   10  A    between atoms: C_22  and  C_23 
REMARK   11  A    between atoms: C_23  and  O_24 
REMARK   12  A    between atoms: O_24  and  C_25 
REMARK   13  A    between atoms: C_27  and  O_40 
REMARK   14  A    between atoms: C_28  and  C_33 
REMARK   15  A    between atoms: C_30  and  C_31 
ROOT
HETATM    1  O   UNK N   1      24.301  18.170   3.888  0.00  0.00    -0.350 OA
ENDROOT
BRANCH   1   2
HETATM    2  C   UNK N   1      25.110  17.508   4.756  0.00  0.00     0.077 A 
HETATM    3  C   UNK N   1      26.356  18.021   5.186  0.00  0.00     0.009 A 
HETATM    4  C   UNK N   1      27.086  17.346   6.184  0.00  0.00     0.085 A 
HETATM    5  C   UNK N   1      26.598  16.131   6.692  0.00  0.00     0.038 A 
HETATM    6  C   UNK N   1      25.408  15.589   6.213  0.00  0.00     0.005 A 
HETATM    7  C   UNK N   1      24.663  16.282   5.263  0.00  0.00     0.037 A 
BRANCH   3   8
HETATM    8  C   UNK N   1      26.920  19.271   4.577  0.00  0.00     0.044 C 
BRANCH   8   9
HETATM    9  C   UNK N   1      26.317  20.527   5.164  0.00  0.00     0.000 C 
HETATM   10  C   UNK N   1      27.344  21.159   6.080  0.00  0.00     0.005 C 
ENDBRANCH   8   9
ENDBRANCH   3   8
BRANCH   4  11
HETATM   11  O   UNK N   1      28.211  17.936   6.671  0.00  0.00    -0.309 OA
BRANCH  11  12
HETATM   12  C   UNK N   1      29.390  17.353   7.031  0.00  0.00     0.093 A 
HETATM   13  C   UNK N   1      30.170  16.628   6.113  0.00  0.00     0.038 A 
HETATM   14  C   UNK N   1      31.346  15.996   6.519  0.00  0.00     0.003 A 
HETATM   15  C   UNK N   1      31.752  16.072   7.850  0.00  0.00     0.001 A 
HETATM   16  C   UNK N   1      30.991  16.788   8.773  0.00  0.00     0.021 A 
HETATM   17  C   UNK N   1      29.811  17.440   8.378  0.00  0.00     0.071 A 
BRANCH  17  18
HETATM   18  C   UNK N   1      29.027  18.165   9.411  0.00  0.00     0.178 C 
HETATM   19  O   UNK N   1      29.585  18.866  10.245  0.00  0.00    -0.646 OA
BRANCH  18  20
HETATM   20  O   UNK N   1      27.687  18.061   9.439  0.00  0.00    -0.773 OA
HETATM   21  H   UNK N   1      27.209  17.786   8.682  0.00  0.00     0.167 HD
ENDBRANCH  18  20
ENDBRANCH  17  18
ENDBRANCH  11  12
ENDBRANCH   4  11
ENDBRANCH   1   2
BRANCH   1  22
HETATM   22  C   UNK N   1      23.011  18.580   4.183  0.00  0.00     0.178 C 
BRANCH  22  23
HETATM   23  C   UNK N   1      21.966  17.868   3.319  0.00  0.00     0.053 C 
BRANCH  23  24
HETATM   24  C   UNK N   1      20.578  17.927   3.937  0.00  0.00     0.178 C 
BRANCH  24  25
HETATM   25  O   UNK N   1      20.227  16.649   4.282  0.00  0.00    -0.350 OA
BRANCH  25  26
HETATM   26  C   UNK N   1      20.640  16.005   5.388  0.00  0.00     0.077 A 
HETATM   27  C   UNK N   1      20.591  16.603   6.656  0.00  0.00     0.074 A 
HETATM   28  C   UNK N   1      21.016  15.895   7.789  0.00  0.00     0.079 A 
HETATM   29  C   UNK N   1      21.512  14.574   7.648  0.00  0.00     0.008 A 
HETATM   30  C   UNK N   1      21.570  14.012   6.370  0.00  0.00     0.025 A 
HETATM   31  C   UNK N   1      21.133  14.704   5.254  0.00  0.00    -0.024 A 
BRANCH  28  32
HETATM   32  O   UNK N   1      20.935  16.489   8.992  0.00  0.00    -0.360 OA
HETATM   33  H   UNK N   1      20.635  16.005   9.736  0.00  0.00     0.217 HD
ENDBRANCH  28  32
BRANCH  29  34
HETATM   34  C   UNK N   1      21.959  13.723   8.785  0.00  0.00    -0.023 A 
HETATM   35  C   UNK N   1      23.308  13.392   8.984  0.00  0.00     0.015 A 
HETATM   36  C   UNK N   1      23.691  12.629  10.092  0.00  0.00     0.043 A 
HETATM   37  C   UNK N   1      22.731  12.192  11.010  0.00  0.00     0.116 A 
HETATM   38  C   UNK N   1      21.387  12.508  10.817  0.00  0.00     0.043 A 
HETATM   39  F   UNK N   1      23.101  11.465  12.089  0.00  0.00    -0.206 F 
HETATM   40  C   UNK N   1      21.006  13.269   9.715  0.00  0.00     0.015 A 
ENDBRANCH  29  34
BRANCH  31  41
HETATM   41  C   UNK N   1      21.237  14.057   3.913  0.00  0.00     0.037 C 
HETATM   42  C   UNK N   1      22.683  13.845   3.509  0.00  0.00     0.010 C 
ENDBRANCH  31  41
ENDBRANCH  25  26
ENDBRANCH  24  25
ENDBRANCH  23  24
ENDBRANCH  22  23
ENDBRANCH   1  22
TORSDOF 15
ENDMDL
MODEL 4
REMARK VINA RESULT:      -6.6      3.062      7.454
REMARK  15 active torsions:
REMARK  status: ('A' for Active; 'I' for Inactive)
REMARK    1  A    between atoms: C_2  and  C_3 
REMARK    2  A    between atoms: C_3  and  C_4 
REMARK    3  A    between atoms: C_5  and  O_20 
REMARK    4  A    between atoms: C_9  and  O_10 
REMARK    5  A    between atoms: O_10  and  C_11 
REMARK    6  A    between atoms: C_16  and  C_17 
REMARK    7  A    between atoms: C_17  and  O_19 
REMARK    8  A    between atoms: O_20  and  C_21 
REMARK    9  A    between atoms: C_21  and  C_22 
REMARK   10  A    between atoms: C_22  and  C_23 
REMARK   11  A    between atoms: C_23  and  O_24 
REMARK   12  A    between atoms: O_24  and  C_25 
REMARK   13  A    between atoms: C_27  and  O_40 
REMARK   14  A    between atoms: C_28  and  C_33 
REMARK   15  A    between atoms: C_30  and  C_31 
ROOT
HETATM    1  O   UNK N   1      28.706  22.246  -9.944  0.00  0.00    -0.350 OA
ENDROOT
BRANCH   1   2
HETATM    2  C   UNK N   1      28.982  22.889  -8.779  0.00  0.00     0.077 A 
HETATM    3  C   UNK N   1      29.063  22.219  -7.536  0.00  0.00     0.009 A 
HETATM    4  C   UNK N   1      29.480  22.921  -6.387  0.00  0.00     0.085 A 
HETATM    5  C   UNK N   1      29.744  24.298  -6.479  0.00  0.00     0.038 A 
HETATM    6  C   UNK N   1      29.590  24.971  -7.688  0.00  0.00     0.005 A 
HETATM    7  C   UNK N   1      29.227  24.266  -8.833  0.00  0.00     0.037 A 
BRANCH   3   8
HETATM    8  C   UNK N   1      28.694  20.770  -7.421  0.00  0.00     0.044 C 
BRANCH   8   9
HETATM    9  C   UNK N   1      29.777  19.851  -7.937  0.00  0.00     0.000 C 
HETATM   10  C   UNK N   1      29.305  18.422  -7.762  0.00  0.00     0.005 C 
ENDBRANCH   8   9
ENDBRANCH   3   8
BRANCH   4  11
HETATM   11  O   UNK N   1      29.678  22.219  -5.239  0.00  0.00    -0.309 OA
BRANCH  11  12
HETATM   12  C   UNK N   1      30.851  21.780  -4.702  0.00  0.00     0.093 A 
HETATM   13  C   UNK N   1      31.704  20.905  -5.397  0.00  0.00     0.038 A 
HETATM   14  C   UNK N   1      32.874  20.427  -4.806  0.00  0.00     0.003 A 
HETATM   15  C   UNK N   1      33.202  20.811  -3.507  0.00  0.00     0.001 A 
HETATM   16  C   UNK N   1      32.368  21.678  -2.803  0.00  0.00     0.021 A 
HETATM   17  C   UNK N   1      31.193  22.177  -3.388  0.00  0.00     0.071 A 
BRANCH  17  18
HETATM   18  C   UNK N   1      30.330  23.078  -2.580  0.00  0.00     0.178 C 
HETATM   19  O   UNK N   1      30.313  23.002  -1.359  0.00  0.00    -0.646 OA
BRANCH  18  20
HETATM   20  O   UNK N   1      29.556  23.995  -3.187  0.00  0.00    -0.773 OA
HETATM   21  H   UNK N   1      28.978  24.541  -2.692  0.00  0.00     0.167 HD
ENDBRANCH  18  20
ENDBRANCH  17  18
ENDBRANCH  11  12
ENDBRANCH   4  11
ENDBRANCH   1   2
BRANCH   1  22
HETATM   22  C   UNK N   1      28.663  22.864 -11.184  0.00  0.00     0.178 C 
BRANCH  22  23
HETATM   23  C   UNK N   1      27.372  22.545 -11.944  0.00  0.00     0.053 C 
BRANCH  23  24
HETATM   24  C   UNK N   1      26.259  22.091 -11.013  0.00  0.00     0.178 C 
BRANCH  24  25
HETATM   25  O   UNK N   1      25.466  23.178 -10.760  0.00  0.00    -0.350 OA
BRANCH  25  26
HETATM   26  C   UNK N   1      25.594  24.000  -9.703  0.00  0.00     0.077 A 
HETATM   27  C   UNK N   1      25.585  23.521  -8.385  0.00  0.00     0.074 A 
HETATM   28  C   UNK N   1      25.736  24.406  -7.309  0.00  0.00     0.079 A 
HETATM   29  C   UNK N   1      25.884  25.796  -7.556  0.00  0.00     0.008 A 
HETATM   30  C   UNK N   1      25.868  26.246  -8.879  0.00  0.00     0.025 A 
HETATM   31  C   UNK N   1      25.737  25.370  -9.942  0.00  0.00    -0.024 A 
BRANCH  28  32
HETATM   32  O   UNK N   1      25.745  23.912  -6.059  0.00  0.00    -0.360 OA
HETATM   33  H   UNK N   1      25.405  24.421  -5.350  0.00  0.00     0.217 HD
ENDBRANCH  28  32
BRANCH  29  34
HETATM   34  C   UNK N   1      26.082  26.817  -6.492  0.00  0.00    -0.023 A 
HETATM   35  C   UNK N   1      27.221  27.635  -6.446  0.00  0.00     0.015 A 
HETATM   36  C   UNK N   1      27.345  28.617  -5.456  0.00  0.00     0.043 A 
HETATM   37  C   UNK N   1      26.334  28.787  -4.506  0.00  0.00     0.116 A 
HETATM   38  C   UNK N   1      25.203  27.974  -4.537  0.00  0.00     0.043 A 
HETATM   39  F   UNK N   1      26.447  29.744  -3.556  0.00  0.00    -0.206 F 
HETATM   40  C   UNK N   1      25.078  27.000  -5.524  0.00  0.00     0.015 A 
ENDBRANCH  29  34
BRANCH  31  41
HETATM   41  C   UNK N   1      25.708  25.915 -11.331  0.00  0.00     0.037 C 
HETATM   42  C   UNK N   1      24.294  26.232 -11.774  0.00  0.00     0.010 C 
ENDBRANCH  31  41
ENDBRANCH  25  26
ENDBRANCH  24  25
ENDBRANCH  23  24
ENDBRANCH  22  23
ENDBRANCH   1  22
TORSDOF 15
ENDMDL
MODEL 5
REMARK VINA RESULT:      -6.6      3.002      7.482
REMARK  15 active torsions:
REMARK  status: ('A' for Active; 'I' for Inactive)
REMARK    1  A    between atoms: C_2  and  C_3 
REMARK    2  A    between atoms: C_3  and  C_4 
REMARK    3  A    between atoms: C_5  and  O_20 
REMARK    4  A    between atoms: C_9  and  O_10 
REMARK    5  A    between atoms: O_10  and  C_11 
REMARK    6  A    between atoms: C_16  and  C_17 
REMARK    7  A    between atoms: C_17  and  O_19 
REMARK    8  A    between atoms: O_20  and  C_21 
REMARK    9  A    between atoms: C_21  and  C_22 
REMARK   10  A    between atoms: C_22  and  C_23 
REMARK   11  A    between atoms: C_23  and  O_24 
REMARK   12  A    between atoms: O_24  and  C_25 
REMARK   13  A    between atoms: C_27  and  O_40 
REMARK   14  A    between atoms: C_28  and  C_33 
REMARK   15  A    between atoms: C_30  and  C_31 
ROOT
HETATM    1  O   UNK N   1      29.643  21.608 -10.376  0.00  0.00    -0.350 OA
ENDROOT
BRANCH   1   2
HETATM    2  C   UNK N   1      29.832  21.146  -9.113  0.00  0.00     0.077 A 
HETATM    3  C   UNK N   1      30.256  21.977  -8.049  0.00  0.00     0.009 A 
HETATM    4  C   UNK N   1      30.309  21.464  -6.738  0.00  0.00     0.085 A 
HETATM    5  C   UNK N   1      30.005  20.111  -6.514  0.00  0.00     0.038 A 
HETATM    6  C   UNK N   1      29.661  19.277  -7.574  0.00  0.00     0.005 A 
HETATM    7  C   UNK N   1      29.560  19.796  -8.861  0.00  0.00     0.037 A 
BRANCH   3   8
HETATM    8  C   UNK N   1      30.668  23.397  -8.303  0.00  0.00     0.044 C 
BRANCH   8   9
HETATM    9  C   UNK N   1      29.492  24.345  -8.342  0.00  0.00     0.000 C 
HETATM   10  C   UNK N   1      29.628  25.214  -9.575  0.00  0.00     0.005 C 
ENDBRANCH   8   9
ENDBRANCH   3   8
BRANCH   4  11
HETATM   11  O   UNK N   1      30.589  22.323  -5.720  0.00  0.00    -0.309 OA
BRANCH  11  12
HETATM   12  C   UNK N   1      29.778  22.729  -4.703  0.00  0.00     0.093 A 
HETATM   13  C   UNK N   1      28.647  23.533  -4.930  0.00  0.00     0.038 A 
HETATM   14  C   UNK N   1      27.863  23.980  -3.866  0.00  0.00     0.003 A 
HETATM   15  C   UNK N   1      28.204  23.637  -2.560  0.00  0.00     0.001 A 
HETATM   16  C   UNK N   1      29.322  22.840  -2.316  0.00  0.00     0.021 A 
HETATM   17  C   UNK N   1      30.115  22.372  -3.376  0.00  0.00     0.071 A 
BRANCH  17  18
HETATM   18  C   UNK N   1      31.308  21.548  -3.053  0.00  0.00     0.178 C 
HETATM   19  O   UNK N   1      32.135  21.933  -2.237  0.00  0.00    -0.646 OA
BRANCH  18  20
HETATM   20  O   UNK N   1      31.493  20.361  -3.658  0.00  0.00    -0.773 OA
HETATM   21  H   UNK N   1      31.255  19.561  -3.232  0.00  0.00     0.167 HD
ENDBRANCH  18  20
ENDBRANCH  17  18
ENDBRANCH  11  12
ENDBRANCH   4  11
ENDBRANCH   1   2
BRANCH   1  22
HETATM   22  C   UNK N   1      28.522  21.339 -11.146  0.00  0.00     0.178 C 
BRANCH  22  23
HETATM   23  C   UNK N   1      27.698  22.599 -11.426  0.00  0.00     0.053 C 
BRANCH  23  24
HETATM   24  C   UNK N   1      26.203  22.337 -11.332  0.00  0.00     0.178 C 
BRANCH  24  25
HETATM   25  O   UNK N   1      25.592  23.534 -11.071  0.00  0.00    -0.350 OA
BRANCH  25  26
HETATM   26  C   UNK N   1      25.687  24.217  -9.916  0.00  0.00     0.077 A 
HETATM   27  C   UNK N   1      25.501  23.598  -8.671  0.00  0.00     0.074 A 
HETATM   28  C   UNK N   1      25.623  24.338  -7.488  0.00  0.00     0.079 A 
HETATM   29  C   UNK N   1      25.922  25.724  -7.552  0.00  0.00     0.008 A 
HETATM   30  C   UNK N   1      26.082  26.317  -8.807  0.00  0.00     0.025 A 
HETATM   31  C   UNK N   1      25.979  25.582  -9.975  0.00  0.00    -0.024 A 
BRANCH  28  32
HETATM   32  O   UNK N   1      25.460  23.710  -6.311  0.00  0.00    -0.360 OA
HETATM   33  H   UNK N   1      25.288  22.789  -6.289  0.00  0.00     0.217 HD
ENDBRANCH  28  32
BRANCH  29  34
HETATM   34  C   UNK N   1      26.105  26.595  -6.360  0.00  0.00    -0.023 A 
HETATM   35  C   UNK N   1      25.020  27.058  -5.599  0.00  0.00     0.015 A 
HETATM   36  C   UNK N   1      25.240  27.836  -4.458  0.00  0.00     0.043 A 
HETATM   37  C   UNK N   1      26.543  28.159  -4.068  0.00  0.00     0.116 A 
HETATM   38  C   UNK N   1      27.627  27.713  -4.821  0.00  0.00     0.043 A 
HETATM   39  F   UNK N   1      26.757  28.901  -2.957  0.00  0.00    -0.206 F 
HETATM   40  C   UNK N   1      27.410  26.935  -5.955  0.00  0.00     0.015 A 
ENDBRANCH  29  34
BRANCH  31  41
HETATM   41  C   UNK N   1      26.140  26.277 -11.286  0.00  0.00     0.037 C 
HETATM   42  C   UNK N   1      24.830  26.869 -11.767  0.00  0.00     0.010 C 
ENDBRANCH  31  41
ENDBRANCH  25  26
ENDBRANCH  24  25
ENDBRANCH  23  24
ENDBRANCH  22  23
ENDBRANCH   1  22
TORSDOF 15
ENDMDL
MODEL 6
REMARK VINA RESULT:      -6.6      1.586      2.595
REMARK  15 active torsions:
REMARK  status: ('A' for Active; 'I' for Inactive)
REMARK    1  A    between atoms: C_2  and  C_3 
REMARK    2  A    between atoms: C_3  and  C_4 
REMARK    3  A    between atoms: C_5  and  O_20 
REMARK    4  A    between atoms: C_9  and  O_10 
REMARK    5  A    between atoms: O_10  and  C_11 
REMARK    6  A    between atoms: C_16  and  C_17 
REMARK    7  A    between atoms: C_17  and  O_19 
REMARK    8  A    between atoms: O_20  and  C_21 
REMARK    9  A    between atoms: C_21  and  C_22 
REMARK   10  A    between atoms: C_22  and  C_23 
REMARK   11  A    between atoms: C_23  and  O_24 
REMARK   12  A    between atoms: O_24  and  C_25 
REMARK   13  A    between atoms: C_27  and  O_40 
REMARK   14  A    between atoms: C_28  and  C_33 
REMARK   15  A    between atoms: C_30  and  C_31 
ROOT
HETATM    1  O   UNK N   1      26.354  28.204  -4.385  0.00  0.00    -0.350 OA
ENDROOT
BRANCH   1   2
HETATM    2  C   UNK N   1      26.475  26.857  -4.511  0.00  0.00     0.077 A 
HETATM    3  C   UNK N   1      26.567  26.210  -5.766  0.00  0.00     0.009 A 
HETATM    4  C   UNK N   1      26.820  24.826  -5.825  0.00  0.00     0.085 A 
HETATM    5  C   UNK N   1      26.909  24.091  -4.631  0.00  0.00     0.038 A 
HETATM    6  C   UNK N   1      26.742  24.716  -3.398  0.00  0.00     0.005 A 
HETATM    7  C   UNK N   1      26.543  26.093  -3.341  0.00  0.00     0.037 A 
BRANCH   3   8
HETATM    8  C   UNK N   1      26.382  26.981  -7.040  0.00  0.00     0.044 C 
BRANCH   8   9
HETATM    9  C   UNK N   1      27.661  27.625  -7.521  0.00  0.00     0.000 C 
HETATM   10  C   UNK N   1      27.944  27.123  -8.922  0.00  0.00     0.005 C 
ENDBRANCH   8   9
ENDBRANCH   3   8
BRANCH   4  11
HETATM   11  O   UNK N   1      27.037  24.260  -7.043  0.00  0.00    -0.309 OA
BRANCH  11  12
HETATM   12  C   UNK N   1      27.470  23.000  -7.330  0.00  0.00     0.093 A 
HETATM   13  C   UNK N   1      28.833  22.656  -7.290  0.00  0.00     0.038 A 
HETATM   14  C   UNK N   1      29.256  21.373  -7.640  0.00  0.00     0.003 A 
HETATM   15  C   UNK N   1      28.323  20.420  -8.044  0.00  0.00     0.001 A 
HETATM   16  C   UNK N   1      26.968  20.744  -8.089  0.00  0.00     0.021 A 
HETATM   17  C   UNK N   1      26.524  22.026  -7.729  0.00  0.00     0.071 A 
BRANCH  17  18
HETATM   18  C   UNK N   1      25.071  22.322  -7.821  0.00  0.00     0.178 C 
HETATM   19  O   UNK N   1      24.254  21.658  -7.197  0.00  0.00    -0.646 OA
BRANCH  18  20
HETATM   20  O   UNK N   1      24.634  23.331  -8.595  0.00  0.00    -0.773 OA
HETATM   21  H   UNK N   1      23.886  23.226  -9.148  0.00  0.00     0.167 HD
ENDBRANCH  18  20
ENDBRANCH  17  18
ENDBRANCH  11  12
ENDBRANCH   4  11
ENDBRANCH   1   2
BRANCH   1  22
HETATM   22  C   UNK N   1      27.177  28.991  -3.594  0.00  0.00     0.178 C 
BRANCH  22  23
HETATM   23  C   UNK N   1      28.511  29.303  -4.279  0.00  0.00     0.053 C 
BRANCH  23  24
HETATM   24  C   UNK N   1      29.617  28.363  -3.830  0.00  0.00     0.178 C 
BRANCH  24  25
HETATM   25  O   UNK N   1      29.841  27.476  -4.850  0.00  0.00    -0.350 OA
BRANCH  25  26
HETATM   26  C   UNK N   1      30.367  26.247  -4.705  0.00  0.00     0.077 A 
HETATM   27  C   UNK N   1      30.304  25.552  -3.488  0.00  0.00     0.074 A 
HETATM   28  C   UNK N   1      30.850  24.267  -3.379  0.00  0.00     0.079 A 
HETATM   29  C   UNK N   1      31.484  23.672  -4.501  0.00  0.00     0.008 A 
HETATM   30  C   UNK N   1      31.550  24.397  -5.694  0.00  0.00     0.025 A 
HETATM   31  C   UNK N   1      30.995  25.660  -5.807  0.00  0.00    -0.024 A 
BRANCH  28  32
HETATM   32  O   UNK N   1      30.754  23.619  -2.205  0.00  0.00    -0.360 OA
HETATM   33  H   UNK N   1      29.991  23.110  -2.010  0.00  0.00     0.217 HD
ENDBRANCH  28  32
BRANCH  29  34
HETATM   34  C   UNK N   1      32.068  22.304  -4.505  0.00  0.00    -0.023 A 
HETATM   35  C   UNK N   1      33.451  22.082  -4.422  0.00  0.00     0.015 A 
HETATM   36  C   UNK N   1      33.955  20.777  -4.380  0.00  0.00     0.043 A 
HETATM   37  C   UNK N   1      33.082  19.686  -4.420  0.00  0.00     0.116 A 
HETATM   38  C   UNK N   1      31.707  19.895  -4.511  0.00  0.00     0.043 A 
HETATM   39  F   UNK N   1      33.567  18.424  -4.367  0.00  0.00    -0.206 F 
HETATM   40  C   UNK N   1      31.205  21.192  -4.550  0.00  0.00     0.015 A 
ENDBRANCH  29  34
BRANCH  31  41
HETATM   41  C   UNK N   1      31.115  26.392  -7.102  0.00  0.00     0.037 C 
HETATM   42  C   UNK N   1      31.169  25.437  -8.278  0.00  0.00     0.010 C 
ENDBRANCH  31  41
ENDBRANCH  25  26
ENDBRANCH  24  25
ENDBRANCH  23  24
ENDBRANCH  22  23
ENDBRANCH   1  22
TORSDOF 15
ENDMDL
MODEL 7
REMARK VINA RESULT:      -6.6     14.314     17.058
REMARK  15 active torsions:
REMARK  status: ('A' for Active; 'I' for Inactive)
REMARK    1  A    between atoms: C_2  and  C_3 
REMARK    2  A    between atoms: C_3  and  C_4 
REMARK    3  A    between atoms: C_5  and  O_20 
REMARK    4  A    between atoms: C_9  and  O_10 
REMARK    5  A    between atoms: O_10  and  C_11 
REMARK    6  A    between atoms: C_16  and  C_17 
REMARK    7  A    between atoms: C_17  and  O_19 
REMARK    8  A    between atoms: O_20  and  C_21 
REMARK    9  A    between atoms: C_21  and  C_22 
REMARK   10  A    between atoms: C_22  and  C_23 
REMARK   11  A    between atoms: C_23  and  O_24 
REMARK   12  A    between atoms: O_24  and  C_25 
REMARK   13  A    between atoms: C_27  and  O_40 
REMARK   14  A    between atoms: C_28  and  C_33 
REMARK   15  A    between atoms: C_30  and  C_31 
ROOT
HETATM    1  O   UNK N   1      23.668  12.772   7.789  0.00  0.00    -0.350 OA
ENDROOT
BRANCH   1   2
HETATM    2  C   UNK N   1      23.817  13.568   6.699  0.00  0.00     0.077 A 
HETATM    3  C   UNK N   1      23.656  13.094   5.376  0.00  0.00     0.009 A 
HETATM    4  C   UNK N   1      23.698  13.999   4.297  0.00  0.00     0.085 A 
HETATM    5  C   UNK N   1      23.968  15.354   4.545  0.00  0.00     0.038 A 
HETATM    6  C   UNK N   1      24.201  15.806   5.841  0.00  0.00     0.005 A 
HETATM    7  C   UNK N   1      24.109  14.920   6.911  0.00  0.00     0.037 A 
BRANCH   3   8
HETATM    8  C   UNK N   1      23.458  11.632   5.105  0.00  0.00     0.044 C 
BRANCH   8   9
HETATM    9  C   UNK N   1      24.761  10.899   4.883  0.00  0.00     0.000 C 
HETATM   10  C   UNK N   1      24.438   9.465   4.518  0.00  0.00     0.005 C 
ENDBRANCH   8   9
ENDBRANCH   3   8
BRANCH   4  11
HETATM   11  O   UNK N   1      23.406  13.532   3.053  0.00  0.00    -0.309 OA
BRANCH  11  12
HETATM   12  C   UNK N   1      22.327  13.818   2.269  0.00  0.00     0.093 A 
HETATM   13  C   UNK N   1      21.937  15.141   1.997  0.00  0.00     0.038 A 
HETATM   14  C   UNK N   1      20.799  15.408   1.236  0.00  0.00     0.003 A 
HETATM   15  C   UNK N   1      20.030  14.355   0.744  0.00  0.00     0.001 A 
HETATM   16  C   UNK N   1      20.403  13.037   1.003  0.00  0.00     0.021 A 
HETATM   17  C   UNK N   1      21.552  12.751   1.758  0.00  0.00     0.071 A 
BRANCH  17  18
HETATM   18  C   UNK N   1      21.885  11.328   2.024  0.00  0.00     0.178 C 
HETATM   19  O   UNK N   1      21.106  10.603   2.629  0.00  0.00    -0.646 OA
BRANCH  18  20
HETATM   20  O   UNK N   1      23.053  10.816   1.598  0.00  0.00    -0.773 OA
HETATM   21  H   UNK N   1      23.264  10.790   0.685  0.00  0.00     0.167 HD
ENDBRANCH  18  20
ENDBRANCH  17  18
ENDBRANCH  11  12
ENDBRANCH   4  11
ENDBRANCH   1   2
BRANCH   1  22
HETATM   22  C   UNK N   1      23.298  13.229   9.045  0.00  0.00     0.178 C 
BRANCH  22  23
HETATM   23  C   UNK N   1      21.881  12.791   9.425  0.00  0.00     0.053 C 
BRANCH  23  24
HETATM   24  C   UNK N   1      20.935  13.974   9.559  0.00  0.00     0.178 C 
BRANCH  24  25
HETATM   25  O   UNK N   1      20.233  14.073   8.387  0.00  0.00    -0.350 OA
BRANCH  25  26
HETATM   26  C   UNK N   1      20.381  15.053   7.478  0.00  0.00     0.077 A 
HETATM   27  C   UNK N   1      20.571  16.391   7.854  0.00  0.00     0.074 A 
HETATM   28  C   UNK N   1      20.736  17.383   6.879  0.00  0.00     0.079 A 
HETATM   29  C   UNK N   1      20.695  17.034   5.504  0.00  0.00     0.008 A 
HETATM   30  C   UNK N   1      20.482  15.696   5.159  0.00  0.00     0.025 A 
HETATM   31  C   UNK N   1      20.338  14.713   6.123  0.00  0.00    -0.024 A 
BRANCH  28  32
HETATM   32  O   UNK N   1      20.939  18.653   7.272  0.00  0.00    -0.360 OA
HETATM   33  H   UNK N   1      20.299  19.311   7.085  0.00  0.00     0.217 HD
ENDBRANCH  28  32
BRANCH  29  34
HETATM   34  C   UNK N   1      20.889  18.000   4.389  0.00  0.00    -0.023 A 
HETATM   35  C   UNK N   1      22.073  18.739   4.239  0.00  0.00     0.015 A 
HETATM   36  C   UNK N   1      22.233  19.601   3.148  0.00  0.00     0.043 A 
HETATM   37  C   UNK N   1      21.213  19.731   2.201  0.00  0.00     0.116 A 
HETATM   38  C   UNK N   1      20.030  19.009   2.345  0.00  0.00     0.043 A 
HETATM   39  F   UNK N   1      21.371  20.555   1.140  0.00  0.00    -0.206 F 
HETATM   40  C   UNK N   1      19.872  18.148   3.428  0.00  0.00     0.015 A 
ENDBRANCH  29  34
BRANCH  31  41
HETATM   41  C   UNK N   1      20.094  13.305   5.692  0.00  0.00     0.037 C 
HETATM   42  C   UNK N   1      19.153  13.242   4.505  0.00  0.00     0.010 C 
ENDBRANCH  31  41
ENDBRANCH  25  26
ENDBRANCH  24  25
ENDBRANCH  23  24
ENDBRANCH  22  23
ENDBRANCH   1  22
TORSDOF 15
ENDMDL
MODEL 8
REMARK VINA RESULT:      -6.5      2.720      7.042
REMARK  15 active torsions:
REMARK  status: ('A' for Active; 'I' for Inactive)
REMARK    1  A    between atoms: C_2  and  C_3 
REMARK    2  A    between atoms: C_3  and  C_4 
REMARK    3  A    between atoms: C_5  and  O_20 
REMARK    4  A    between atoms: C_9  and  O_10 
REMARK    5  A    between atoms: O_10  and  C_11 
REMARK    6  A    between atoms: C_16  and  C_17 
REMARK    7  A    between atoms: C_17  and  O_19 
REMARK    8  A    between atoms: O_20  and  C_21 
REMARK    9  A    between atoms: C_21  and  C_22 
REMARK   10  A    between atoms: C_22  and  C_23 
REMARK   11  A    between atoms: C_23  and  O_24 
REMARK   12  A    between atoms: O_24  and  C_25 
REMARK   13  A    between atoms: C_27  and  O_40 
REMARK   14  A    between atoms: C_28  and  C_33 
REMARK   15  A    between atoms: C_30  and  C_31 
ROOT
HETATM    1  O   UNK N   1      26.566  21.157  -9.756  0.00  0.00    -0.350 OA
ENDROOT
BRANCH   1   2
HETATM    2  C   UNK N   1      26.652  21.782  -8.553  0.00  0.00     0.077 A 
HETATM    3  C   UNK N   1      27.888  22.090  -7.937  0.00  0.00     0.009 A 
HETATM    4  C   UNK N   1      27.910  22.853  -6.752  0.00  0.00     0.085 A 
HETATM    5  C   UNK N   1      26.697  23.239  -6.159  0.00  0.00     0.038 A 
HETATM    6  C   UNK N   1      25.480  22.869  -6.726  0.00  0.00     0.005 A 
HETATM    7  C   UNK N   1      25.460  22.160  -7.924  0.00  0.00     0.037 A 
BRANCH   3   8
HETATM    8  C   UNK N   1      29.179  21.600  -8.523  0.00  0.00     0.044 C 
BRANCH   8   9
HETATM    9  C   UNK N   1      29.326  20.099  -8.433  0.00  0.00     0.000 C 
HETATM   10  C   UNK N   1      30.619  19.795  -7.704  0.00  0.00     0.005 C 
ENDBRANCH   8   9
ENDBRANCH   3   8
BRANCH   4  11
HETATM   11  O   UNK N   1      29.116  23.247  -6.261  0.00  0.00    -0.309 OA
BRANCH  11  12
HETATM   12  C   UNK N   1      29.703  22.911  -5.077  0.00  0.00     0.093 A 
HETATM   13  C   UNK N   1      30.132  21.600  -4.806  0.00  0.00     0.038 A 
HETATM   14  C   UNK N   1      30.681  21.271  -3.567  0.00  0.00     0.003 A 
HETATM   15  C   UNK N   1      30.800  22.245  -2.578  0.00  0.00     0.001 A 
HETATM   16  C   UNK N   1      30.380  23.551  -2.830  0.00  0.00     0.021 A 
HETATM   17  C   UNK N   1      29.836  23.902  -4.076  0.00  0.00     0.071 A 
BRANCH  17  18
HETATM   18  C   UNK N   1      29.382  25.302  -4.278  0.00  0.00     0.178 C 
HETATM   19  O   UNK N   1      30.050  26.091  -4.932  0.00  0.00    -0.646 OA
BRANCH  18  20
HETATM   20  O   UNK N   1      28.222  25.720  -3.742  0.00  0.00    -0.773 OA
HETATM   21  H   UNK N   1      27.742  26.429  -4.122  0.00  0.00     0.167 HD
ENDBRANCH  18  20
ENDBRANCH  17  18
ENDBRANCH  11  12
ENDBRANCH   4  11
ENDBRANCH   1   2
BRANCH   1  22
HETATM   22  C   UNK N   1      26.336  21.808 -10.958  0.00  0.00     0.178 C 
BRANCH  22  23
HETATM   23  C   UNK N   1      27.608  21.923 -11.805  0.00  0.00     0.053 C 
BRANCH  23  24
HETATM   24  C   UNK N   1      28.220  23.313 -11.730  0.00  0.00     0.178 C 
BRANCH  24  25
HETATM   25  O   UNK N   1      27.220  24.183 -11.386  0.00  0.00    -0.350 OA
BRANCH  25  26
HETATM   26  C   UNK N   1      27.184  24.913 -10.257  0.00  0.00     0.077 A 
HETATM   27  C   UNK N   1      28.333  25.147  -9.488  0.00  0.00     0.074 A 
HETATM   28  C   UNK N   1      28.260  25.925  -8.325  0.00  0.00     0.079 A 
HETATM   29  C   UNK N   1      27.013  26.465  -7.916  0.00  0.00     0.008 A 
HETATM   30  C   UNK N   1      25.881  26.197  -8.690  0.00  0.00     0.025 A 
HETATM   31  C   UNK N   1      25.957  25.444  -9.849  0.00  0.00    -0.024 A 
BRANCH  28  32
HETATM   32  O   UNK N   1      29.384  26.149  -7.622  0.00  0.00    -0.360 OA
HETATM   33  H   UNK N   1      29.679  25.518  -6.995  0.00  0.00     0.217 HD
ENDBRANCH  28  32
BRANCH  29  34
HETATM   34  C   UNK N   1      26.828  27.328  -6.718  0.00  0.00    -0.023 A 
HETATM   35  C   UNK N   1      27.618  28.465  -6.488  0.00  0.00     0.015 A 
HETATM   36  C   UNK N   1      27.378  29.277  -5.374  0.00  0.00     0.043 A 
HETATM   37  C   UNK N   1      26.349  28.959  -4.481  0.00  0.00     0.116 A 
HETATM   38  C   UNK N   1      25.565  27.827  -4.696  0.00  0.00     0.043 A 
HETATM   39  F   UNK N   1      26.108  29.749  -3.411  0.00  0.00    -0.206 F 
HETATM   40  C   UNK N   1      25.801  27.021  -5.806  0.00  0.00     0.015 A 
ENDBRANCH  29  34
BRANCH  31  41
HETATM   41  C   UNK N   1      24.709  25.177 -10.623  0.00  0.00     0.037 C 
HETATM   42  C   UNK N   1      24.372  26.328 -11.549  0.00  0.00     0.010 C 
ENDBRANCH  31  41
ENDBRANCH  25  26
ENDBRANCH  24  25
ENDBRANCH  23  24
ENDBRANCH  22  23
ENDBRANCH   1  22
TORSDOF 15
ENDMDL
MODEL 9
REMARK VINA RESULT:      -6.5      3.011      7.051
REMARK  15 active torsions:
REMARK  status: ('A' for Active; 'I' for Inactive)
REMARK    1  A    between atoms: C_2  and  C_3 
REMARK    2  A    between atoms: C_3  and  C_4 
REMARK    3  A    between atoms: C_5  and  O_20 
REMARK    4  A    between atoms: C_9  and  O_10 
REMARK    5  A    between atoms: O_10  and  C_11 
REMARK    6  A    between atoms: C_16  and  C_17 
REMARK    7  A    between atoms: C_17  and  O_19 
REMARK    8  A    between atoms: O_20  and  C_21 
REMARK    9  A    between atoms: C_21  and  C_22 
REMARK   10  A    between atoms: C_22  and  C_23 
REMARK   11  A    between atoms: C_23  and  O_24 
REMARK   12  A    between atoms: O_24  and  C_25 
REMARK   13  A    between atoms: C_27  and  O_40 
REMARK   14  A    between atoms: C_28  and  C_33 
REMARK   15  A    between atoms: C_30  and  C_31 
ROOT
HETATM    1  O   UNK N   1      33.365  22.372  -6.715  0.00  0.00    -0.350 OA
ENDROOT
BRANCH   1   2
HETATM    2  C   UNK N   1      32.782  23.586  -6.532  0.00  0.00     0.077 A 
HETATM    3  C   UNK N   1      31.831  24.122  -7.432  0.00  0.00     0.009 A 
HETATM    4  C   UNK N   1      31.170  25.326  -7.117  0.00  0.00     0.085 A 
HETATM    5  C   UNK N   1      31.516  26.016  -5.944  0.00  0.00     0.038 A 
HETATM    6  C   UNK N   1      32.508  25.525  -5.098  0.00  0.00     0.005 A 
HETATM    7  C   UNK N   1      33.124  24.310  -5.384  0.00  0.00     0.037 A 
BRANCH   3   8
HETATM    8  C   UNK N   1      31.527  23.431  -8.728  0.00  0.00     0.044 C 
BRANCH   8   9
HETATM    9  C   UNK N   1      32.438  23.873  -9.850  0.00  0.00     0.000 C 
HETATM   10  C   UNK N   1      31.574  24.355 -10.996  0.00  0.00     0.005 C 
ENDBRANCH   8   9
ENDBRANCH   3   8
BRANCH   4  11
HETATM   11  O   UNK N   1      30.166  25.743  -7.935  0.00  0.00    -0.309 OA
BRANCH  11  12
HETATM   12  C   UNK N   1      28.823  25.747  -7.699  0.00  0.00     0.093 A 
HETATM   13  C   UNK N   1      28.090  24.555  -7.564  0.00  0.00     0.038 A 
HETATM   14  C   UNK N   1      26.708  24.585  -7.376  0.00  0.00     0.003 A 
HETATM   15  C   UNK N   1      26.039  25.807  -7.329  0.00  0.00     0.001 A 
HETATM   16  C   UNK N   1      26.751  26.998  -7.459  0.00  0.00     0.021 A 
HETATM   17  C   UNK N   1      28.143  26.987  -7.637  0.00  0.00     0.071 A 
BRANCH  17  18
HETATM   18  C   UNK N   1      28.845  28.287  -7.797  0.00  0.00     0.178 C 
HETATM   19  O   UNK N   1      28.989  28.791  -8.902  0.00  0.00    -0.646 OA
BRANCH  18  20
HETATM   20  O   UNK N   1      29.331  28.928  -6.719  0.00  0.00    -0.773 OA
HETATM   21  H   UNK N   1      29.645  29.809  -6.783  0.00  0.00     0.167 HD
ENDBRANCH  18  20
ENDBRANCH  17  18
ENDBRANCH  11  12
ENDBRANCH   4  11
ENDBRANCH   1   2
BRANCH   1  22
HETATM   22  C   UNK N   1      34.186  21.753  -5.786  0.00  0.00     0.178 C 
BRANCH  22  23
HETATM   23  C   UNK N   1      33.928  20.246  -5.700  0.00  0.00     0.053 C 
BRANCH  23  24
HETATM   24  C   UNK N   1      33.290  19.852  -4.378  0.00  0.00     0.178 C 
BRANCH  24  25
HETATM   25  O   UNK N   1      31.932  19.873  -4.555  0.00  0.00    -0.350 OA
BRANCH  25  26
HETATM   26  C   UNK N   1      31.139  20.937  -4.333  0.00  0.00     0.077 A 
HETATM   27  C   UNK N   1      31.185  21.657  -3.130  0.00  0.00     0.074 A 
HETATM   28  C   UNK N   1      30.355  22.770  -2.941  0.00  0.00     0.079 A 
HETATM   29  C   UNK N   1      29.453  23.159  -3.965  0.00  0.00     0.008 A 
HETATM   30  C   UNK N   1      29.414  22.409  -5.143  0.00  0.00     0.025 A 
HETATM   31  C   UNK N   1      30.247  21.321  -5.338  0.00  0.00    -0.024 A 
BRANCH  28  32
HETATM   32  O   UNK N   1      30.439  23.452  -1.785  0.00  0.00    -0.360 OA
HETATM   33  H   UNK N   1      30.834  23.056  -1.033  0.00  0.00     0.217 HD
ENDBRANCH  28  32
BRANCH  29  34
HETATM   34  C   UNK N   1      28.551  24.339  -3.881  0.00  0.00    -0.023 A 
HETATM   35  C   UNK N   1      29.026  25.653  -4.011  0.00  0.00     0.015 A 
HETATM   36  C   UNK N   1      28.136  26.732  -3.974  0.00  0.00     0.043 A 
HETATM   37  C   UNK N   1      26.766  26.507  -3.806  0.00  0.00     0.116 A 
HETATM   38  C   UNK N   1      26.285  25.207  -3.667  0.00  0.00     0.043 A 
HETATM   39  F   UNK N   1      25.903  27.549  -3.782  0.00  0.00    -0.206 F 
HETATM   40  C   UNK N   1      27.169  24.133  -3.707  0.00  0.00     0.015 A 
ENDBRANCH  29  34
BRANCH  31  41
HETATM   41  C   UNK N   1      30.146  20.549  -6.611  0.00  0.00     0.037 C 
HETATM   42  C   UNK N   1      28.955  20.993  -7.438  0.00  0.00     0.010 C 
ENDBRANCH  31  41
ENDBRANCH  25  26
ENDBRANCH  24  25
ENDBRANCH  23  24
ENDBRANCH  22  23
ENDBRANCH   1  22
TORSDOF 15
ENDMDL
