MODEL 1
REMARK VINA RESULT:      -8.2      0.000      0.000
REMARK  6 active torsions:
REMARK  status: ('A' for Active; 'I' for Inactive)
REMARK    1  A    between atoms: C_5  and  C_21 
REMARK    2  A    between atoms: C_6  and  C_13 
REMARK    3  A    between atoms: N_17  and  O_19 
REMARK    4  A    between atoms: C_21  and  C_22 
REMARK    5  A    between atoms: C_21  and  N_26 
REMARK    6  A    between atoms: N_26  and  C_27 
ROOT
HETATM    1  C   UNK N   1      21.503  14.109   9.220  0.00  0.00     0.003 A 
HETATM    2  C   UNK N   1      22.432  14.281   8.188  0.00  0.00     0.014 A 
HETATM    3  C   UNK N   1      22.204  15.241   7.197  0.00  0.00    -0.007 A 
HETATM    4  C   UNK N   1      23.080  15.377   6.123  0.00  0.00     0.025 A 
HETATM    5  C   UNK N   1      22.810  16.275   5.071  0.00  0.00     0.002 A 
HETATM    6  C   UNK N   1      21.638  17.087   5.180  0.00  0.00     0.053 A 
HETATM    7  N   UNK N   1      20.829  16.951   6.270  0.00  0.00    -0.353 N 
ATOM      8  HN  UNK N   1      20.017  17.563   6.353  1.00  0.00     0.166 HD
HETATM    9  C   UNK N   1      21.054  16.041   7.248  0.00  0.00     0.065 A 
HETATM   10  C   UNK N   1      20.120  15.865   8.283  0.00  0.00     0.061 A 
HETATM   11  C   UNK N   1      20.346  14.893   9.262  0.00  0.00     0.026 A 
HETATM   12 Cl   UNK N   1      18.638  16.808   8.332  0.00  0.00    -0.082 Cl
ENDROOT
BRANCH   5  13
HETATM   13  C   UNK N   1      23.715  16.283   3.830  0.00  0.00     0.227 C 
BRANCH  13  14
HETATM   14  C   UNK N   1      23.508  15.118   2.827  0.00  0.00     0.411 C 
HETATM   15  F   UNK N   1      24.415  15.197   1.784  0.00  0.00    -0.168 F 
HETATM   16  F   UNK N   1      22.217  15.163   2.335  0.00  0.00    -0.168 F 
HETATM   17  F   UNK N   1      23.631  13.887   3.444  0.00  0.00    -0.168 F 
ENDBRANCH  13  14
BRANCH  13  18
HETATM   18  N   UNK N   1      25.126  16.537   4.146  0.00  0.00    -0.357 N 
HETATM   19  H   UNK N   1      25.724  15.770   4.300  0.00  0.00     0.162 HD
BRANCH  18  20
HETATM   20  C   UNK N   1      25.662  17.857   4.237  0.00  0.00     0.132 A 
HETATM   21  C   UNK N   1      26.544  18.214   5.266  0.00  0.00     0.103 A 
HETATM   22  C   UNK N   1      26.938  19.558   5.387  0.00  0.00     0.063 A 
HETATM   23  N   UNK N   1      26.993  17.297   6.169  0.00  0.00    -0.361 N 
HETATM   24  C   UNK N   1      27.761  19.944   6.444  0.00  0.00     0.033 A 
HETATM   25  N   UNK N   1      26.502  20.477   4.488  0.00  0.00    -0.350 N 
HETATM   26  C   UNK N   1      28.195  18.988   7.362  0.00  0.00     0.019 A 
HETATM   27  C   UNK N   1      27.808  17.656   7.198  0.00  0.00     0.088 A 
HETATM   28  C   UNK N   1      25.690  20.107   3.465  0.00  0.00     0.182 A 
ATOM     29  HN  UNK N   1      26.786  21.452   4.580  1.00  0.00     0.166 HD
HETATM   30  N   UNK N   1      25.273  18.819   3.352  0.00  0.00    -0.337 N 
ATOM     31  HN  UNK N   1      24.651  18.564   2.584  1.00  0.00     0.168 HD
ATOM     32  HN  UNK N   1      26.714  16.322   6.070  1.00  0.00     0.165 HD
ENDBRANCH  18  20
ENDBRANCH  13  18
ENDBRANCH   5  13
BRANCH   6  33
HETATM   33  C   UNK N   1      21.162  18.012   4.129  0.00  0.00     0.009 A 
HETATM   34  C   UNK N   1      20.030  17.736   3.360  0.00  0.00     0.016 A 
HETATM   35  C   UNK N   1      19.546  18.691   2.467  0.00  0.00     0.021 A 
HETATM   36  C   UNK N   1      20.222  19.903   2.325  0.00  0.00     0.122 A 
HETATM   37  N   UNK N   1      21.325  20.163   3.075  0.00  0.00    -0.246 N 
HETATM   38  C   UNK N   1      21.784  19.260   3.982  0.00  0.00     0.136 A 
BRANCH  37  39
HETATM   39  O   UNK N   1      21.960  21.320   2.925  0.00  0.00    -0.284 OA
ATOM     40  HO  UNK N   1      21.648  22.089   3.388  1.00  0.00     0.245 HD
ENDBRANCH  37  39
ENDBRANCH   6  33
TORSDOF 6
ENDMDL
MODEL 2
REMARK VINA RESULT:      -7.9      1.218      2.241
REMARK  6 active torsions:
REMARK  status: ('A' for Active; 'I' for Inactive)
REMARK    1  A    between atoms: C_5  and  C_21 
REMARK    2  A    between atoms: C_6  and  C_13 
REMARK    3  A    between atoms: N_17  and  O_19 
REMARK    4  A    between atoms: C_21  and  C_22 
REMARK    5  A    between atoms: C_21  and  N_26 
REMARK    6  A    between atoms: N_26  and  C_27 
ROOT
HETATM    1  C   UNK N   1      21.392  13.726   9.399  0.00  0.00     0.003 A 
HETATM    2  C   UNK N   1      22.301  13.872   8.345  0.00  0.00     0.014 A 
HETATM    3  C   UNK N   1      22.126  14.896   7.410  0.00  0.00    -0.007 A 
HETATM    4  C   UNK N   1      22.978  15.013   6.314  0.00  0.00     0.025 A 
HETATM    5  C   UNK N   1      22.753  15.983   5.316  0.00  0.00     0.002 A 
HETATM    6  C   UNK N   1      21.657  16.882   5.503  0.00  0.00     0.053 A 
HETATM    7  N   UNK N   1      20.873  16.758   6.612  0.00  0.00    -0.353 N 
ATOM      8  HN  UNK N   1      20.118  17.430   6.751  1.00  0.00     0.166 HD
HETATM    9  C   UNK N   1      21.049  15.786   7.537  0.00  0.00     0.065 A 
HETATM   10  C   UNK N   1      20.135  15.635   8.594  0.00  0.00     0.061 A 
HETATM   11  C   UNK N   1      20.307  14.599   9.517  0.00  0.00     0.026 A 
HETATM   12 Cl   UNK N   1      18.740  16.694   8.738  0.00  0.00    -0.082 Cl
ENDROOT
BRANCH   5  13
HETATM   13  C   UNK N   1      23.618  15.978   4.047  0.00  0.00     0.227 C 
BRANCH  13  14
HETATM   14  C   UNK N   1      23.085  15.132   2.861  0.00  0.00     0.411 C 
HETATM   15  F   UNK N   1      21.986  15.740   2.276  0.00  0.00    -0.168 F 
HETATM   16  F   UNK N   1      22.742  13.873   3.315  0.00  0.00    -0.168 F 
HETATM   17  F   UNK N   1      24.058  14.932   1.900  0.00  0.00    -0.168 F 
ENDBRANCH  13  14
BRANCH  13  18
HETATM   18  N   UNK N   1      25.044  15.764   4.320  0.00  0.00    -0.357 N 
HETATM   19  H   UNK N   1      25.479  14.954   3.968  0.00  0.00     0.162 HD
BRANCH  18  20
HETATM   20  C   UNK N   1      25.823  16.689   5.080  0.00  0.00     0.132 A 
HETATM   21  C   UNK N   1      26.034  18.000   4.634  0.00  0.00     0.103 A 
HETATM   22  C   UNK N   1      26.915  18.829   5.352  0.00  0.00     0.063 A 
HETATM   23  N   UNK N   1      25.436  18.473   3.504  0.00  0.00    -0.361 N 
HETATM   24  C   UNK N   1      27.189  20.113   4.885  0.00  0.00     0.033 A 
HETATM   25  N   UNK N   1      27.509  18.369   6.483  0.00  0.00    -0.350 N 
HETATM   26  C   UNK N   1      26.574  20.567   3.719  0.00  0.00     0.019 A 
HETATM   27  C   UNK N   1      25.683  19.730   3.044  0.00  0.00     0.088 A 
HETATM   28  C   UNK N   1      27.254  17.114   6.932  0.00  0.00     0.182 A 
ATOM     29  HN  UNK N   1      28.150  18.971   6.999  1.00  0.00     0.166 HD
HETATM   30  N   UNK N   1      26.432  16.289   6.234  0.00  0.00    -0.337 N 
ATOM     31  HN  UNK N   1      26.265  15.344   6.581  1.00  0.00     0.168 HD
ATOM     32  HN  UNK N   1      24.789  17.873   2.994  1.00  0.00     0.165 HD
ENDBRANCH  18  20
ENDBRANCH  13  18
ENDBRANCH   5  13
BRANCH   6  33
HETATM   33  C   UNK N   1      21.230  17.895   4.514  0.00  0.00     0.009 A 
HETATM   34  C   UNK N   1      22.076  18.929   4.104  0.00  0.00     0.016 A 
HETATM   35  C   UNK N   1      21.678  19.786   3.079  0.00  0.00     0.021 A 
HETATM   36  C   UNK N   1      20.421  19.624   2.497  0.00  0.00     0.122 A 
HETATM   37  N   UNK N   1      19.602  18.618   2.904  0.00  0.00    -0.246 N 
HETATM   38  C   UNK N   1      19.993  17.746   3.871  0.00  0.00     0.136 A 
BRANCH  37  39
HETATM   39  O   UNK N   1      18.407  18.480   2.344  0.00  0.00    -0.284 OA
ATOM     40  HO  UNK N   1      18.193  18.983   1.567  1.00  0.00     0.245 HD
ENDBRANCH  37  39
ENDBRANCH   6  33
TORSDOF 6
ENDMDL
MODEL 3
REMARK VINA RESULT:      -7.8      1.928      2.590
REMARK  6 active torsions:
REMARK  status: ('A' for Active; 'I' for Inactive)
REMARK    1  A    between atoms: C_5  and  C_21 
REMARK    2  A    between atoms: C_6  and  C_13 
REMARK    3  A    between atoms: N_17  and  O_19 
REMARK    4  A    between atoms: C_21  and  C_22 
REMARK    5  A    between atoms: C_21  and  N_26 
REMARK    6  A    between atoms: N_26  and  C_27 
ROOT
HETATM    1  C   UNK N   1      23.429  12.066  10.635  0.00  0.00     0.003 A 
HETATM    2  C   UNK N   1      24.262  12.488   9.593  0.00  0.00     0.014 A 
HETATM    3  C   UNK N   1      23.789  13.406   8.650  0.00  0.00    -0.007 A 
HETATM    4  C   UNK N   1      24.579  13.783   7.565  0.00  0.00     0.025 A 
HETATM    5  C   UNK N   1      24.077  14.634   6.560  0.00  0.00     0.002 A 
HETATM    6  C   UNK N   1      22.752  15.146   6.728  0.00  0.00     0.053 A 
HETATM    7  N   UNK N   1      22.029  14.784   7.826  0.00  0.00    -0.353 N 
ATOM      8  HN  UNK N   1      21.101  15.187   7.951  1.00  0.00     0.166 HD
HETATM    9  C   UNK N   1      22.487  13.915   8.758  0.00  0.00     0.065 A 
HETATM   10  C   UNK N   1      21.650  13.486   9.802  0.00  0.00     0.061 A 
HETATM   11  C   UNK N   1      22.124  12.557  10.733  0.00  0.00     0.026 A 
HETATM   12 Cl   UNK N   1      19.993  14.057   9.923  0.00  0.00    -0.082 Cl
ENDROOT
BRANCH   5  13
HETATM   13  C   UNK N   1      24.919  14.899   5.303  0.00  0.00     0.227 C 
BRANCH  13  14
HETATM   14  C   UNK N   1      24.705  13.919   4.119  0.00  0.00     0.411 C 
HETATM   15  F   UNK N   1      25.884  13.268   3.798  0.00  0.00    -0.168 F 
HETATM   16  F   UNK N   1      24.239  14.620   3.023  0.00  0.00    -0.168 F 
HETATM   17  F   UNK N   1      23.731  12.981   4.405  0.00  0.00    -0.168 F 
ENDBRANCH  13  14
BRANCH  13  18
HETATM   18  N   UNK N   1      26.333  15.157   5.598  0.00  0.00    -0.357 N 
HETATM   19  H   UNK N   1      26.895  14.413   5.915  0.00  0.00     0.162 HD
BRANCH  18  20
HETATM   20  C   UNK N   1      26.922  16.449   5.443  0.00  0.00     0.132 A 
HETATM   21  C   UNK N   1      27.406  17.164   6.547  0.00  0.00     0.103 A 
HETATM   22  C   UNK N   1      27.854  18.483   6.357  0.00  0.00     0.063 A 
HETATM   23  N   UNK N   1      27.414  16.624   7.797  0.00  0.00    -0.361 N 
HETATM   24  C   UNK N   1      28.276  19.234   7.453  0.00  0.00     0.033 A 
HETATM   25  N   UNK N   1      27.858  19.027   5.113  0.00  0.00    -0.350 N 
HETATM   26  C   UNK N   1      28.261  18.662   8.725  0.00  0.00     0.019 A 
HETATM   27  C   UNK N   1      27.835  17.340   8.876  0.00  0.00     0.088 A 
HETATM   28  C   UNK N   1      27.435  18.303   4.045  0.00  0.00     0.182 A 
ATOM     29  HN  UNK N   1      28.180  19.985   4.979  1.00  0.00     0.166 HD
HETATM   30  N   UNK N   1      26.968  17.039   4.214  0.00  0.00    -0.337 N 
ATOM     31  HN  UNK N   1      26.641  16.517   3.401  1.00  0.00     0.168 HD
ATOM     32  HN  UNK N   1      27.098  15.664   7.928  1.00  0.00     0.165 HD
ENDBRANCH  18  20
ENDBRANCH  13  18
ENDBRANCH   5  13
BRANCH   6  33
HETATM   33  C   UNK N   1      22.045  15.975   5.727  0.00  0.00     0.009 A 
HETATM   34  C   UNK N   1      21.388  15.409   4.632  0.00  0.00     0.016 A 
HETATM   35  C   UNK N   1      20.630  16.216   3.785  0.00  0.00     0.021 A 
HETATM   36  C   UNK N   1      20.565  17.589   4.019  0.00  0.00     0.122 A 
HETATM   37  N   UNK N   1      21.210  18.132   5.085  0.00  0.00    -0.246 N 
HETATM   38  C   UNK N   1      21.917  17.354   5.947  0.00  0.00     0.136 A 
BRANCH  37  39
HETATM   39  O   UNK N   1      21.143  19.442   5.294  0.00  0.00    -0.284 OA
ATOM     40  HO  UNK N   1      21.295  20.040   4.570  1.00  0.00     0.245 HD
ENDBRANCH  37  39
ENDBRANCH   6  33
TORSDOF 6
ENDMDL
MODEL 4
REMARK VINA RESULT:      -7.8      8.520     12.244
REMARK  6 active torsions:
REMARK  status: ('A' for Active; 'I' for Inactive)
REMARK    1  A    between atoms: C_5  and  C_21 
REMARK    2  A    between atoms: C_6  and  C_13 
REMARK    3  A    between atoms: N_17  and  O_19 
REMARK    4  A    between atoms: C_21  and  C_22 
REMARK    5  A    between atoms: C_21  and  N_26 
REMARK    6  A    between atoms: N_26  and  C_27 
ROOT
HETATM    1  C   UNK N   1      28.594  17.823   6.274  0.00  0.00     0.003 A 
HETATM    2  C   UNK N   1      29.612  16.950   5.874  0.00  0.00     0.014 A 
HETATM    3  C   UNK N   1      30.621  16.596   6.775  0.00  0.00    -0.007 A 
HETATM    4  C   UNK N   1      31.681  15.787   6.373  0.00  0.00     0.025 A 
HETATM    5  C   UNK N   1      32.751  15.502   7.245  0.00  0.00     0.002 A 
HETATM    6  C   UNK N   1      32.676  16.022   8.575  0.00  0.00     0.053 A 
HETATM    7  N   UNK N   1      31.600  16.776   8.939  0.00  0.00    -0.353 N 
ATOM      8  HN  UNK N   1      31.541  17.107   9.902  1.00  0.00     0.166 HD
HETATM    9  C   UNK N   1      30.604  17.104   8.082  0.00  0.00     0.065 A 
HETATM   10  C   UNK N   1      29.584  17.983   8.481  0.00  0.00     0.061 A 
HETATM   11  C   UNK N   1      28.585  18.345   7.571  0.00  0.00     0.026 A 
HETATM   12 Cl   UNK N   1      29.575  18.686  10.091  0.00  0.00    -0.082 Cl
ENDROOT
BRANCH   5  13
HETATM   13  C   UNK N   1      33.976  14.739   6.718  0.00  0.00     0.227 C 
BRANCH  13  14
HETATM   14  C   UNK N   1      34.597  15.273   5.400  0.00  0.00     0.411 C 
HETATM   15  F   UNK N   1      34.480  16.651   5.322  0.00  0.00    -0.168 F 
HETATM   16  F   UNK N   1      33.961  14.684   4.324  0.00  0.00    -0.168 F 
HETATM   17  F   UNK N   1      35.929  14.923   5.286  0.00  0.00    -0.168 F 
ENDBRANCH  13  14
BRANCH  13  18
HETATM   18  N   UNK N   1      33.798  13.282   6.730  0.00  0.00    -0.357 N 
HETATM   19  H   UNK N   1      33.536  12.828   5.897  0.00  0.00     0.162 HD
BRANCH  18  20
HETATM   20  C   UNK N   1      33.991  12.500   7.910  0.00  0.00     0.132 A 
HETATM   21  C   UNK N   1      35.175  12.587   8.654  0.00  0.00     0.103 A 
HETATM   22  C   UNK N   1      35.368  11.701   9.729  0.00  0.00     0.063 A 
HETATM   23  N   UNK N   1      36.152  13.481   8.336  0.00  0.00    -0.361 N 
HETATM   24  C   UNK N   1      36.567  11.728  10.439  0.00  0.00     0.033 A 
HETATM   25  N   UNK N   1      34.396  10.812  10.059  0.00  0.00    -0.350 N 
HETATM   26  C   UNK N   1      37.557  12.644  10.083  0.00  0.00     0.019 A 
HETATM   27  C   UNK N   1      37.323  13.529   9.028  0.00  0.00     0.088 A 
HETATM   28  C   UNK N   1      33.232  10.775   9.361  0.00  0.00     0.182 A 
ATOM     29  HN  UNK N   1      34.540  10.168  10.837  1.00  0.00     0.166 HD
HETATM   30  N   UNK N   1      33.042  11.600   8.300  0.00  0.00    -0.337 N 
ATOM     31  HN  UNK N   1      32.166  11.546   7.779  1.00  0.00     0.168 HD
ATOM     32  HN  UNK N   1      36.003  14.129   7.563  1.00  0.00     0.165 HD
ENDBRANCH  18  20
ENDBRANCH  13  18
ENDBRANCH   5  13
BRANCH   6  33
HETATM   33  C   UNK N   1      33.751  15.893   9.584  0.00  0.00     0.009 A 
HETATM   34  C   UNK N   1      34.793  16.818   9.675  0.00  0.00     0.016 A 
HETATM   35  C   UNK N   1      35.713  16.728  10.718  0.00  0.00     0.021 A 
HETATM   36  C   UNK N   1      35.604  15.688  11.642  0.00  0.00     0.122 A 
HETATM   37  N   UNK N   1      34.589  14.790  11.545  0.00  0.00    -0.246 N 
HETATM   38  C   UNK N   1      33.658  14.889  10.560  0.00  0.00     0.136 A 
BRANCH  37  39
HETATM   39  O   UNK N   1      34.501  13.803  12.430  0.00  0.00    -0.284 OA
ATOM     40  HO  UNK N   1      34.603  13.994  13.355  1.00  0.00     0.245 HD
ENDBRANCH  37  39
ENDBRANCH   6  33
TORSDOF 6
ENDMDL
MODEL 5
REMARK VINA RESULT:      -7.7      3.450      5.232
REMARK  6 active torsions:
REMARK  status: ('A' for Active; 'I' for Inactive)
REMARK    1  A    between atoms: C_5  and  C_21 
REMARK    2  A    between atoms: C_6  and  C_13 
REMARK    3  A    between atoms: N_17  and  O_19 
REMARK    4  A    between atoms: C_21  and  C_22 
REMARK    5  A    between atoms: C_21  and  N_26 
REMARK    6  A    between atoms: N_26  and  C_27 
ROOT
HETATM    1  C   UNK N   1      23.933  12.766   7.178  0.00  0.00     0.003 A 
HETATM    2  C   UNK N   1      25.248  13.082   6.817  0.00  0.00     0.014 A 
HETATM    3  C   UNK N   1      25.563  14.377   6.394  0.00  0.00    -0.007 A 
HETATM    4  C   UNK N   1      26.849  14.691   5.961  0.00  0.00     0.025 A 
HETATM    5  C   UNK N   1      27.152  15.967   5.445  0.00  0.00     0.002 A 
HETATM    6  C   UNK N   1      26.108  16.944   5.441  0.00  0.00     0.053 A 
HETATM    7  N   UNK N   1      24.874  16.606   5.912  0.00  0.00    -0.353 N 
ATOM      8  HN  UNK N   1      24.150  17.324   5.938  1.00  0.00     0.166 HD
HETATM    9  C   UNK N   1      24.565  15.362   6.347  0.00  0.00     0.065 A 
HETATM   10  C   UNK N   1      23.245  15.041   6.706  0.00  0.00     0.061 A 
HETATM   11  C   UNK N   1      22.933  13.741   7.114  0.00  0.00     0.026 A 
HETATM   12 Cl   UNK N   1      21.963  16.238   6.593  0.00  0.00    -0.082 Cl
ENDROOT
BRANCH   5  13
HETATM   13  C   UNK N   1      28.537  16.227   4.833  0.00  0.00     0.227 C 
BRANCH  13  14
HETATM   14  C   UNK N   1      28.724  15.785   3.357  0.00  0.00     0.411 C 
HETATM   15  F   UNK N   1      29.425  16.741   2.641  0.00  0.00    -0.168 F 
HETATM   16  F   UNK N   1      27.485  15.578   2.781  0.00  0.00    -0.168 F 
HETATM   17  F   UNK N   1      29.386  14.575   3.268  0.00  0.00    -0.168 F 
ENDBRANCH  13  14
BRANCH  13  18
HETATM   18  N   UNK N   1      29.642  15.818   5.708  0.00  0.00    -0.357 N 
HETATM   19  H   UNK N   1      30.081  14.952   5.546  0.00  0.00     0.162 HD
BRANCH  18  20
HETATM   20  C   UNK N   1      30.101  16.632   6.788  0.00  0.00     0.132 A 
HETATM   21  C   UNK N   1      31.441  17.030   6.879  0.00  0.00     0.103 A 
HETATM   22  C   UNK N   1      31.868  17.719   8.029  0.00  0.00     0.063 A 
HETATM   23  N   UNK N   1      32.340  16.733   5.901  0.00  0.00    -0.361 N 
HETATM   24  C   UNK N   1      33.211  18.064   8.168  0.00  0.00     0.033 A 
HETATM   25  N   UNK N   1      30.977  18.027   9.006  0.00  0.00    -0.350 N 
HETATM   26  C   UNK N   1      34.114  17.735   7.157  0.00  0.00     0.019 A 
HETATM   27  C   UNK N   1      33.653  17.076   6.015  0.00  0.00     0.088 A 
HETATM   28  C   UNK N   1      29.671  17.680   8.880  0.00  0.00     0.182 A 
ATOM     29  HN  UNK N   1      31.290  18.523   9.840  1.00  0.00     0.166 HD
HETATM   30  N   UNK N   1      29.247  16.986   7.792  0.00  0.00    -0.337 N 
ATOM     31  HN  UNK N   1      28.264  16.722   7.723  1.00  0.00     0.168 HD
ATOM     32  HN  UNK N   1      32.024  16.244   5.064  1.00  0.00     0.165 HD
ENDBRANCH  18  20
ENDBRANCH  13  18
ENDBRANCH   5  13
BRANCH   6  33
HETATM   33  C   UNK N   1      26.232  18.297   4.854  0.00  0.00     0.009 A 
HETATM   34  C   UNK N   1      25.737  18.599   3.584  0.00  0.00     0.016 A 
HETATM   35  C   UNK N   1      25.763  19.913   3.122  0.00  0.00     0.021 A 
HETATM   36  C   UNK N   1      26.321  20.911   3.922  0.00  0.00     0.122 A 
HETATM   37  N   UNK N   1      26.805  20.609   5.155  0.00  0.00    -0.246 N 
HETATM   38  C   UNK N   1      26.746  19.340   5.639  0.00  0.00     0.136 A 
BRANCH  37  39
HETATM   39  O   UNK N   1      27.336  21.569   5.904  0.00  0.00    -0.284 OA
ATOM     40  HO  UNK N   1      27.853  22.251   5.492  1.00  0.00     0.245 HD
ENDBRANCH  37  39
ENDBRANCH   6  33
TORSDOF 6
ENDMDL
MODEL 6
REMARK VINA RESULT:      -7.7      2.875      4.782
REMARK  6 active torsions:
REMARK  status: ('A' for Active; 'I' for Inactive)
REMARK    1  A    between atoms: C_5  and  C_21 
REMARK    2  A    between atoms: C_6  and  C_13 
REMARK    3  A    between atoms: N_17  and  O_19 
REMARK    4  A    between atoms: C_21  and  C_22 
REMARK    5  A    between atoms: C_21  and  N_26 
REMARK    6  A    between atoms: N_26  and  C_27 
ROOT
HETATM    1  C   UNK N   1      20.871  12.814  10.569  0.00  0.00     0.003 A 
HETATM    2  C   UNK N   1      20.807  13.460   9.330  0.00  0.00     0.014 A 
HETATM    3  C   UNK N   1      21.977  13.680   8.596  0.00  0.00    -0.007 A 
HETATM    4  C   UNK N   1      21.942  14.385   7.395  0.00  0.00     0.025 A 
HETATM    5  C   UNK N   1      23.127  14.693   6.697  0.00  0.00     0.002 A 
HETATM    6  C   UNK N   1      24.358  14.200   7.233  0.00  0.00     0.053 A 
HETATM    7  N   UNK N   1      24.341  13.478   8.390  0.00  0.00    -0.353 N 
ATOM      8  HN  UNK N   1      25.222  13.101   8.740  1.00  0.00     0.166 HD
HETATM    9  C   UNK N   1      23.211  13.238   9.095  0.00  0.00     0.065 A 
HETATM   10  C   UNK N   1      23.274  12.593  10.342  0.00  0.00     0.061 A 
HETATM   11  C   UNK N   1      22.102  12.390  11.077  0.00  0.00     0.026 A 
HETATM   12 Cl   UNK N   1      24.814  12.090  11.021  0.00  0.00    -0.082 Cl
ENDROOT
BRANCH   5  13
HETATM   13  C   UNK N   1      23.064  15.606   5.463  0.00  0.00     0.227 C 
BRANCH  13  14
HETATM   14  C   UNK N   1      23.427  14.946   4.107  0.00  0.00     0.411 C 
HETATM   15  F   UNK N   1      24.682  15.350   3.682  0.00  0.00    -0.168 F 
HETATM   16  F   UNK N   1      22.477  15.286   3.163  0.00  0.00    -0.168 F 
HETATM   17  F   UNK N   1      23.398  13.566   4.188  0.00  0.00    -0.168 F 
ENDBRANCH  13  14
BRANCH  13  18
HETATM   18  N   UNK N   1      23.713  16.906   5.671  0.00  0.00    -0.357 N 
HETATM   19  H   UNK N   1      24.259  17.040   6.480  0.00  0.00     0.162 HD
BRANCH  18  20
HETATM   20  C   UNK N   1      23.580  17.983   4.743  0.00  0.00     0.132 A 
HETATM   21  C   UNK N   1      24.700  18.691   4.286  0.00  0.00     0.103 A 
HETATM   22  C   UNK N   1      24.503  19.824   3.477  0.00  0.00     0.063 A 
HETATM   23  N   UNK N   1      25.965  18.328   4.639  0.00  0.00    -0.361 N 
HETATM   24  C   UNK N   1      25.600  20.580   3.069  0.00  0.00     0.033 A 
HETATM   25  N   UNK N   1      23.247  20.189   3.114  0.00  0.00    -0.350 N 
HETATM   26  C   UNK N   1      26.884  20.194   3.456  0.00  0.00     0.019 A 
HETATM   27  C   UNK N   1      27.047  19.047   4.236  0.00  0.00     0.088 A 
HETATM   28  C   UNK N   1      22.175  19.462   3.521  0.00  0.00     0.182 A 
ATOM     29  HN  UNK N   1      23.107  21.013   2.531  1.00  0.00     0.166 HD
HETATM   30  N   UNK N   1      22.344  18.384   4.330  0.00  0.00    -0.337 N 
ATOM     31  HN  UNK N   1      21.524  17.860   4.637  1.00  0.00     0.168 HD
ATOM     32  HN  UNK N   1      26.103  17.498   5.216  1.00  0.00     0.165 HD
ENDBRANCH  18  20
ENDBRANCH  13  18
ENDBRANCH   5  13
BRANCH   6  33
HETATM   33  C   UNK N   1      25.693  14.507   6.676  0.00  0.00     0.009 A 
HETATM   34  C   UNK N   1      26.288  13.705   5.700  0.00  0.00     0.016 A 
HETATM   35  C   UNK N   1      27.490  14.099   5.114  0.00  0.00     0.021 A 
HETATM   36  C   UNK N   1      28.107  15.277   5.538  0.00  0.00     0.122 A 
HETATM   37  N   UNK N   1      27.523  16.050   6.491  0.00  0.00    -0.246 N 
HETATM   38  C   UNK N   1      26.329  15.703   7.041  0.00  0.00     0.136 A 
BRANCH  37  39
HETATM   39  O   UNK N   1      28.124  17.166   6.887  0.00  0.00    -0.284 OA
ATOM     40  HO  UNK N   1      28.759  17.131   7.594  1.00  0.00     0.245 HD
ENDBRANCH  37  39
ENDBRANCH   6  33
TORSDOF 6
ENDMDL
MODEL 7
REMARK VINA RESULT:      -7.5      2.667      4.263
REMARK  6 active torsions:
REMARK  status: ('A' for Active; 'I' for Inactive)
REMARK    1  A    between atoms: C_5  and  C_21 
REMARK    2  A    between atoms: C_6  and  C_13 
REMARK    3  A    between atoms: N_17  and  O_19 
REMARK    4  A    between atoms: C_21  and  C_22 
REMARK    5  A    between atoms: C_21  and  N_26 
REMARK    6  A    between atoms: N_26  and  C_27 
ROOT
HETATM    1  C   UNK N   1      22.195  13.772   7.125  0.00  0.00     0.003 A 
HETATM    2  C   UNK N   1      23.550  13.781   6.779  0.00  0.00     0.014 A 
HETATM    3  C   UNK N   1      24.137  14.951   6.285  0.00  0.00    -0.007 A 
HETATM    4  C   UNK N   1      25.465  14.959   5.868  0.00  0.00     0.025 A 
HETATM    5  C   UNK N   1      26.038  16.106   5.281  0.00  0.00     0.002 A 
HETATM    6  C   UNK N   1      25.223  17.278   5.189  0.00  0.00     0.053 A 
HETATM    7  N   UNK N   1      23.939  17.238   5.648  0.00  0.00    -0.353 N 
ATOM      8  HN  UNK N   1      23.383  18.091   5.611  1.00  0.00     0.166 HD
HETATM    9  C   UNK N   1      23.370  16.117   6.151  0.00  0.00     0.065 A 
HETATM   10  C   UNK N   1      22.007  16.105   6.495  0.00  0.00     0.061 A 
HETATM   11  C   UNK N   1      21.424  14.929   6.975  0.00  0.00     0.026 A 
HETATM   12 Cl   UNK N   1      21.008  17.534   6.274  0.00  0.00    -0.082 Cl
ENDROOT
BRANCH   5  13
HETATM   13  C   UNK N   1      27.453  16.029   4.690  0.00  0.00     0.227 C 
BRANCH  13  14
HETATM   14  C   UNK N   1      27.551  15.574   3.210  0.00  0.00     0.411 C 
HETATM   15  F   UNK N   1      28.810  15.836   2.695  0.00  0.00    -0.168 F 
HETATM   16  F   UNK N   1      26.591  16.232   2.465  0.00  0.00    -0.168 F 
HETATM   17  F   UNK N   1      27.275  14.227   3.071  0.00  0.00    -0.168 F 
ENDBRANCH  13  14
BRANCH  13  18
HETATM   18  N   UNK N   1      28.411  15.351   5.572  0.00  0.00    -0.357 N 
HETATM   19  H   UNK N   1      28.269  14.401   5.787  0.00  0.00     0.162 HD
BRANCH  18  20
HETATM   20  C   UNK N   1      29.542  16.022   6.130  0.00  0.00     0.132 A 
HETATM   21  C   UNK N   1      29.424  16.810   7.283  0.00  0.00     0.103 A 
HETATM   22  C   UNK N   1      30.537  17.553   7.714  0.00  0.00     0.063 A 
HETATM   23  N   UNK N   1      28.250  16.899   7.967  0.00  0.00    -0.361 N 
HETATM   24  C   UNK N   1      30.419  18.395   8.819  0.00  0.00     0.033 A 
HETATM   25  N   UNK N   1      31.714  17.465   7.042  0.00  0.00    -0.350 N 
HETATM   26  C   UNK N   1      29.202  18.478   9.493  0.00  0.00     0.019 A 
HETATM   27  C   UNK N   1      28.123  17.705   9.057  0.00  0.00     0.088 A 
HETATM   28  C   UNK N   1      31.828  16.657   5.957  0.00  0.00     0.182 A 
ATOM     29  HN  UNK N   1      32.518  18.008   7.355  1.00  0.00     0.166 HD
HETATM   30  N   UNK N   1      30.754  15.957   5.508  0.00  0.00    -0.337 N 
ATOM     31  HN  UNK N   1      30.857  15.366   4.682  1.00  0.00     0.168 HD
ATOM     32  HN  UNK N   1      27.449  16.349   7.658  1.00  0.00     0.165 HD
ENDBRANCH  18  20
ENDBRANCH  13  18
ENDBRANCH   5  13
BRANCH   6  33
HETATM   33  C   UNK N   1      25.637  18.532   4.523  0.00  0.00     0.009 A 
HETATM   34  C   UNK N   1      26.918  19.065   4.683  0.00  0.00     0.016 A 
HETATM   35  C   UNK N   1      27.305  20.179   3.940  0.00  0.00     0.021 A 
HETATM   36  C   UNK N   1      26.393  20.774   3.068  0.00  0.00     0.122 A 
HETATM   37  N   UNK N   1      25.147  20.252   2.920  0.00  0.00    -0.246 N 
HETATM   38  C   UNK N   1      24.768  19.139   3.604  0.00  0.00     0.136 A 
BRANCH  37  39
HETATM   39  O   UNK N   1      24.288  20.831   2.090  0.00  0.00    -0.284 OA
ATOM     40  HO  UNK N   1      23.886  20.318   1.399  1.00  0.00     0.245 HD
ENDBRANCH  37  39
ENDBRANCH   6  33
TORSDOF 6
ENDMDL
MODEL 8
REMARK VINA RESULT:      -7.3      8.441     12.108
REMARK  6 active torsions:
REMARK  status: ('A' for Active; 'I' for Inactive)
REMARK    1  A    between atoms: C_5  and  C_21 
REMARK    2  A    between atoms: C_6  and  C_13 
REMARK    3  A    between atoms: N_17  and  O_19 
REMARK    4  A    between atoms: C_21  and  C_22 
REMARK    5  A    between atoms: C_21  and  N_26 
REMARK    6  A    between atoms: N_26  and  C_27 
ROOT
HETATM    1  C   UNK N   1      28.471  18.065   6.232  0.00  0.00     0.003 A 
HETATM    2  C   UNK N   1      29.425  17.131   5.813  0.00  0.00     0.014 A 
HETATM    3  C   UNK N   1      30.438  16.726   6.688  0.00  0.00    -0.007 A 
HETATM    4  C   UNK N   1      31.437  15.854   6.265  0.00  0.00     0.025 A 
HETATM    5  C   UNK N   1      32.514  15.514   7.110  0.00  0.00     0.002 A 
HETATM    6  C   UNK N   1      32.507  16.048   8.437  0.00  0.00     0.053 A 
HETATM    7  N   UNK N   1      31.486  16.866   8.823  0.00  0.00    -0.353 N 
ATOM      8  HN  UNK N   1      31.474  17.209   9.783  1.00  0.00     0.166 HD
HETATM    9  C   UNK N   1      30.487  17.244   7.991  0.00  0.00     0.065 A 
HETATM   10  C   UNK N   1      29.531  18.185   8.409  0.00  0.00     0.061 A 
HETATM   11  C   UNK N   1      28.530  18.597   7.524  0.00  0.00     0.026 A 
HETATM   12 Cl   UNK N   1      29.609  18.900  10.012  0.00  0.00    -0.082 Cl
ENDROOT
BRANCH   5  13
HETATM   13  C   UNK N   1      33.676  14.677   6.556  0.00  0.00     0.227 C 
BRANCH  13  14
HETATM   14  C   UNK N   1      34.697  15.433   5.665  0.00  0.00     0.411 C 
HETATM   15  F   UNK N   1      34.563  15.061   4.338  0.00  0.00    -0.168 F 
HETATM   16  F   UNK N   1      35.978  15.160   6.104  0.00  0.00    -0.168 F 
HETATM   17  F   UNK N   1      34.548  16.803   5.770  0.00  0.00    -0.168 F 
ENDBRANCH  13  14
BRANCH  13  18
HETATM   18  N   UNK N   1      33.246  13.393   5.990  0.00  0.00    -0.357 N 
HETATM   19  H   UNK N   1      32.396  13.354   5.494  0.00  0.00     0.162 HD
BRANCH  18  20
HETATM   20  C   UNK N   1      34.016  12.199   6.134  0.00  0.00     0.132 A 
HETATM   21  C   UNK N   1      33.925  11.410   7.289  0.00  0.00     0.103 A 
HETATM   22  C   UNK N   1      34.800  10.319   7.435  0.00  0.00     0.063 A 
HETATM   23  N   UNK N   1      33.039  11.701   8.281  0.00  0.00    -0.361 N 
HETATM   24  C   UNK N   1      34.771   9.564   8.607  0.00  0.00     0.033 A 
HETATM   25  N   UNK N   1      35.681  10.017   6.448  0.00  0.00    -0.350 N 
HETATM   26  C   UNK N   1      33.863   9.891   9.614  0.00  0.00     0.019 A 
HETATM   27  C   UNK N   1      32.989  10.964   9.425  0.00  0.00     0.088 A 
HETATM   28  C   UNK N   1      35.721  10.759   5.312  0.00  0.00     0.182 A 
ATOM     29  HN  UNK N   1      36.317   9.228   6.559  1.00  0.00     0.166 HD
HETATM   30  N   UNK N   1      34.906  11.836   5.166  0.00  0.00    -0.337 N 
ATOM     31  HN  UNK N   1      34.962  12.389   4.311  1.00  0.00     0.168 HD
ATOM     32  HN  UNK N   1      32.399  12.486   8.165  1.00  0.00     0.165 HD
ENDBRANCH  18  20
ENDBRANCH  13  18
ENDBRANCH   5  13
BRANCH   6  33
HETATM   33  C   UNK N   1      33.600  15.865   9.416  0.00  0.00     0.009 A 
HETATM   34  C   UNK N   1      34.647  16.781   9.533  0.00  0.00     0.016 A 
HETATM   35  C   UNK N   1      35.587  16.635  10.552  0.00  0.00     0.021 A 
HETATM   36  C   UNK N   1      35.492  15.551  11.425  0.00  0.00     0.122 A 
HETATM   37  N   UNK N   1      34.472  14.662  11.302  0.00  0.00    -0.246 N 
HETATM   38  C   UNK N   1      33.521  14.814  10.342  0.00  0.00     0.136 A 
BRANCH  37  39
HETATM   39  O   UNK N   1      34.396  13.633  12.138  0.00  0.00    -0.284 OA
ATOM     40  HO  UNK N   1      34.517  13.776  13.070  1.00  0.00     0.245 HD
ENDBRANCH  37  39
ENDBRANCH   6  33
TORSDOF 6
ENDMDL
MODEL 9
REMARK VINA RESULT:      -7.3      4.763      6.600
REMARK  6 active torsions:
REMARK  status: ('A' for Active; 'I' for Inactive)
REMARK    1  A    between atoms: C_5  and  C_21 
REMARK    2  A    between atoms: C_6  and  C_13 
REMARK    3  A    between atoms: N_17  and  O_19 
REMARK    4  A    between atoms: C_21  and  C_22 
REMARK    5  A    between atoms: C_21  and  N_26 
REMARK    6  A    between atoms: N_26  and  C_27 
ROOT
HETATM    1  C   UNK N   1      25.176  12.541   2.282  0.00  0.00     0.003 A 
HETATM    2  C   UNK N   1      26.445  12.922   2.733  0.00  0.00     0.014 A 
HETATM    3  C   UNK N   1      26.634  14.188   3.296  0.00  0.00    -0.007 A 
HETATM    4  C   UNK N   1      27.903  14.612   3.684  0.00  0.00     0.025 A 
HETATM    5  C   UNK N   1      28.119  15.920   4.163  0.00  0.00     0.002 A 
HETATM    6  C   UNK N   1      26.978  16.772   4.297  0.00  0.00     0.053 A 
HETATM    7  N   UNK N   1      25.748  16.302   3.944  0.00  0.00    -0.353 N 
ATOM      8  HN  UNK N   1      24.938  16.908   4.080  1.00  0.00     0.166 HD
HETATM    9  C   UNK N   1      25.549  15.069   3.421  0.00  0.00     0.065 A 
HETATM   10  C   UNK N   1      24.277  14.686   2.964  0.00  0.00     0.061 A 
HETATM   11  C   UNK N   1      24.098  13.424   2.389  0.00  0.00     0.026 A 
HETATM   12 Cl   UNK N   1      22.916  15.795   3.048  0.00  0.00    -0.082 Cl
ENDROOT
BRANCH   5  13
HETATM   13  C   UNK N   1      29.553  16.401   4.431  0.00  0.00     0.227 C 
BRANCH  13  14
HETATM   14  C   UNK N   1      30.519  16.375   3.217  0.00  0.00     0.411 C 
HETATM   15  F   UNK N   1      29.833  16.598   2.036  0.00  0.00    -0.168 F 
HETATM   16  F   UNK N   1      31.158  15.151   3.169  0.00  0.00    -0.168 F 
HETATM   17  F   UNK N   1      31.522  17.317   3.345  0.00  0.00    -0.168 F 
ENDBRANCH  13  14
BRANCH  13  18
HETATM   18  N   UNK N   1      30.135  15.832   5.652  0.00  0.00    -0.357 N 
HETATM   19  H   UNK N   1      30.311  14.864   5.688  0.00  0.00     0.162 HD
BRANCH  18  20
HETATM   20  C   UNK N   1      30.453  16.632   6.791  0.00  0.00     0.132 A 
HETATM   21  C   UNK N   1      31.766  17.053   7.039  0.00  0.00     0.103 A 
HETATM   22  C   UNK N   1      32.048  17.727   8.241  0.00  0.00     0.063 A 
HETATM   23  N   UNK N   1      32.776  16.792   6.163  0.00  0.00    -0.361 N 
HETATM   24  C   UNK N   1      33.359  18.094   8.536  0.00  0.00     0.033 A 
HETATM   25  N   UNK N   1      31.047  17.999   9.118  0.00  0.00    -0.350 N 
HETATM   26  C   UNK N   1      34.376  17.802   7.628  0.00  0.00     0.019 A 
HETATM   27  C   UNK N   1      34.059  17.157   6.430  0.00  0.00     0.088 A 
HETATM   28  C   UNK N   1      29.770  17.630   8.840  0.00  0.00     0.182 A 
ATOM     29  HN  UNK N   1      31.255  18.483   9.990  1.00  0.00     0.166 HD
HETATM   30  N   UNK N   1      29.486  16.951   7.699  0.00  0.00    -0.337 N 
ATOM     31  HN  UNK N   1      28.522  16.670   7.515  1.00  0.00     0.168 HD
ATOM     32  HN  UNK N   1      32.565  16.314   5.287  1.00  0.00     0.165 HD
ENDBRANCH  18  20
ENDBRANCH  13  18
ENDBRANCH   5  13
BRANCH   6  33
HETATM   33  C   UNK N   1      27.041  18.194   4.698  0.00  0.00     0.009 A 
HETATM   34  C   UNK N   1      27.007  19.228   3.759  0.00  0.00     0.016 A 
HETATM   35  C   UNK N   1      26.942  20.553   4.187  0.00  0.00     0.021 A 
HETATM   36  C   UNK N   1      26.950  20.835   5.553  0.00  0.00     0.122 A 
HETATM   37  N   UNK N   1      26.987  19.824   6.460  0.00  0.00    -0.246 N 
HETATM   38  C   UNK N   1      27.005  18.525   6.060  0.00  0.00     0.136 A 
BRANCH  37  39
HETATM   39  O   UNK N   1      26.998  20.108   7.757  0.00  0.00    -0.284 OA
ATOM     40  HO  UNK N   1      27.763  20.522   8.140  1.00  0.00     0.245 HD
ENDBRANCH  37  39
ENDBRANCH   6  33
TORSDOF 6
ENDMDL
