MODEL 1
REMARK VINA RESULT:      -8.5      0.000      0.000
REMARK  4 active torsions:
REMARK  status: ('A' for Active; 'I' for Inactive)
REMARK       I    between atoms: N_2  and  C_3 
REMARK       I    between atoms: C_3  and  N_16 
REMARK    1  A    between atoms: N_4  and  S_6 
REMARK    2  A    between atoms: S_6  and  C_9 
REMARK    3  A    between atoms: C_18  and  C_29 
REMARK    4  A    between atoms: C_19  and  C_22 
ROOT
HETATM    1  C   UNK N   1      25.317  20.091   3.528  0.00  0.00     0.165 C 
HETATM    2  N   UNK N   1      26.434  19.747   4.365  0.00  0.00    -0.228 N 
HETATM    3  C   UNK N   1      26.599  18.488   5.014  0.00  0.00     0.704 C 
HETATM    4  N   UNK N   1      27.596  18.369   5.820  0.00  0.00    -0.111 N 
ATOM      5  HN  UNK N   1      28.097  19.230   6.038  1.00  0.00     0.197 HD
HETATM    6  N   UNK N   1      25.692  17.408   4.777  0.00  0.00    -0.122 N 
HETATM    7  C   UNK N   1      24.959  17.247   3.550  0.00  0.00     0.183 A 
HETATM    8  C   UNK N   1      23.709  16.430   3.979  0.00  0.00     0.091 A 
HETATM    9  C   UNK N   1      23.967  16.269   5.473  0.00  0.00     0.047 A 
HETATM   10  N   UNK N   1      25.066  16.808   5.821  0.00  0.00    -0.287 N 
ATOM     11  HN  UNK N   1      25.433  16.789   6.773  1.00  0.00     0.187 HD
HETATM   12  H   UNK N   1      27.133  20.427   4.500  0.00  0.00     0.177 HD
ENDROOT
BRANCH   4  13
HETATM   13  S   UNK N   1      28.206  16.908   6.597  0.00  0.00     0.276 S 
HETATM   14  O   UNK N   1      27.277  16.631   7.789  0.00  0.00    -0.200 OA
HETATM   15  O   UNK N   1      27.974  15.747   5.618  0.00  0.00    -0.200 OA
BRANCH  13  16
HETATM   16  C   UNK N   1      29.932  17.163   6.972  0.00  0.00     0.080 A 
HETATM   17  C   UNK N   1      30.940  16.883   6.044  0.00  0.00     0.027 A 
HETATM   18  C   UNK N   1      32.277  17.156   6.369  0.00  0.00     0.025 A 
HETATM   19  C   UNK N   1      32.596  17.715   7.614  0.00  0.00     0.034 A 
HETATM   20  C   UNK N   1      31.587  17.992   8.536  0.00  0.00     0.025 A 
HETATM   21 Cl   UNK N   1      34.258  18.080   8.022  0.00  0.00    -0.084 Cl
HETATM   22  C   UNK N   1      30.260  17.719   8.213  0.00  0.00     0.027 A 
ENDBRANCH  13  16
ENDBRANCH   4  13
BRANCH   8  23
HETATM   23  C   UNK N   1      22.427  17.137   3.592  0.00  0.00    -0.046 A 
HETATM   24  C   UNK N   1      21.380  16.457   2.945  0.00  0.00     0.008 A 
HETATM   25  C   UNK N   1      20.174  17.107   2.666  0.00  0.00     0.001 A 
HETATM   26  C   UNK N   1      19.997  18.437   3.047  0.00  0.00     0.000 A 
HETATM   27  C   UNK N   1      21.022  19.117   3.709  0.00  0.00     0.001 A 
HETATM   28  C   UNK N   1      22.227  18.466   3.987  0.00  0.00     0.008 A 
ENDBRANCH   8  23
BRANCH   9  29
HETATM   29  C   UNK N   1      23.086  15.630   6.481  0.00  0.00    -0.011 A 
HETATM   30  C   UNK N   1      21.890  16.230   6.893  0.00  0.00     0.015 A 
HETATM   31  C   UNK N   1      21.123  15.658   7.914  0.00  0.00     0.024 A 
HETATM   32  C   UNK N   1      21.543  14.472   8.521  0.00  0.00     0.034 A 
HETATM   33  C   UNK N   1      22.721  13.853   8.102  0.00  0.00     0.024 A 
HETATM   34 Cl   UNK N   1      20.603  13.771   9.820  0.00  0.00    -0.084 Cl
HETATM   35  C   UNK N   1      23.493  14.434   7.093  0.00  0.00     0.015 A 
ENDBRANCH   9  29
TORSDOF 4
ENDMDL
MODEL 2
REMARK VINA RESULT:      -8.3      5.697      7.303
REMARK  4 active torsions:
REMARK  status: ('A' for Active; 'I' for Inactive)
REMARK       I    between atoms: N_2  and  C_3 
REMARK       I    between atoms: C_3  and  N_16 
REMARK    1  A    between atoms: N_4  and  S_6 
REMARK    2  A    between atoms: S_6  and  C_9 
REMARK    3  A    between atoms: C_18  and  C_29 
REMARK    4  A    between atoms: C_19  and  C_22 
ROOT
HETATM    1  C   UNK N   1      33.476  14.819   3.938  0.00  0.00     0.165 C 
HETATM    2  N   UNK N   1      34.232  15.625   4.858  0.00  0.00    -0.228 N 
HETATM    3  C   UNK N   1      33.680  16.291   5.991  0.00  0.00     0.704 C 
HETATM    4  N   UNK N   1      34.463  17.065   6.658  0.00  0.00    -0.111 N 
ATOM      5  HN  UNK N   1      35.372  17.250   6.233  1.00  0.00     0.197 HD
HETATM    6  N   UNK N   1      32.312  16.103   6.367  0.00  0.00    -0.122 N 
HETATM    7  C   UNK N   1      31.572  14.904   6.078  0.00  0.00     0.183 A 
HETATM    8  C   UNK N   1      30.096  15.389   6.045  0.00  0.00     0.091 A 
HETATM    9  C   UNK N   1      30.273  16.875   6.330  0.00  0.00     0.047 A 
HETATM   10  N   UNK N   1      31.496  17.177   6.511  0.00  0.00    -0.287 N 
ATOM     11  HN  UNK N   1      31.824  18.117   6.738  1.00  0.00     0.187 HD
HETATM   12  H   UNK N   1      35.199  15.724   4.694  0.00  0.00     0.177 HD
ENDROOT
BRANCH   4  13
HETATM   13  S   UNK N   1      34.168  17.846   8.211  0.00  0.00     0.276 S 
HETATM   14  O   UNK N   1      35.102  19.065   8.267  0.00  0.00    -0.200 OA
HETATM   15  O   UNK N   1      32.745  18.424   8.160  0.00  0.00    -0.200 OA
BRANCH  13  16
HETATM   16  C   UNK N   1      34.374  16.622   9.493  0.00  0.00     0.080 A 
HETATM   17  C   UNK N   1      33.617  15.447   9.521  0.00  0.00     0.027 A 
HETATM   18  C   UNK N   1      33.860  14.491  10.519  0.00  0.00     0.025 A 
HETATM   19  C   UNK N   1      34.861  14.711  11.474  0.00  0.00     0.034 A 
HETATM   20  C   UNK N   1      35.612  15.886  11.441  0.00  0.00     0.025 A 
HETATM   21 Cl   UNK N   1      35.187  13.516  12.709  0.00  0.00    -0.084 Cl
HETATM   22  C   UNK N   1      35.370  16.835  10.451  0.00  0.00     0.027 A 
ENDBRANCH  13  16
ENDBRANCH   4  13
BRANCH   8  23
HETATM   23  C   UNK N   1      29.427  15.032   4.735  0.00  0.00    -0.046 A 
HETATM   24  C   UNK N   1      28.232  14.290   4.699  0.00  0.00     0.008 A 
HETATM   25  C   UNK N   1      27.588  14.038   3.484  0.00  0.00     0.001 A 
HETATM   26  C   UNK N   1      28.121  14.540   2.296  0.00  0.00     0.000 A 
HETATM   27  C   UNK N   1      29.296  15.296   2.322  0.00  0.00     0.001 A 
HETATM   28  C   UNK N   1      29.939  15.547   3.536  0.00  0.00     0.008 A 
ENDBRANCH   8  23
BRANCH   9  29
HETATM   29  C   UNK N   1      29.224  17.924   6.362  0.00  0.00    -0.011 A 
HETATM   30  C   UNK N   1      28.737  18.507   5.186  0.00  0.00     0.015 A 
HETATM   31  C   UNK N   1      27.818  19.560   5.244  0.00  0.00     0.024 A 
HETATM   32  C   UNK N   1      27.369  20.028   6.481  0.00  0.00     0.034 A 
HETATM   33  C   UNK N   1      27.829  19.438   7.659  0.00  0.00     0.024 A 
HETATM   34 Cl   UNK N   1      26.244  21.367   6.558  0.00  0.00    -0.084 Cl
HETATM   35  C   UNK N   1      28.758  18.396   7.599  0.00  0.00     0.015 A 
ENDBRANCH   9  29
TORSDOF 4
ENDMDL
MODEL 3
REMARK VINA RESULT:      -7.9     13.545     16.349
REMARK  4 active torsions:
REMARK  status: ('A' for Active; 'I' for Inactive)
REMARK       I    between atoms: N_2  and  C_3 
REMARK       I    between atoms: C_3  and  N_16 
REMARK    1  A    between atoms: N_4  and  S_6 
REMARK    2  A    between atoms: S_6  and  C_9 
REMARK    3  A    between atoms: C_18  and  C_29 
REMARK    4  A    between atoms: C_19  and  C_22 
ROOT
HETATM    1  C   UNK N   1      26.799  26.956 -10.682  0.00  0.00     0.165 C 
HETATM    2  N   UNK N   1      26.755  25.596 -11.146  0.00  0.00    -0.228 N 
HETATM    3  C   UNK N   1      26.497  24.467 -10.314  0.00  0.00     0.704 C 
HETATM    4  N   UNK N   1      26.600  23.303 -10.854  0.00  0.00    -0.111 N 
ATOM      5  HN  UNK N   1      27.001  23.282 -11.792  1.00  0.00     0.197 HD
HETATM    6  N   UNK N   1      26.139  24.627  -8.938  0.00  0.00    -0.122 N 
HETATM    7  C   UNK N   1      25.467  25.791  -8.427  0.00  0.00     0.183 A 
HETATM    8  C   UNK N   1      25.884  25.823  -6.931  0.00  0.00     0.091 A 
HETATM    9  C   UNK N   1      26.785  24.597  -6.855  0.00  0.00     0.047 A 
HETATM   10  N   UNK N   1      26.856  23.995  -7.975  0.00  0.00    -0.287 N 
ATOM     11  HN  UNK N   1      27.389  23.138  -8.128  1.00  0.00     0.187 HD
HETATM   12  H   UNK N   1      26.915  25.432 -12.104  0.00  0.00     0.177 HD
ENDROOT
BRANCH   4  13
HETATM   13  S   UNK N   1      26.138  21.739 -10.182  0.00  0.00     0.276 S 
HETATM   14  O   UNK N   1      25.069  22.025  -9.116  0.00  0.00    -0.200 OA
HETATM   15  O   UNK N   1      25.411  20.968 -11.294  0.00  0.00    -0.200 OA
BRANCH  13  16
HETATM   16  C   UNK N   1      27.622  20.919  -9.624  0.00  0.00     0.080 A 
HETATM   17  C   UNK N   1      27.811  20.563  -8.286  0.00  0.00     0.027 A 
HETATM   18  C   UNK N   1      28.971  19.868  -7.911  0.00  0.00     0.025 A 
HETATM   19  C   UNK N   1      29.928  19.527  -8.876  0.00  0.00     0.034 A 
HETATM   20  C   UNK N   1      29.734  19.886 -10.210  0.00  0.00     0.025 A 
HETATM   21 Cl   UNK N   1      31.367  18.643  -8.423  0.00  0.00    -0.084 Cl
HETATM   22  C   UNK N   1      28.583  20.577 -10.581  0.00  0.00     0.027 A 
ENDBRANCH  13  16
ENDBRANCH   4  13
BRANCH   8  23
HETATM   23  C   UNK N   1      26.520  27.147  -6.563  0.00  0.00    -0.046 A 
HETATM   24  C   UNK N   1      26.145  27.843  -5.400  0.00  0.00     0.008 A 
HETATM   25  C   UNK N   1      26.799  29.024  -5.037  0.00  0.00     0.001 A 
HETATM   26  C   UNK N   1      27.845  29.512  -5.822  0.00  0.00     0.000 A 
HETATM   27  C   UNK N   1      28.239  28.817  -6.968  0.00  0.00     0.001 A 
HETATM   28  C   UNK N   1      27.585  27.637  -7.330  0.00  0.00     0.008 A 
ENDBRANCH   8  23
BRANCH   9  29
HETATM   29  C   UNK N   1      27.564  24.115  -5.688  0.00  0.00    -0.011 A 
HETATM   30  C   UNK N   1      27.167  24.398  -4.376  0.00  0.00     0.015 A 
HETATM   31  C   UNK N   1      27.967  24.016  -3.294  0.00  0.00     0.024 A 
HETATM   32  C   UNK N   1      29.166  23.335  -3.519  0.00  0.00     0.034 A 
HETATM   33  C   UNK N   1      29.561  23.026  -4.821  0.00  0.00     0.024 A 
HETATM   34 Cl   UNK N   1      30.186  22.884  -2.169  0.00  0.00    -0.084 Cl
HETATM   35  C   UNK N   1      28.767  23.422  -5.901  0.00  0.00     0.015 A 
ENDBRANCH   9  29
TORSDOF 4
ENDMDL
MODEL 4
REMARK VINA RESULT:      -7.9      9.976     14.582
REMARK  4 active torsions:
REMARK  status: ('A' for Active; 'I' for Inactive)
REMARK       I    between atoms: N_2  and  C_3 
REMARK       I    between atoms: C_3  and  N_16 
REMARK    1  A    between atoms: N_4  and  S_6 
REMARK    2  A    between atoms: S_6  and  C_9 
REMARK    3  A    between atoms: C_18  and  C_29 
REMARK    4  A    between atoms: C_19  and  C_22 
ROOT
HETATM    1  C   UNK N   1      35.698   9.655  10.139  0.00  0.00     0.165 C 
HETATM    2  N   UNK N   1      35.204  10.880   9.573  0.00  0.00    -0.228 N 
HETATM    3  C   UNK N   1      35.445  12.176  10.116  0.00  0.00     0.704 C 
HETATM    4  N   UNK N   1      34.844  13.169   9.558  0.00  0.00    -0.111 N 
ATOM      5  HN  UNK N   1      34.132  12.927   8.870  1.00  0.00     0.197 HD
HETATM    6  N   UNK N   1      36.320  12.359  11.233  0.00  0.00    -0.122 N 
HETATM    7  C   UNK N   1      37.417  11.478  11.530  0.00  0.00     0.183 A 
HETATM    8  C   UNK N   1      37.614  11.649  13.062  0.00  0.00     0.091 A 
HETATM    9  C   UNK N   1      36.517  12.656  13.384  0.00  0.00     0.047 A 
HETATM   10  N   UNK N   1      35.876  13.004  12.341  0.00  0.00    -0.287 N 
ATOM     11  HN  UNK N   1      35.119  13.688  12.340  1.00  0.00     0.187 HD
HETATM   12  H   UNK N   1      34.660  10.821   8.753  0.00  0.00     0.177 HD
ENDROOT
BRANCH   4  13
HETATM   13  S   UNK N   1      35.092  14.893   9.833  0.00  0.00     0.276 S 
HETATM   14  O   UNK N   1      34.410  15.221  11.170  0.00  0.00    -0.200 OA
HETATM   15  O   UNK N   1      36.595  15.097  10.079  0.00  0.00    -0.200 OA
BRANCH  13  16
HETATM   16  C   UNK N   1      34.499  15.771   8.397  0.00  0.00     0.080 A 
HETATM   17  C   UNK N   1      34.244  17.145   8.424  0.00  0.00     0.027 A 
HETATM   18  C   UNK N   1      33.834  17.797   7.252  0.00  0.00     0.025 A 
HETATM   19  C   UNK N   1      33.690  17.073   6.060  0.00  0.00     0.034 A 
HETATM   20  C   UNK N   1      33.945  15.703   6.039  0.00  0.00     0.025 A 
HETATM   21 Cl   UNK N   1      33.200  17.880   4.587  0.00  0.00    -0.084 Cl
HETATM   22  C   UNK N   1      34.351  15.056   7.204  0.00  0.00     0.027 A 
ENDBRANCH  13  16
ENDBRANCH   4  13
BRANCH   8  23
HETATM   23  C   UNK N   1      37.537  10.318  13.780  0.00  0.00    -0.046 A 
HETATM   24  C   UNK N   1      38.586   9.863  14.598  0.00  0.00     0.008 A 
HETATM   25  C   UNK N   1      38.463   8.669  15.315  0.00  0.00     0.001 A 
HETATM   26  C   UNK N   1      37.284   7.928  15.236  0.00  0.00     0.000 A 
HETATM   27  C   UNK N   1      36.226   8.381  14.443  0.00  0.00     0.001 A 
HETATM   28  C   UNK N   1      36.350   9.574  13.727  0.00  0.00     0.008 A 
ENDBRANCH   8  23
BRANCH   9  29
HETATM   29  C   UNK N   1      36.133  13.182  14.717  0.00  0.00    -0.011 A 
HETATM   30  C   UNK N   1      36.901  14.155  15.369  0.00  0.00     0.015 A 
HETATM   31  C   UNK N   1      36.574  14.567  16.665  0.00  0.00     0.024 A 
HETATM   32  C   UNK N   1      35.466  14.017  17.313  0.00  0.00     0.034 A 
HETATM   33  C   UNK N   1      34.679  13.064  16.665  0.00  0.00     0.024 A 
HETATM   34 Cl   UNK N   1      35.073  14.507  18.947  0.00  0.00    -0.084 Cl
HETATM   35  C   UNK N   1      35.016  12.643  15.376  0.00  0.00     0.015 A 
ENDBRANCH   9  29
TORSDOF 4
ENDMDL
MODEL 5
REMARK VINA RESULT:      -7.7      3.425      4.347
REMARK  4 active torsions:
REMARK  status: ('A' for Active; 'I' for Inactive)
REMARK       I    between atoms: N_2  and  C_3 
REMARK       I    between atoms: C_3  and  N_16 
REMARK    1  A    between atoms: N_4  and  S_6 
REMARK    2  A    between atoms: S_6  and  C_9 
REMARK    3  A    between atoms: C_18  and  C_29 
REMARK    4  A    between atoms: C_19  and  C_22 
ROOT
HETATM    1  C   UNK N   1      26.754  20.238   7.215  0.00  0.00     0.165 C 
HETATM    2  N   UNK N   1      27.892  19.486   7.671  0.00  0.00    -0.228 N 
HETATM    3  C   UNK N   1      28.608  18.544   6.876  0.00  0.00     0.704 C 
HETATM    4  N   UNK N   1      29.537  17.868   7.459  0.00  0.00    -0.111 N 
ATOM      5  HN  UNK N   1      29.582  17.959   8.474  1.00  0.00     0.197 HD
HETATM    6  N   UNK N   1      28.305  18.361   5.490  0.00  0.00    -0.122 N 
HETATM    7  C   UNK N   1      27.746  19.395   4.661  0.00  0.00     0.183 A 
HETATM    8  C   UNK N   1      27.007  18.606   3.546  0.00  0.00     0.091 A 
HETATM    9  C   UNK N   1      27.289  17.170   3.973  0.00  0.00     0.047 A 
HETATM   10  N   UNK N   1      28.011  17.123   5.019  0.00  0.00    -0.287 N 
ATOM     11  HN  UNK N   1      28.331  16.256   5.452  1.00  0.00     0.187 HD
HETATM   12  H   UNK N   1      28.197  19.631   8.596  0.00  0.00     0.177 HD
ENDROOT
BRANCH   4  13
HETATM   13  S   UNK N   1      30.740  16.806   6.729  0.00  0.00     0.276 S 
HETATM   14  O   UNK N   1      30.004  15.511   6.354  0.00  0.00    -0.200 OA
HETATM   15  O   UNK N   1      31.152  17.444   5.394  0.00  0.00    -0.200 OA
BRANCH  13  16
HETATM   16  C   UNK N   1      32.102  16.649   7.872  0.00  0.00     0.080 A 
HETATM   17  C   UNK N   1      32.258  15.522   8.685  0.00  0.00     0.027 A 
HETATM   18  C   UNK N   1      33.378  15.423   9.524  0.00  0.00     0.025 A 
HETATM   19  C   UNK N   1      34.337  16.445   9.538  0.00  0.00     0.034 A 
HETATM   20  C   UNK N   1      34.175  17.567   8.726  0.00  0.00     0.025 A 
HETATM   21 Cl   UNK N   1      35.748  16.322  10.565  0.00  0.00    -0.084 Cl
HETATM   22  C   UNK N   1      33.063  17.665   7.894  0.00  0.00     0.027 A 
ENDBRANCH  13  16
ENDBRANCH   4  13
BRANCH   8  23
HETATM   23  C   UNK N   1      25.550  19.007   3.458  0.00  0.00    -0.046 A 
HETATM   24  C   UNK N   1      24.554  18.314   4.171  0.00  0.00     0.008 A 
HETATM   25  C   UNK N   1      23.226  18.748   4.139  0.00  0.00     0.001 A 
HETATM   26  C   UNK N   1      22.882  19.887   3.410  0.00  0.00     0.000 A 
HETATM   27  C   UNK N   1      23.866  20.595   2.716  0.00  0.00     0.001 A 
HETATM   28  C   UNK N   1      25.193  20.161   2.748  0.00  0.00     0.008 A 
ENDBRANCH   8  23
BRANCH   9  29
HETATM   29  C   UNK N   1      26.787  15.923   3.345  0.00  0.00    -0.011 A 
HETATM   30  C   UNK N   1      26.185  15.931   2.081  0.00  0.00     0.015 A 
HETATM   31  C   UNK N   1      25.633  14.760   1.550  0.00  0.00     0.024 A 
HETATM   32  C   UNK N   1      25.692  13.569   2.277  0.00  0.00     0.034 A 
HETATM   33  C   UNK N   1      26.310  13.543   3.528  0.00  0.00     0.024 A 
HETATM   34 Cl   UNK N   1      24.974  12.109   1.630  0.00  0.00    -0.084 Cl
HETATM   35  C   UNK N   1      26.848  14.717   4.062  0.00  0.00     0.015 A 
ENDBRANCH   9  29
TORSDOF 4
ENDMDL
MODEL 6
REMARK VINA RESULT:      -7.7      3.479      8.371
REMARK  4 active torsions:
REMARK  status: ('A' for Active; 'I' for Inactive)
REMARK       I    between atoms: N_2  and  C_3 
REMARK       I    between atoms: C_3  and  N_16 
REMARK    1  A    between atoms: N_4  and  S_6 
REMARK    2  A    between atoms: S_6  and  C_9 
REMARK    3  A    between atoms: C_18  and  C_29 
REMARK    4  A    between atoms: C_19  and  C_22 
ROOT
HETATM    1  C   UNK N   1      29.659  12.849   4.096  0.00  0.00     0.165 C 
HETATM    2  N   UNK N   1      28.299  12.753   3.640  0.00  0.00    -0.228 N 
HETATM    3  C   UNK N   1      27.524  13.855   3.174  0.00  0.00     0.704 C 
HETATM    4  N   UNK N   1      26.285  13.629   2.902  0.00  0.00    -0.111 N 
ATOM      5  HN  UNK N   1      25.928  12.717   3.184  1.00  0.00     0.197 HD
HETATM    6  N   UNK N   1      28.102  15.154   3.015  0.00  0.00    -0.122 N 
HETATM    7  C   UNK N   1      29.497  15.368   2.738  0.00  0.00     0.183 A 
HETATM    8  C   UNK N   1      29.763  16.792   3.299  0.00  0.00     0.091 A 
HETATM    9  C   UNK N   1      28.384  17.153   3.840  0.00  0.00     0.047 A 
HETATM   10  N   UNK N   1      27.539  16.224   3.630  0.00  0.00    -0.287 N 
ATOM     11  HN  UNK N   1      26.555  16.280   3.893  1.00  0.00     0.187 HD
HETATM   12  H   UNK N   1      27.873  11.865   3.650  0.00  0.00     0.177 HD
ENDROOT
BRANCH   4  13
HETATM   13  S   UNK N   1      25.127  14.696   2.108  0.00  0.00     0.276 S 
HETATM   14  O   UNK N   1      25.940  15.579   1.148  0.00  0.00    -0.200 OA
HETATM   15  O   UNK N   1      24.249  13.814   1.207  0.00  0.00    -0.200 OA
BRANCH  13  16
HETATM   16  C   UNK N   1      24.195  15.539   3.375  0.00  0.00     0.080 A 
HETATM   17  C   UNK N   1      24.477  16.857   3.745  0.00  0.00     0.027 A 
HETATM   18  C   UNK N   1      23.676  17.493   4.706  0.00  0.00     0.025 A 
HETATM   19  C   UNK N   1      22.597  16.810   5.283  0.00  0.00     0.034 A 
HETATM   20  C   UNK N   1      22.321  15.495   4.910  0.00  0.00     0.025 A 
HETATM   21 Cl   UNK N   1      21.579  17.601   6.467  0.00  0.00    -0.084 Cl
HETATM   22  C   UNK N   1      23.117  14.865   3.957  0.00  0.00     0.027 A 
ENDBRANCH  13  16
ENDBRANCH   4  13
BRANCH   8  23
HETATM   23  C   UNK N   1      30.897  16.787   4.303  0.00  0.00    -0.046 A 
HETATM   24  C   UNK N   1      32.056  17.559   4.106  0.00  0.00     0.008 A 
HETATM   25  C   UNK N   1      33.056  17.602   5.081  0.00  0.00     0.001 A 
HETATM   26  C   UNK N   1      32.901  16.888   6.270  0.00  0.00     0.000 A 
HETATM   27  C   UNK N   1      31.745  16.134   6.486  0.00  0.00     0.001 A 
HETATM   28  C   UNK N   1      30.745  16.092   5.511  0.00  0.00     0.008 A 
ENDBRANCH   8  23
BRANCH   9  29
HETATM   29  C   UNK N   1      27.991  18.380   4.575  0.00  0.00    -0.011 A 
HETATM   30  C   UNK N   1      28.180  18.496   5.958  0.00  0.00     0.015 A 
HETATM   31  C   UNK N   1      27.716  19.621   6.646  0.00  0.00     0.024 A 
HETATM   32  C   UNK N   1      27.069  20.647   5.951  0.00  0.00     0.034 A 
HETATM   33  C   UNK N   1      26.897  20.553   4.569  0.00  0.00     0.024 A 
HETATM   34 Cl   UNK N   1      26.458  22.042   6.813  0.00  0.00    -0.084 Cl
HETATM   35  C   UNK N   1      27.349  19.421   3.886  0.00  0.00     0.015 A 
ENDBRANCH   9  29
TORSDOF 4
ENDMDL
MODEL 7
REMARK VINA RESULT:      -7.6      5.124      8.099
REMARK  4 active torsions:
REMARK  status: ('A' for Active; 'I' for Inactive)
REMARK       I    between atoms: N_2  and  C_3 
REMARK       I    between atoms: C_3  and  N_16 
REMARK    1  A    between atoms: N_4  and  S_6 
REMARK    2  A    between atoms: S_6  and  C_9 
REMARK    3  A    between atoms: C_18  and  C_29 
REMARK    4  A    between atoms: C_19  and  C_22 
ROOT
HETATM    1  C   UNK N   1      20.752  19.772   3.573  0.00  0.00     0.165 C 
HETATM    2  N   UNK N   1      19.889  18.623   3.605  0.00  0.00    -0.228 N 
HETATM    3  C   UNK N   1      20.301  17.314   3.990  0.00  0.00     0.704 C 
HETATM    4  N   UNK N   1      19.440  16.365   3.862  0.00  0.00    -0.111 N 
ATOM      5  HN  UNK N   1      18.586  16.604   3.358  1.00  0.00     0.197 HD
HETATM    6  N   UNK N   1      21.616  17.070   4.497  0.00  0.00    -0.122 N 
HETATM    7  C   UNK N   1      22.393  18.064   5.188  0.00  0.00     0.183 A 
HETATM    8  C   UNK N   1      23.859  17.613   4.944  0.00  0.00     0.091 A 
HETATM    9  C   UNK N   1      23.640  16.366   4.094  0.00  0.00     0.047 A 
HETATM   10  N   UNK N   1      22.403  16.130   3.915  0.00  0.00    -0.287 N 
ATOM     11  HN  UNK N   1      22.045  15.329   3.395  1.00  0.00     0.187 HD
HETATM   12  H   UNK N   1      18.948  18.748   3.342  0.00  0.00     0.177 HD
ENDROOT
BRANCH   4  13
HETATM   13  S   UNK N   1      19.547  14.704   4.445  0.00  0.00     0.276 S 
HETATM   14  O   UNK N   1      20.205  14.773   5.832  0.00  0.00    -0.200 OA
HETATM   15  O   UNK N   1      18.110  14.223   4.698  0.00  0.00    -0.200 OA
BRANCH  13  16
HETATM   16  C   UNK N   1      20.393  13.738   3.206  0.00  0.00     0.080 A 
HETATM   17  C   UNK N   1      20.233  13.985   1.839  0.00  0.00     0.027 A 
HETATM   18  C   UNK N   1      20.967  13.235   0.909  0.00  0.00     0.025 A 
HETATM   19  C   UNK N   1      21.860  12.249   1.350  0.00  0.00     0.034 A 
HETATM   20  C   UNK N   1      22.015  12.006   2.715  0.00  0.00     0.025 A 
HETATM   21 Cl   UNK N   1      22.796  11.322   0.200  0.00  0.00    -0.084 Cl
HETATM   22  C   UNK N   1      21.286  12.752   3.638  0.00  0.00     0.027 A 
ENDBRANCH  13  16
ENDBRANCH   4  13
BRANCH   8  23
HETATM   23  C   UNK N   1      24.679  18.719   4.313  0.00  0.00    -0.046 A 
HETATM   24  C   UNK N   1      26.054  18.856   4.579  0.00  0.00     0.008 A 
HETATM   25  C   UNK N   1      26.810  19.834   3.927  0.00  0.00     0.001 A 
HETATM   26  C   UNK N   1      26.205  20.673   2.991  0.00  0.00     0.000 A 
HETATM   27  C   UNK N   1      24.845  20.532   2.703  0.00  0.00     0.001 A 
HETATM   28  C   UNK N   1      24.090  19.554   3.355  0.00  0.00     0.008 A 
ENDBRANCH   8  23
BRANCH   9  29
HETATM   29  C   UNK N   1      24.672  15.503   3.468  0.00  0.00    -0.011 A 
HETATM   30  C   UNK N   1      24.445  14.862   2.245  0.00  0.00     0.015 A 
HETATM   31  C   UNK N   1      25.394  13.977   1.720  0.00  0.00     0.024 A 
HETATM   32  C   UNK N   1      26.584  13.740   2.412  0.00  0.00     0.034 A 
HETATM   33  C   UNK N   1      26.832  14.392   3.621  0.00  0.00     0.024 A 
HETATM   34 Cl   UNK N   1      27.759  12.610   1.775  0.00  0.00    -0.084 Cl
HETATM   35  C   UNK N   1      25.876  15.264   4.150  0.00  0.00     0.015 A 
ENDBRANCH   9  29
TORSDOF 4
ENDMDL
MODEL 8
REMARK VINA RESULT:      -7.6      4.653      8.390
REMARK  4 active torsions:
REMARK  status: ('A' for Active; 'I' for Inactive)
REMARK       I    between atoms: N_2  and  C_3 
REMARK       I    between atoms: C_3  and  N_16 
REMARK    1  A    between atoms: N_4  and  S_6 
REMARK    2  A    between atoms: S_6  and  C_9 
REMARK    3  A    between atoms: C_18  and  C_29 
REMARK    4  A    between atoms: C_19  and  C_22 
ROOT
HETATM    1  C   UNK N   1      28.394  14.256   1.989  0.00  0.00     0.165 C 
HETATM    2  N   UNK N   1      27.432  15.117   2.622  0.00  0.00    -0.228 N 
HETATM    3  C   UNK N   1      27.764  16.278   3.380  0.00  0.00     0.704 C 
HETATM    4  N   UNK N   1      26.798  16.885   3.977  0.00  0.00    -0.111 N 
ATOM      5  HN  UNK N   1      25.901  16.400   3.978  1.00  0.00     0.197 HD
HETATM    6  N   UNK N   1      29.113  16.744   3.470  0.00  0.00    -0.122 N 
HETATM    7  C   UNK N   1      30.097  16.515   2.446  0.00  0.00     0.183 A 
HETATM    8  C   UNK N   1      31.444  16.575   3.218  0.00  0.00     0.091 A 
HETATM    9  C   UNK N   1      30.953  16.834   4.637  0.00  0.00     0.047 A 
HETATM   10  N   UNK N   1      29.685  16.932   4.686  0.00  0.00    -0.287 N 
ATOM     11  HN  UNK N   1      29.161  17.129   5.539  1.00  0.00     0.187 HD
HETATM   12  H   UNK N   1      26.479  14.890   2.525  0.00  0.00     0.177 HD
ENDROOT
BRANCH   4  13
HETATM   13  S   UNK N   1      26.827  18.447   4.796  0.00  0.00     0.276 S 
HETATM   14  O   UNK N   1      27.634  19.394   3.893  0.00  0.00    -0.200 OA
HETATM   15  O   UNK N   1      25.391  18.991   4.778  0.00  0.00    -0.200 OA
BRANCH  13  16
HETATM   16  C   UNK N   1      27.453  18.192   6.448  0.00  0.00     0.080 A 
HETATM   17  C   UNK N   1      27.282  16.981   7.124  0.00  0.00     0.027 A 
HETATM   18  C   UNK N   1      27.844  16.814   8.398  0.00  0.00     0.025 A 
HETATM   19  C   UNK N   1      28.578  17.854   8.984  0.00  0.00     0.034 A 
HETATM   20  C   UNK N   1      28.744  19.061   8.305  0.00  0.00     0.025 A 
HETATM   21 Cl   UNK N   1      29.301  17.649  10.564  0.00  0.00    -0.084 Cl
HETATM   22  C   UNK N   1      28.186  19.226   7.040  0.00  0.00     0.027 A 
ENDBRANCH  13  16
ENDBRANCH   4  13
BRANCH   8  23
HETATM   23  C   UNK N   1      32.256  15.314   3.009  0.00  0.00    -0.046 A 
HETATM   24  C   UNK N   1      33.635  15.366   2.734  0.00  0.00     0.008 A 
HETATM   25  C   UNK N   1      34.382  14.191   2.622  0.00  0.00     0.001 A 
HETATM   26  C   UNK N   1      33.764  12.952   2.801  0.00  0.00     0.000 A 
HETATM   27  C   UNK N   1      32.400  12.889   3.096  0.00  0.00     0.001 A 
HETATM   28  C   UNK N   1      31.654  14.065   3.207  0.00  0.00     0.008 A 
ENDBRANCH   8  23
BRANCH   9  29
HETATM   29  C   UNK N   1      31.765  16.925   5.875  0.00  0.00    -0.011 A 
HETATM   30  C   UNK N   1      33.026  17.533   5.880  0.00  0.00     0.015 A 
HETATM   31  C   UNK N   1      33.815  17.523   7.035  0.00  0.00     0.024 A 
HETATM   32  C   UNK N   1      33.341  16.914   8.199  0.00  0.00     0.034 A 
HETATM   33  C   UNK N   1      32.075  16.325   8.213  0.00  0.00     0.024 A 
HETATM   34 Cl   UNK N   1      34.339  16.871   9.637  0.00  0.00    -0.084 Cl
HETATM   35  C   UNK N   1      31.295  16.324   7.054  0.00  0.00     0.015 A 
ENDBRANCH   9  29
TORSDOF 4
ENDMDL
MODEL 9
REMARK VINA RESULT:      -7.5      5.884      7.623
REMARK  4 active torsions:
REMARK  status: ('A' for Active; 'I' for Inactive)
REMARK       I    between atoms: N_2  and  C_3 
REMARK       I    between atoms: C_3  and  N_16 
REMARK    1  A    between atoms: N_4  and  S_6 
REMARK    2  A    between atoms: S_6  and  C_9 
REMARK    3  A    between atoms: C_18  and  C_29 
REMARK    4  A    between atoms: C_19  and  C_22 
ROOT
HETATM    1  C   UNK N   1      18.813  15.710   5.113  0.00  0.00     0.165 C 
HETATM    2  N   UNK N   1      19.494  14.984   6.151  0.00  0.00    -0.228 N 
HETATM    3  C   UNK N   1      20.759  14.346   5.992  0.00  0.00     0.704 C 
HETATM    4  N   UNK N   1      21.190  13.642   6.980  0.00  0.00    -0.111 N 
ATOM      5  HN  UNK N   1      20.523  13.480   7.735  1.00  0.00     0.197 HD
HETATM    6  N   UNK N   1      21.514  14.487   4.785  0.00  0.00    -0.122 N 
HETATM    7  C   UNK N   1      21.419  15.634   3.924  0.00  0.00     0.183 A 
HETATM    8  C   UNK N   1      21.836  15.080   2.534  0.00  0.00     0.091 A 
HETATM    9  C   UNK N   1      22.101  13.618   2.873  0.00  0.00     0.047 A 
HETATM   10  N   UNK N   1      21.924  13.383   4.111  0.00  0.00    -0.287 N 
ATOM     11  HN  UNK N   1      22.073  12.471   4.545  1.00  0.00     0.187 HD
HETATM   12  H   UNK N   1      19.058  14.923   7.031  0.00  0.00     0.177 HD
ENDROOT
BRANCH   4  13
HETATM   13  S   UNK N   1      22.784  12.920   7.196  0.00  0.00     0.276 S 
HETATM   14  O   UNK N   1      22.851  11.723   6.235  0.00  0.00    -0.200 OA
HETATM   15  O   UNK N   1      23.812  13.930   6.664  0.00  0.00    -0.200 OA
BRANCH  13  16
HETATM   16  C   UNK N   1      22.997  12.563   8.932  0.00  0.00     0.080 A 
HETATM   17  C   UNK N   1      24.263  12.427   9.509  0.00  0.00     0.027 A 
HETATM   18  C   UNK N   1      24.376  12.204  10.889  0.00  0.00     0.025 A 
HETATM   19  C   UNK N   1      23.224  12.126  11.684  0.00  0.00     0.034 A 
HETATM   20  C   UNK N   1      21.963  12.261  11.102  0.00  0.00     0.025 A 
HETATM   21 Cl   UNK N   1      23.353  11.869  13.409  0.00  0.00    -0.084 Cl
HETATM   22  C   UNK N   1      21.853  12.482   9.732  0.00  0.00     0.027 A 
ENDBRANCH  13  16
ENDBRANCH   4  13
BRANCH   8  23
HETATM   23  C   UNK N   1      20.769  15.344   1.492  0.00  0.00    -0.046 A 
HETATM   24  C   UNK N   1      19.825  14.361   1.143  0.00  0.00     0.008 A 
HETATM   25  C   UNK N   1      18.800  14.650   0.237  0.00  0.00     0.001 A 
HETATM   26  C   UNK N   1      18.698  15.927  -0.316  0.00  0.00     0.000 A 
HETATM   27  C   UNK N   1      19.618  16.917   0.039  0.00  0.00     0.001 A 
HETATM   28  C   UNK N   1      20.642  16.628   0.945  0.00  0.00     0.008 A 
ENDBRANCH   8  23
BRANCH   9  29
HETATM   29  C   UNK N   1      22.471  12.523   1.942  0.00  0.00    -0.011 A 
HETATM   30  C   UNK N   1      23.280  12.756   0.824  0.00  0.00     0.015 A 
HETATM   31  C   UNK N   1      23.537  11.732  -0.093  0.00  0.00     0.024 A 
HETATM   32  C   UNK N   1      22.996  10.460   0.112  0.00  0.00     0.034 A 
HETATM   33  C   UNK N   1      22.208  10.209   1.236  0.00  0.00     0.024 A 
HETATM   34 Cl   UNK N   1      23.290   9.184  -1.049  0.00  0.00    -0.084 Cl
HETATM   35  C   UNK N   1      21.940  11.239   2.142  0.00  0.00     0.015 A 
ENDBRANCH   9  29
TORSDOF 4
ENDMDL
