REMARK  11 active torsions:
REMARK  status: ('A' for Active; 'I' for Inactive)
REMARK    1  A    between atoms: C_2  and  C_5 
REMARK    2  A    between atoms: C_5  and  N_6 
REMARK    3  A    between atoms: N_6  and  C_7 
REMARK    4  A    between atoms: C_7  and  C_8 
REMARK    5  A    between atoms: C_10  and  N_38 
REMARK    6  A    between atoms: C_13  and  O_14 
REMARK    7  A    between atoms: C_18  and  O_37 
REMARK    8  A    between atoms: C_19  and  O_36 
REMARK    9  A    between atoms: C_24  and  N_33 
REMARK   10  A    between atoms: C_25  and  O_32 
REMARK   11  A    between atoms: C_26  and  C_29 
REMARK       I    between atoms: C_29  and  N_31 
ROOT
HETATM    1  C   UNK N   1      -3.886  -3.888  -1.009  0.00  0.00    -0.005 A 
HETATM    2  C   UNK N   1      -3.795  -2.509  -0.852  0.00  0.00     0.041 A 
HETATM    3  C   UNK N   1      -2.745  -1.911  -0.143  0.00  0.00     0.037 A 
HETATM    4  C   UNK N   1      -1.749  -2.763   0.417  0.00  0.00    -0.014 A 
HETATM    5  C   UNK N   1      -1.828  -4.171   0.251  0.00  0.00     0.057 A 
HETATM    6  C   UNK N   1      -2.910  -4.727  -0.460  0.00  0.00     0.088 A 
HETATM    7  C   UNK N   1      -0.701  -5.033   0.725  0.00  0.00     0.194 C 
HETATM    8  O   UNK N   1      -0.807  -6.249   0.762  0.00  0.00    -0.287 OA
HETATM    9  C   UNK N   1       0.629  -4.380   0.859  0.00  0.00     0.030 C 
HETATM   10  C   UNK N   1       1.804  -5.037   0.708  0.00  0.00     0.096 C 
HETATM   11  C   UNK N   1       3.073  -4.179   0.630  0.00  0.00     0.177 C 
HETATM   12  C   UNK N   1       2.825  -3.043  -0.399  0.00  0.00     0.075 C 
HETATM   13  C   UNK N   1       1.423  -2.385  -0.305  0.00  0.00     0.021 C 
HETATM   14  C   UNK N   1       0.706  -2.882   0.942  0.00  0.00     0.030 C 
HETATM   15  C   UNK N   1      -0.619  -2.214   1.227  0.00  0.00     0.051 C 
HETATM   16  C   UNK N   1       3.982  -2.011  -0.404  0.00  0.00     0.286 C 
HETATM   17  C   UNK N   1       5.356  -2.702  -0.436  0.00  0.00     0.096 C 
HETATM   18  C   UNK N   1       5.525  -4.038  -0.185  0.00  0.00     0.112 C 
HETATM   19  C   UNK N   1       4.335  -4.873   0.188  0.00  0.00     0.208 C 
HETATM   20  O   UNK N   1       4.388  -6.091   0.125  0.00  0.00    -0.288 OA
ENDROOT
BRANCH   1  21
HETATM   21  C   UNK N   1      -5.035  -4.441  -1.801  0.00  0.00     0.155 C 
BRANCH  21  22
HETATM   22  N   UNK N   1      -5.835  -5.411  -1.049  0.00  0.00    -0.417 N 
HETATM   23  H   UNK N   1      -6.096  -6.333  -1.397  0.00  0.00     0.153 HD
BRANCH  22  24
HETATM   24  C   UNK N   1      -6.211  -4.887   0.267  0.00  0.00     0.122 C 
BRANCH  24  25
HETATM   25  C   UNK N   1      -7.474  -4.030   0.236  0.00  0.00    -0.036 C 
HETATM   26  C   UNK N   1      -7.800  -3.631   1.658  0.00  0.00     0.016 C 
HETATM   27  C   UNK N   1      -8.639  -4.819  -0.331  0.00  0.00     0.016 C 
HETATM   28  C   UNK N   1      -7.271  -2.766  -0.579  0.00  0.00     0.016 C 
ENDBRANCH  24  25
ENDBRANCH  22  24
ENDBRANCH  21  22
ENDBRANCH   1  21
BRANCH   6  29
HETATM   29  O   UNK N   1      -2.994  -6.057  -0.650  0.00  0.00    -0.359 OA
HETATM   30  H   UNK N   1      -3.825  -6.469  -0.782  0.00  0.00     0.217 HD
ENDBRANCH   6  29
BRANCH   3  31
HETATM   31  N   UNK N   1      -2.727  -0.471  -0.026  0.00  0.00    -0.389 N 
HETATM   32  C   UNK N   1      -1.704   0.256   0.682  0.00  0.00     0.149 C 
HETATM   33  C   UNK N   1      -3.756   0.316  -0.660  0.00  0.00     0.149 C 
ENDBRANCH   3  31
BRANCH  10  34
HETATM   34  O   UNK N   1       1.837  -6.373   0.520  0.00  0.00    -0.361 OA
HETATM   35  H   UNK N   1       1.045  -6.856   0.389  0.00  0.00     0.217 HD
ENDBRANCH  10  34
BRANCH  11  36
HETATM   36  O   UNK N   1       3.303  -3.616   1.892  0.00  0.00    -0.374 OA
HETATM   37  H   UNK N   1       3.720  -3.559   2.766  0.00  0.00     0.211 HD
ENDBRANCH  11  36
BRANCH  16  38
HETATM   38  N   UNK N   1       3.830  -1.004   0.676  0.00  0.00     0.091 N 
HETATM   39  C   UNK N   1       5.051  -0.260   0.949  0.00  0.00     0.310 C 
HETATM   40  C   UNK N   1       2.890   0.014   0.226  0.00  0.00     0.310 C 
ENDBRANCH  16  38
BRANCH  18  41
HETATM   41  C   UNK N   1       6.880  -4.685  -0.293  0.00  0.00     0.255 C 
HETATM   42  O   UNK N   1       7.867  -4.022  -0.577  0.00  0.00    -0.268 OA
HETATM   43  N   UNK N   1       7.033  -6.003  -0.061  0.00  0.00    -0.366 N 
HETATM   44  H   UNK N   1       6.255  -6.582   0.109  0.00  0.00     0.159 HD
HETATM   45  H   UNK N   1       7.936  -6.394  -0.061  0.00  0.00     0.159 HD
ENDBRANCH  18  41
BRANCH  17  46
HETATM   46  O   UNK N   1       6.421  -1.942  -0.771  0.00  0.00    -0.362 OA
HETATM   47  H   UNK N   1       7.247  -2.319  -1.003  0.00  0.00     0.217 HD
ENDBRANCH  17  46
TORSDOF 11
