MODEL 1
REMARK VINA RESULT:      -8.2      0.000      0.000
REMARK  3 active torsions:
REMARK  status: ('A' for Active; 'I' for Inactive)
REMARK    1  A    between atoms: C_6  and  C_7 
REMARK    2  A    between atoms: C_7  and  C_10 
REMARK    3  A    between atoms: C_13  and  N_17 
ROOT
HETATM    1  C   UNK N   1      27.484  17.047   6.480  0.00  0.00     0.162 C 
HETATM    2  C   UNK N   1      26.550  15.917   6.391  0.00  0.00     0.073 C 
HETATM    3  N   UNK N   1      25.824  15.017   6.322  0.00  0.00    -0.196 NA
ENDROOT
BRANCH   1   4
HETATM    4  C   UNK N   1      27.420  17.937   5.248  0.00  0.00    -0.036 A 
HETATM    5  C   UNK N   1      28.114  19.169   5.194  0.00  0.00     0.012 A 
HETATM    6  C   UNK N   1      27.694  20.176   4.318  0.00  0.00     0.043 A 
HETATM    7  C   UNK N   1      26.603  19.954   3.477  0.00  0.00     0.116 A 
HETATM    8  C   UNK N   1      25.987  18.700   3.448  0.00  0.00     0.043 A 
HETATM    9  F   UNK N   1      26.109  20.964   2.721  0.00  0.00    -0.206 F 
HETATM   10  C   UNK N   1      26.383  17.704   4.343  0.00  0.00     0.012 A 
ENDBRANCH   1   4
BRANCH   1  11
HETATM   11  C   UNK N   1      28.919  16.820   6.993  0.00  0.00     0.007 C 
HETATM   12  C   UNK N   1      29.252  17.353   8.271  0.00  0.00     0.045 C 
HETATM   13  C   UNK N   1      30.544  17.325   8.716  0.00  0.00     0.056 C 
HETATM   14 Cl   UNK N   1      28.091  18.020   9.424  0.00  0.00    -0.084 Cl
HETATM   15  C   UNK N   1      31.562  16.730   8.001  0.00  0.00     0.064 C 
HETATM   16  C   UNK N   1      31.245  16.047   6.820  0.00  0.00     0.056 C 
HETATM   17  C   UNK N   1      29.943  16.099   6.292  0.00  0.00     0.045 C 
HETATM   18 Cl   UNK N   1      29.671  15.170   4.823  0.00  0.00    -0.084 Cl
BRANCH  15  19
HETATM   19  N   UNK N   1      32.866  16.653   8.607  0.00  0.00    -0.206 N 
HETATM   20  C   UNK N   1      33.827  17.635   8.377  0.00  0.00     0.348 A 
HETATM   21  O   UNK N   1      33.666  18.496   7.529  0.00  0.00    -0.245 OA
HETATM   22  N   UNK N   1      34.969  17.643   9.120  0.00  0.00    -0.273 N 
HETATM   23  C   UNK N   1      35.170  16.696  10.075  0.00  0.00     0.266 A 
HETATM   24  H   UNK N   1      35.651  18.336   8.965  0.00  0.00     0.173 HD
HETATM   25  O   UNK N   1      36.160  16.744  10.780  0.00  0.00    -0.267 OA
HETATM   26  C   UNK N   1      34.236  15.680  10.245  0.00  0.00     0.182 A 
HETATM   27  N   UNK N   1      33.105  15.687   9.495  0.00  0.00    -0.296 N 
ATOM     28  HN  UNK N   1      32.423  14.938   9.613  1.00  0.00     0.187 HD
ENDBRANCH  15  19
ENDBRANCH   1  11
TORSDOF 3
ENDMDL
MODEL 2
REMARK VINA RESULT:      -7.9      7.522     12.095
REMARK  3 active torsions:
REMARK  status: ('A' for Active; 'I' for Inactive)
REMARK    1  A    between atoms: C_6  and  C_7 
REMARK    2  A    between atoms: C_7  and  C_10 
REMARK    3  A    between atoms: C_13  and  N_17 
ROOT
HETATM    1  C   UNK N   1      36.959  11.987  15.109  0.00  0.00     0.162 C 
HETATM    2  C   UNK N   1      37.608  10.756  14.639  0.00  0.00     0.073 C 
HETATM    3  N   UNK N   1      38.114   9.787  14.256  0.00  0.00    -0.196 NA
ENDROOT
BRANCH   1   4
HETATM    4  C   UNK N   1      36.105  11.746  16.344  0.00  0.00    -0.036 A 
HETATM    5  C   UNK N   1      35.422  12.805  16.985  0.00  0.00     0.012 A 
HETATM    6  C   UNK N   1      35.055  12.696  18.330  0.00  0.00     0.043 A 
HETATM    7  C   UNK N   1      35.342  11.525  19.034  0.00  0.00     0.116 A 
HETATM    8  C   UNK N   1      35.914  10.436  18.375  0.00  0.00     0.043 A 
HETATM    9  F   UNK N   1      35.108  11.458  20.367  0.00  0.00    -0.206 F 
HETATM   10  C   UNK N   1      36.311  10.553  17.041  0.00  0.00     0.012 A 
ENDBRANCH   1   4
BRANCH   1  11
HETATM   11  C   UNK N   1      36.307  12.947  14.096  0.00  0.00     0.007 C 
HETATM   12  C   UNK N   1      35.435  12.382  13.121  0.00  0.00     0.045 C 
HETATM   13  C   UNK N   1      34.949  13.150  12.100  0.00  0.00     0.056 C 
HETATM   14 Cl   UNK N   1      34.837  10.719  13.140  0.00  0.00    -0.084 Cl
HETATM   15  C   UNK N   1      35.211  14.500  11.998  0.00  0.00     0.064 C 
HETATM   16  C   UNK N   1      35.924  15.127  13.028  0.00  0.00     0.056 C 
HETATM   17  C   UNK N   1      36.495  14.370  14.066  0.00  0.00     0.045 C 
HETATM   18 Cl   UNK N   1      37.334  15.283  15.314  0.00  0.00    -0.084 Cl
BRANCH  15  19
HETATM   19  N   UNK N   1      34.560  15.244  10.951  0.00  0.00    -0.206 N 
HETATM   20  C   UNK N   1      35.234  16.241  10.251  0.00  0.00     0.348 A 
HETATM   21  O   UNK N   1      36.330  16.638  10.605  0.00  0.00    -0.245 OA
HETATM   22  N   UNK N   1      34.663  16.781   9.137  0.00  0.00    -0.273 N 
HETATM   23  C   UNK N   1      33.443  16.352   8.718  0.00  0.00     0.266 A 
HETATM   24  H   UNK N   1      35.135  17.484   8.634  0.00  0.00     0.173 HD
HETATM   25  O   UNK N   1      32.965  16.789   7.688  0.00  0.00    -0.267 OA
HETATM   26  C   UNK N   1      32.750  15.408   9.468  0.00  0.00     0.182 A 
HETATM   27  N   UNK N   1      33.334  14.882  10.574  0.00  0.00    -0.296 N 
ATOM     28  HN  UNK N   1      32.823  14.195  11.129  1.00  0.00     0.187 HD
ENDBRANCH  15  19
ENDBRANCH   1  11
TORSDOF 3
ENDMDL
MODEL 3
REMARK VINA RESULT:      -7.7     10.608     14.798
REMARK  3 active torsions:
REMARK  status: ('A' for Active; 'I' for Inactive)
REMARK    1  A    between atoms: C_6  and  C_7 
REMARK    2  A    between atoms: C_7  and  C_10 
REMARK    3  A    between atoms: C_13  and  N_17 
ROOT
HETATM    1  C   UNK N   1      35.810  10.313  20.131  0.00  0.00     0.162 C 
HETATM    2  C   UNK N   1      37.029   9.534  20.383  0.00  0.00     0.073 C 
HETATM    3  N   UNK N   1      37.995   8.922  20.570  0.00  0.00    -0.196 NA
ENDROOT
BRANCH   1   4
HETATM    4  C   UNK N   1      34.551   9.521  20.450  0.00  0.00    -0.036 A 
HETATM    5  C   UNK N   1      34.087   8.499  19.590  0.00  0.00     0.012 A 
HETATM    6  C   UNK N   1      32.741   8.118  19.610  0.00  0.00     0.043 A 
HETATM    7  C   UNK N   1      31.860   8.732  20.501  0.00  0.00     0.116 A 
HETATM    8  C   UNK N   1      32.338   9.660  21.428  0.00  0.00     0.043 A 
HETATM    9  F   UNK N   1      30.533   8.464  20.440  0.00  0.00    -0.206 F 
HETATM   10  C   UNK N   1      33.673  10.066  21.390  0.00  0.00     0.012 A 
ENDBRANCH   1   4
BRANCH   1  11
HETATM   11  C   UNK N   1      35.689  11.157  18.848  0.00  0.00     0.007 C 
HETATM   12  C   UNK N   1      36.065  10.544  17.619  0.00  0.00     0.045 C 
HETATM   13  C   UNK N   1      36.132  11.282  16.470  0.00  0.00     0.056 C 
HETATM   14 Cl   UNK N   1      36.408   8.824  17.409  0.00  0.00    -0.084 Cl
HETATM   15  C   UNK N   1      35.778  12.614  16.423  0.00  0.00     0.064 C 
HETATM   16  C   UNK N   1      35.243  13.210  17.572  0.00  0.00     0.056 C 
HETATM   17  C   UNK N   1      35.210  12.510  18.791  0.00  0.00     0.045 C 
HETATM   18 Cl   UNK N   1      34.480  13.359  20.148  0.00  0.00    -0.084 Cl
BRANCH  15  19
HETATM   19  N   UNK N   1      35.774  13.274  15.143  0.00  0.00    -0.206 N 
HETATM   20  C   UNK N   1      36.686  14.285  14.851  0.00  0.00     0.348 A 
HETATM   21  O   UNK N   1      37.402  14.765  15.712  0.00  0.00    -0.245 OA
HETATM   22  N   UNK N   1      36.793  14.743  13.572  0.00  0.00    -0.273 N 
HETATM   23  C   UNK N   1      36.009  14.221  12.591  0.00  0.00     0.266 A 
HETATM   24  H   UNK N   1      37.438  15.455  13.357  0.00  0.00     0.173 HD
HETATM   25  O   UNK N   1      36.151  14.586  11.440  0.00  0.00    -0.267 OA
HETATM   26  C   UNK N   1      35.052  13.264  12.911  0.00  0.00     0.182 A 
HETATM   27  N   UNK N   1      34.961  12.820  14.190  0.00  0.00    -0.296 N 
ATOM     28  HN  UNK N   1      34.254  12.123  14.426  1.00  0.00     0.187 HD
ENDBRANCH  15  19
ENDBRANCH   1  11
TORSDOF 3
ENDMDL
MODEL 4
REMARK VINA RESULT:      -7.6     10.604     14.738
REMARK  3 active torsions:
REMARK  status: ('A' for Active; 'I' for Inactive)
REMARK    1  A    between atoms: C_6  and  C_7 
REMARK    2  A    between atoms: C_7  and  C_10 
REMARK    3  A    between atoms: C_13  and  N_17 
ROOT
HETATM    1  C   UNK N   1      35.687  10.565  20.179  0.00  0.00     0.162 C 
HETATM    2  C   UNK N   1      36.892  10.093  20.874  0.00  0.00     0.073 C 
HETATM    3  N   UNK N   1      37.848   9.720  21.411  0.00  0.00    -0.196 NA
ENDROOT
BRANCH   1   4
HETATM    4  C   UNK N   1      34.481   9.685  20.466  0.00  0.00    -0.036 A 
HETATM    5  C   UNK N   1      34.071   8.679  19.561  0.00  0.00     0.012 A 
HETATM    6  C   UNK N   1      32.751   8.217  19.569  0.00  0.00     0.043 A 
HETATM    7  C   UNK N   1      31.842   8.734  20.494  0.00  0.00     0.116 A 
HETATM    8  C   UNK N   1      32.271   9.644  21.462  0.00  0.00     0.043 A 
HETATM    9  F   UNK N   1      30.533   8.391  20.426  0.00  0.00    -0.206 F 
HETATM   10  C   UNK N   1      33.580  10.130  21.436  0.00  0.00     0.012 A 
ENDBRANCH   1   4
BRANCH   1  11
HETATM   11  C   UNK N   1      35.775  11.016  18.709  0.00  0.00     0.007 C 
HETATM   12  C   UNK N   1      35.280  12.313  18.387  0.00  0.00     0.045 C 
HETATM   13  C   UNK N   1      35.183  12.712  17.084  0.00  0.00     0.056 C 
HETATM   14 Cl   UNK N   1      34.815  13.541  19.570  0.00  0.00    -0.084 Cl
HETATM   15  C   UNK N   1      35.616  11.930  16.034  0.00  0.00     0.064 C 
HETATM   16  C   UNK N   1      36.264  10.721  16.319  0.00  0.00     0.056 C 
HETATM   17  C   UNK N   1      36.334  10.240  17.638  0.00  0.00     0.045 C 
HETATM   18 Cl   UNK N   1      37.205   8.728  17.862  0.00  0.00    -0.084 Cl
BRANCH  15  19
HETATM   19  N   UNK N   1      35.577  12.487  14.707  0.00  0.00    -0.206 N 
HETATM   20  C   UNK N   1      34.686  12.005  13.751  0.00  0.00     0.348 A 
HETATM   21  O   UNK N   1      34.034  10.993  13.941  0.00  0.00    -0.245 OA
HETATM   22  N   UNK N   1      34.529  12.683  12.579  0.00  0.00    -0.273 N 
HETATM   23  C   UNK N   1      35.242  13.817  12.344  0.00  0.00     0.266 A 
HETATM   24  H   UNK N   1      33.899  12.350  11.899  0.00  0.00     0.173 HD
HETATM   25  O   UNK N   1      35.053  14.454  11.326  0.00  0.00    -0.267 OA
HETATM   26  C   UNK N   1      36.180  14.245  13.277  0.00  0.00     0.182 A 
HETATM   27  N   UNK N   1      36.323  13.558  14.438  0.00  0.00    -0.296 N 
ATOM     28  HN  UNK N   1      37.016  13.867  15.119  1.00  0.00     0.187 HD
ENDBRANCH  15  19
ENDBRANCH   1  11
TORSDOF 3
ENDMDL
MODEL 5
REMARK VINA RESULT:      -7.6      8.601     10.880
REMARK  3 active torsions:
REMARK  status: ('A' for Active; 'I' for Inactive)
REMARK    1  A    between atoms: C_6  and  C_7 
REMARK    2  A    between atoms: C_7  and  C_10 
REMARK    3  A    between atoms: C_13  and  N_17 
ROOT
HETATM    1  C   UNK N   1      23.837  12.455   7.812  0.00  0.00     0.162 C 
HETATM    2  C   UNK N   1      23.754  11.055   7.375  0.00  0.00     0.073 C 
HETATM    3  N   UNK N   1      23.679   9.954   7.022  0.00  0.00    -0.196 NA
ENDROOT
BRANCH   1   4
HETATM    4  C   UNK N   1      23.597  12.601   9.307  0.00  0.00    -0.036 A 
HETATM    5  C   UNK N   1      24.652  12.459  10.238  0.00  0.00     0.012 A 
HETATM    6  C   UNK N   1      24.377  12.118  11.567  0.00  0.00     0.043 A 
HETATM    7  C   UNK N   1      23.055  11.944  11.979  0.00  0.00     0.116 A 
HETATM    8  C   UNK N   1      22.007  12.194  11.090  0.00  0.00     0.043 A 
HETATM    9  F   UNK N   1      22.785  11.488  13.226  0.00  0.00    -0.206 F 
HETATM   10  C   UNK N   1      22.278  12.504   9.756  0.00  0.00     0.012 A 
ENDBRANCH   1   4
BRANCH   1  11
HETATM   11  C   UNK N   1      23.167  13.562   6.976  0.00  0.00     0.007 C 
HETATM   12  C   UNK N   1      23.921  14.743   6.723  0.00  0.00     0.045 C 
HETATM   13  C   UNK N   1      23.334  15.824   6.126  0.00  0.00     0.056 C 
HETATM   14 Cl   UNK N   1      25.645  14.936   7.061  0.00  0.00    -0.084 Cl
HETATM   15  C   UNK N   1      22.029  15.807   5.681  0.00  0.00     0.064 C 
HETATM   16  C   UNK N   1      21.306  14.609   5.759  0.00  0.00     0.056 C 
HETATM   17  C   UNK N   1      21.846  13.491   6.418  0.00  0.00     0.045 C 
HETATM   18 Cl   UNK N   1      20.850  12.040   6.414  0.00  0.00    -0.084 Cl
BRANCH  15  19
HETATM   19  N   UNK N   1      21.538  16.955   4.963  0.00  0.00    -0.206 N 
HETATM   20  C   UNK N   1      21.395  18.190   5.592  0.00  0.00     0.348 A 
HETATM   21  O   UNK N   1      21.512  18.307   6.799  0.00  0.00    -0.245 OA
HETATM   22  N   UNK N   1      21.128  19.296   4.842  0.00  0.00    -0.273 N 
HETATM   23  C   UNK N   1      20.996  19.193   3.493  0.00  0.00     0.266 A 
HETATM   24  H   UNK N   1      21.028  20.173   5.279  0.00  0.00     0.173 HD
HETATM   25  O   UNK N   1      20.822  20.191   2.820  0.00  0.00    -0.267 OA
HETATM   26  C   UNK N   1      21.070  17.943   2.887  0.00  0.00     0.182 A 
HETATM   27  N   UNK N   1      21.337  16.853   3.650  0.00  0.00    -0.296 N 
ATOM     28  HN  UNK N   1      21.384  15.934   3.207  1.00  0.00     0.187 HD
ENDBRANCH  15  19
ENDBRANCH   1  11
TORSDOF 3
ENDMDL
MODEL 6
REMARK VINA RESULT:      -7.5      7.580     12.031
REMARK  3 active torsions:
REMARK  status: ('A' for Active; 'I' for Inactive)
REMARK    1  A    between atoms: C_6  and  C_7 
REMARK    2  A    between atoms: C_7  and  C_10 
REMARK    3  A    between atoms: C_13  and  N_17 
ROOT
HETATM    1  C   UNK N   1      37.055  11.686  14.980  0.00  0.00     0.162 C 
HETATM    2  C   UNK N   1      38.054  10.647  14.700  0.00  0.00     0.073 C 
HETATM    3  N   UNK N   1      38.839   9.828  14.466  0.00  0.00    -0.196 NA
ENDROOT
BRANCH   1   4
HETATM    4  C   UNK N   1      36.008  11.216  15.979  0.00  0.00    -0.036 A 
HETATM    5  C   UNK N   1      35.751  11.937  17.168  0.00  0.00     0.012 A 
HETATM    6  C   UNK N   1      35.179  11.294  18.272  0.00  0.00     0.043 A 
HETATM    7  C   UNK N   1      34.838   9.943  18.188  0.00  0.00     0.116 A 
HETATM    8  C   UNK N   1      34.987   9.259  16.979  0.00  0.00     0.043 A 
HETATM    9  F   UNK N   1      34.406   9.281  19.288  0.00  0.00    -0.206 F 
HETATM   10  C   UNK N   1      35.586   9.888  15.886  0.00  0.00     0.012 A 
ENDBRANCH   1   4
BRANCH   1  11
HETATM   11  C   UNK N   1      36.464  12.516  13.824  0.00  0.00     0.007 C 
HETATM   12  C   UNK N   1      36.384  13.927  14.002  0.00  0.00     0.045 C 
HETATM   13  C   UNK N   1      35.729  14.703  13.087  0.00  0.00     0.056 C 
HETATM   14 Cl   UNK N   1      37.141  14.826  15.322  0.00  0.00    -0.084 Cl
HETATM   15  C   UNK N   1      35.185  14.186  11.930  0.00  0.00     0.064 C 
HETATM   16  C   UNK N   1      35.390  12.831  11.637  0.00  0.00     0.056 C 
HETATM   17  C   UNK N   1      36.003  11.982  12.574  0.00  0.00     0.045 C 
HETATM   18 Cl   UNK N   1      36.232  10.313  12.067  0.00  0.00    -0.084 Cl
BRANCH  15  19
HETATM   19  N   UNK N   1      34.617  15.102  10.975  0.00  0.00    -0.206 N 
HETATM   20  C   UNK N   1      35.392  16.095  10.381  0.00  0.00     0.348 A 
HETATM   21  O   UNK N   1      36.522  16.336  10.767  0.00  0.00    -0.245 OA
HETATM   22  N   UNK N   1      34.883  16.807   9.337  0.00  0.00    -0.273 N 
HETATM   23  C   UNK N   1      33.625  16.555   8.884  0.00  0.00     0.266 A 
HETATM   24  H   UNK N   1      35.426  17.509   8.909  0.00  0.00     0.173 HD
HETATM   25  O   UNK N   1      33.198  17.147   7.912  0.00  0.00    -0.267 OA
HETATM   26  C   UNK N   1      32.837  15.611   9.534  0.00  0.00     0.182 A 
HETATM   27  N   UNK N   1      33.361  14.911  10.572  0.00  0.00    -0.296 N 
ATOM     28  HN  UNK N   1      32.780  14.224  11.053  1.00  0.00     0.187 HD
ENDBRANCH  15  19
ENDBRANCH   1  11
TORSDOF 3
ENDMDL
MODEL 7
REMARK VINA RESULT:      -7.5     12.021     14.448
REMARK  3 active torsions:
REMARK  status: ('A' for Active; 'I' for Inactive)
REMARK    1  A    between atoms: C_6  and  C_7 
REMARK    2  A    between atoms: C_7  and  C_10 
REMARK    3  A    between atoms: C_13  and  N_17 
ROOT
HETATM    1  C   UNK N   1      27.481  27.213  -4.677  0.00  0.00     0.162 C 
HETATM    2  C   UNK N   1      26.410  27.526  -3.722  0.00  0.00     0.073 C 
HETATM    3  N   UNK N   1      25.567  27.762  -2.963  0.00  0.00    -0.196 NA
ENDROOT
BRANCH   1   4
HETATM    4  C   UNK N   1      26.991  27.253  -6.116  0.00  0.00    -0.036 A 
HETATM    5  C   UNK N   1      25.793  26.609  -6.504  0.00  0.00     0.012 A 
HETATM    6  C   UNK N   1      25.593  26.235  -7.837  0.00  0.00     0.043 A 
HETATM    7  C   UNK N   1      26.570  26.523  -8.792  0.00  0.00     0.116 A 
HETATM    8  C   UNK N   1      27.702  27.258  -8.434  0.00  0.00     0.043 A 
HETATM    9  F   UNK N   1      26.445  26.052 -10.056  0.00  0.00    -0.206 F 
HETATM   10  C   UNK N   1      27.920  27.605  -7.099  0.00  0.00     0.012 A 
ENDBRANCH   1   4
BRANCH   1  11
HETATM   11  C   UNK N   1      28.446  26.047  -4.394  0.00  0.00     0.007 C 
HETATM   12  C   UNK N   1      29.819  26.364  -4.186  0.00  0.00     0.045 C 
HETATM   13  C   UNK N   1      30.752  25.370  -4.088  0.00  0.00     0.056 C 
HETATM   14 Cl   UNK N   1      30.459  27.997  -3.968  0.00  0.00    -0.084 Cl
HETATM   15  C   UNK N   1      30.415  24.033  -4.111  0.00  0.00     0.064 C 
HETATM   16  C   UNK N   1      29.060  23.680  -4.144  0.00  0.00     0.056 C 
HETATM   17  C   UNK N   1      28.069  24.664  -4.306  0.00  0.00     0.045 C 
HETATM   18 Cl   UNK N   1      26.405  24.091  -4.295  0.00  0.00    -0.084 Cl
BRANCH  15  19
HETATM   19  N   UNK N   1      31.456  23.063  -3.885  0.00  0.00    -0.206 N 
HETATM   20  C   UNK N   1      31.566  22.396  -2.668  0.00  0.00     0.348 A 
HETATM   21  O   UNK N   1      30.902  22.723  -1.700  0.00  0.00    -0.245 OA
HETATM   22  N   UNK N   1      32.425  21.344  -2.556  0.00  0.00    -0.273 N 
HETATM   23  C   UNK N   1      33.174  20.955  -3.622  0.00  0.00     0.266 A 
HETATM   24  H   UNK N   1      32.506  20.864  -1.699  0.00  0.00     0.173 HD
HETATM   25  O   UNK N   1      33.891  19.977  -3.538  0.00  0.00    -0.267 OA
HETATM   26  C   UNK N   1      33.107  21.677  -4.809  0.00  0.00     0.182 A 
HETATM   27  N   UNK N   1      32.246  22.721  -4.903  0.00  0.00    -0.296 N 
ATOM     28  HN  UNK N   1      32.202  23.255  -5.771  1.00  0.00     0.187 HD
ENDBRANCH  15  19
ENDBRANCH   1  11
TORSDOF 3
ENDMDL
MODEL 8
REMARK VINA RESULT:      -7.5      2.522      2.976
REMARK  3 active torsions:
REMARK  status: ('A' for Active; 'I' for Inactive)
REMARK    1  A    between atoms: C_6  and  C_7 
REMARK    2  A    between atoms: C_7  and  C_10 
REMARK    3  A    between atoms: C_13  and  N_17 
ROOT
HETATM    1  C   UNK N   1      29.285  17.869   4.461  0.00  0.00     0.162 C 
HETATM    2  C   UNK N   1      28.399  18.987   4.808  0.00  0.00     0.073 C 
HETATM    3  N   UNK N   1      27.705  19.870   5.094  0.00  0.00    -0.196 NA
ENDROOT
BRANCH   1   4
HETATM    4  C   UNK N   1      28.509  16.664   3.951  0.00  0.00    -0.036 A 
HETATM    5  C   UNK N   1      29.035  15.822   2.944  0.00  0.00     0.012 A 
HETATM    6  C   UNK N   1      28.180  15.045   2.157  0.00  0.00     0.043 A 
HETATM    7  C   UNK N   1      26.803  15.082   2.384  0.00  0.00     0.116 A 
HETATM    8  C   UNK N   1      26.291  15.825   3.449  0.00  0.00     0.043 A 
HETATM    9  F   UNK N   1      25.957  14.436   1.545  0.00  0.00    -0.206 F 
HETATM   10  C   UNK N   1      27.138  16.626   4.217  0.00  0.00     0.012 A 
ENDBRANCH   1   4
BRANCH   1  11
HETATM   11  C   UNK N   1      30.449  17.492   5.396  0.00  0.00     0.007 C 
HETATM   12  C   UNK N   1      30.145  17.271   6.770  0.00  0.00     0.045 C 
HETATM   13  C   UNK N   1      31.148  17.089   7.680  0.00  0.00     0.056 C 
HETATM   14 Cl   UNK N   1      28.514  17.137   7.436  0.00  0.00    -0.084 Cl
HETATM   15  C   UNK N   1      32.478  17.038   7.317  0.00  0.00     0.064 C 
HETATM   16  C   UNK N   1      32.807  17.082   5.956  0.00  0.00     0.056 C 
HETATM   17  C   UNK N   1      31.817  17.328   4.989  0.00  0.00     0.045 C 
HETATM   18 Cl   UNK N   1      32.357  17.322   3.315  0.00  0.00    -0.084 Cl
BRANCH  15  19
HETATM   19  N   UNK N   1      33.451  16.728   8.333  0.00  0.00    -0.206 N 
HETATM   20  C   UNK N   1      34.359  17.686   8.776  0.00  0.00     0.348 A 
HETATM   21  O   UNK N   1      34.480  18.759   8.210  0.00  0.00    -0.245 OA
HETATM   22  N   UNK N   1      35.123  17.428   9.875  0.00  0.00    -0.273 N 
HETATM   23  C   UNK N   1      35.004  16.241  10.527  0.00  0.00     0.266 A 
HETATM   24  H   UNK N   1      35.765  18.102  10.196  0.00  0.00     0.173 HD
HETATM   25  O   UNK N   1      35.641  16.039  11.543  0.00  0.00    -0.267 OA
HETATM   26  C   UNK N   1      34.146  15.265  10.030  0.00  0.00     0.182 A 
HETATM   27  N   UNK N   1      33.393  15.541   8.936  0.00  0.00    -0.296 N 
ATOM     28  HN  UNK N   1      32.769  14.823   8.567  1.00  0.00     0.187 HD
ENDBRANCH  15  19
ENDBRANCH   1  11
TORSDOF 3
ENDMDL
MODEL 9
REMARK VINA RESULT:      -7.4      7.108     11.268
REMARK  3 active torsions:
REMARK  status: ('A' for Active; 'I' for Inactive)
REMARK    1  A    between atoms: C_6  and  C_7 
REMARK    2  A    between atoms: C_7  and  C_10 
REMARK    3  A    between atoms: C_13  and  N_17 
ROOT
HETATM    1  C   UNK N   1      37.604  11.304  12.605  0.00  0.00     0.162 C 
HETATM    2  C   UNK N   1      37.665   9.887  12.225  0.00  0.00     0.073 C 
HETATM    3  N   UNK N   1      37.703   8.771  11.916  0.00  0.00    -0.196 NA
ENDROOT
BRANCH   1   4
HETATM    4  C   UNK N   1      37.330  11.485  14.090  0.00  0.00    -0.036 A 
HETATM    5  C   UNK N   1      37.065  10.378  14.930  0.00  0.00     0.012 A 
HETATM    6  C   UNK N   1      36.363  10.553  16.127  0.00  0.00     0.043 A 
HETATM    7  C   UNK N   1      35.947  11.831  16.506  0.00  0.00     0.116 A 
HETATM    8  C   UNK N   1      36.305  12.939  15.736  0.00  0.00     0.043 A 
HETATM    9  F   UNK N   1      35.156  11.994  17.594  0.00  0.00    -0.206 F 
HETATM   10  C   UNK N   1      36.977  12.765  14.525  0.00  0.00     0.012 A 
ENDBRANCH   1   4
BRANCH   1  11
HETATM   11  C   UNK N   1      36.840  12.306  11.719  0.00  0.00     0.007 C 
HETATM   12  C   UNK N   1      37.608  13.147  10.863  0.00  0.00     0.045 C 
HETATM   13  C   UNK N   1      37.008  14.161  10.170  0.00  0.00     0.056 C 
HETATM   14 Cl   UNK N   1      39.335  12.957  10.542  0.00  0.00    -0.084 Cl
HETATM   15  C   UNK N   1      35.646  14.378  10.203  0.00  0.00     0.064 C 
HETATM   16  C   UNK N   1      34.837  13.470  10.899  0.00  0.00     0.056 C 
HETATM   17  C   UNK N   1      35.412  12.448  11.674  0.00  0.00     0.045 C 
HETATM   18 Cl   UNK N   1      34.283  11.356  12.467  0.00  0.00    -0.084 Cl
BRANCH  15  19
HETATM   19  N   UNK N   1      35.098  15.399   9.350  0.00  0.00    -0.206 N 
HETATM   20  C   UNK N   1      35.001  16.721   9.779  0.00  0.00     0.348 A 
HETATM   21  O   UNK N   1      35.213  17.031  10.938  0.00  0.00    -0.245 OA
HETATM   22  N   UNK N   1      34.672  17.694   8.884  0.00  0.00    -0.273 N 
HETATM   23  C   UNK N   1      34.435  17.376   7.583  0.00  0.00     0.266 A 
HETATM   24  H   UNK N   1      34.605  18.631   9.179  0.00  0.00     0.173 HD
HETATM   25  O   UNK N   1      34.205  18.253   6.774  0.00  0.00    -0.267 OA
HETATM   26  C   UNK N   1      34.464  16.044   7.185  0.00  0.00     0.182 A 
HETATM   27  N   UNK N   1      34.793  15.088   8.090  0.00  0.00    -0.296 N 
ATOM     28  HN  UNK N   1      34.807  14.110   7.800  1.00  0.00     0.187 HD
ENDBRANCH  15  19
ENDBRANCH   1  11
TORSDOF 3
ENDMDL
