REMARK  5 active torsions:
REMARK  status: ('A' for Active; 'I' for Inactive)
REMARK    1  A    between atoms: C_15  and  C_12 
REMARK    2  A    between atoms: C_24  and  C_12 
REMARK    3  A    between atoms: N_32  and  C_15 
REMARK    4  A    between atoms: C_25  and  C_19 
REMARK    5  A    between atoms: C_25  and  C_20 
ROOT
HETATM    1  C   UNK N   1       5.264   4.920  -0.390  0.00  0.00     0.065 C 
HETATM    2  C   UNK N   1       6.679   2.917  -0.196  0.00  0.00     0.065 C 
HETATM    3  C   UNK N   1       4.702   4.700   1.010  0.00  0.00     0.276 C 
HETATM    4  C   UNK N   1       6.165   2.657   1.219  0.00  0.00     0.276 C 
HETATM    5  C   UNK N   1       6.657   4.394  -0.372  0.00  0.00    -0.065 C 
HETATM    6  C   UNK N   1       7.792   5.188  -0.360  0.00  0.00    -0.013 C 
HETATM    7  N   UNK N   1       4.877   3.321   1.495  0.00  0.00     0.089 N 
ENDROOT
BRANCH   6   8
HETATM    8  C   UNK N   1       7.665   6.718  -0.342  0.00  0.00    -0.025 A 
HETATM    9  C   UNK N   1       8.795   7.550  -0.436  0.00  0.00     0.015 A 
HETATM   10  C   UNK N   1       8.686   8.943  -0.349  0.00  0.00     0.043 A 
HETATM   11  C   UNK N   1       7.437   9.535  -0.162  0.00  0.00     0.116 A 
HETATM   12  C   UNK N   1       6.300   8.739  -0.079  0.00  0.00     0.043 A 
HETATM   13  F   UNK N   1       7.327  10.881  -0.058  0.00  0.00    -0.206 F 
HETATM   14  C   UNK N   1       6.418   7.353  -0.168  0.00  0.00     0.015 A 
ENDBRANCH   6   8
BRANCH   6  15
HETATM   15  C   UNK N   1       9.178   4.538  -0.254  0.00  0.00    -0.025 A 
HETATM   16  C   UNK N   1       9.365   3.152  -0.438  0.00  0.00     0.015 A 
HETATM   17  C   UNK N   1      10.611   2.548  -0.268  0.00  0.00     0.043 A 
HETATM   18  C   UNK N   1      11.710   3.320   0.094  0.00  0.00     0.116 A 
HETATM   19  C   UNK N   1      11.564   4.695   0.269  0.00  0.00     0.043 A 
HETATM   20  F   UNK N   1      12.917   2.734   0.280  0.00  0.00    -0.206 F 
HETATM   21  C   UNK N   1      10.311   5.294   0.096  0.00  0.00     0.015 A 
ENDBRANCH   6  15
BRANCH   7  22
HETATM   22  C   UNK N   1       3.727   2.487   1.195  0.00  0.00     0.277 C 
BRANCH  22  23
HETATM   23  C   UNK N   1       3.658   2.021  -0.253  0.00  0.00     0.076 C 
BRANCH  23  24
HETATM   24  C   UNK N   1       2.459   1.143  -0.310  0.00  0.00     0.034 A 
HETATM   25  C   UNK N   1       2.589  -0.264  -0.268  0.00  0.00     0.019 A 
HETATM   26  C   UNK N   1       3.936  -0.909  -0.234  0.00  0.00     0.069 C 
HETATM   27  N   UNK N   1       1.477  -1.049  -0.216  0.00  0.00    -0.339 N 
HETATM   28  C   UNK N   1       0.255  -0.466  -0.207  0.00  0.00     0.158 A 
ATOM     29  HN  UNK N   1       1.565  -2.065  -0.185  1.00  0.00     0.168 HD
HETATM   30  N   UNK N   1       0.089   0.872  -0.262  0.00  0.00    -0.268 N 
HETATM   31  S   UNK N   1      -1.207  -1.201  -0.108  0.00  0.00    -0.064 SA
HETATM   32  C   UNK N   1      -1.236   1.254  -0.226  0.00  0.00     0.109 A 
HETATM   33  C   UNK N   1       1.169   1.708  -0.319  0.00  0.00     0.261 A 
HETATM   34  C   UNK N   1      -2.148   0.178  -0.135  0.00  0.00     0.071 A 
HETATM   35  O   UNK N   1       1.017   2.919  -0.353  0.00  0.00    -0.267 OA
ENDBRANCH  23  24
ENDBRANCH  22  23
ENDBRANCH   7  22
TORSDOF 5
