MODEL 1
REMARK VINA RESULT:      -6.6      0.000      0.000
REMARK  13 active torsions:
REMARK  status: ('A' for Active; 'I' for Inactive)
REMARK    1  A    between atoms: C_3  and  O_2 
REMARK    2  A    between atoms: C_3  and  C_4 
REMARK    3  A    between atoms: C_3  and  C_29 
REMARK    4  A    between atoms: C_4  and  C_5 
REMARK    5  A    between atoms: C_8  and  O_11 
REMARK    6  A    between atoms: O_11  and  C_12 
REMARK    7  A    between atoms: C_12  and  C_13 
REMARK    8  A    between atoms: C_13  and  C_14 
REMARK    9  A    between atoms: C_14  and  O_15 
REMARK   10  A    between atoms: O_15  and  C_16 
REMARK   11  A    between atoms: C_19  and  O_22 
REMARK   12  A    between atoms: O_22  and  C_23 
REMARK   13  A    between atoms: C_29  and  O_31 
ROOT
HETATM    1  C   UNK N   1      28.238  29.857  -5.286  0.00  0.00     0.178 C 
ENDROOT
BRANCH   1   2
HETATM    2  O   UNK N   1      29.374  29.462  -4.611  0.00  0.00    -0.351 OA
BRANCH   2   3
HETATM    3  C   UNK N   1      29.760  28.167  -4.531  0.00  0.00     0.068 A 
HETATM    4  C   UNK N   1      30.510  27.741  -3.428  0.00  0.00     0.037 A 
HETATM    5  C   UNK N   1      30.891  26.399  -3.311  0.00  0.00     0.010 A 
HETATM    6  C   UNK N   1      30.545  25.478  -4.307  0.00  0.00    -0.055 A 
HETATM    7  C   UNK N   1      29.797  25.901  -5.410  0.00  0.00     0.010 A 
HETATM    8  C   UNK N   1      29.412  27.238  -5.526  0.00  0.00     0.037 A 
BRANCH   6   9
HETATM    9  C   UNK N   1      30.846  24.024  -4.113  0.00  0.00     0.081 C 
BRANCH   9  10
HETATM   10  C   UNK N   1      29.691  23.110  -3.685  0.00  0.00     0.222 C 
BRANCH  10  11
HETATM   11  O   UNK N   1      29.940  21.837  -4.209  0.00  0.00    -0.380 OA
HETATM   12  C   UNK N   1      29.720  21.956  -5.582  0.00  0.00     0.202 C 
ENDBRANCH  10  11
BRANCH  10  13
HETATM   13  C   UNK N   1      29.486  23.016  -2.194  0.00  0.00     0.170 C 
HETATM   14  O   UNK N   1      30.442  23.025  -1.441  0.00  0.00    -0.648 OA
BRANCH  13  15
HETATM   15  O   UNK N   1      28.238  22.989  -1.681  0.00  0.00    -0.774 OA
HETATM   16  H   UNK N   1      27.619  23.690  -1.633  0.00  0.00     0.167 HD
ENDBRANCH  13  15
ENDBRANCH  10  13
ENDBRANCH   9  10
ENDBRANCH   6   9
ENDBRANCH   2   3
ENDBRANCH   1   2
BRANCH   1  17
HETATM   17  C   UNK N   1      27.250  30.510  -4.334  0.00  0.00     0.053 C 
BRANCH  17  18
HETATM   18  C   UNK N   1      26.737  29.517  -3.298  0.00  0.00     0.178 C 
BRANCH  18  19
HETATM   19  O   UNK N   1      25.663  28.803  -3.791  0.00  0.00    -0.351 OA
BRANCH  19  20
HETATM   20  C   UNK N   1      25.766  27.521  -4.208  0.00  0.00     0.068 A 
HETATM   21  C   UNK N   1      25.135  27.091  -5.383  0.00  0.00     0.039 A 
HETATM   22  C   UNK N   1      25.199  25.756  -5.764  0.00  0.00     0.040 A 
HETATM   23  C   UNK N   1      25.898  24.826  -4.980  0.00  0.00     0.076 A 
HETATM   24  C   UNK N   1      26.571  25.258  -3.832  0.00  0.00     0.040 A 
HETATM   25  C   UNK N   1      26.495  26.602  -3.441  0.00  0.00     0.039 A 
BRANCH  23  26
HETATM   26  O   UNK N   1      25.902  23.511  -5.312  0.00  0.00    -0.311 OA
BRANCH  26  27
HETATM   27  C   UNK N   1      26.087  23.064  -6.583  0.00  0.00     0.076 A 
HETATM   28  C   UNK N   1      27.097  23.607  -7.404  0.00  0.00     0.037 A 
HETATM   29  C   UNK N   1      27.261  23.165  -8.716  0.00  0.00     0.003 A 
HETATM   30  C   UNK N   1      26.419  22.176  -9.224  0.00  0.00     0.000 A 
HETATM   31  C   UNK N   1      25.411  21.634  -8.421  0.00  0.00     0.003 A 
HETATM   32  C   UNK N   1      25.240  22.082  -7.106  0.00  0.00     0.037 A 
ENDBRANCH  26  27
ENDBRANCH  23  26
ENDBRANCH  19  20
ENDBRANCH  18  19
ENDBRANCH  17  18
ENDBRANCH   1  17
TORSDOF 13
ENDMDL
MODEL 2
REMARK VINA RESULT:      -6.4      1.815      5.246
REMARK  13 active torsions:
REMARK  status: ('A' for Active; 'I' for Inactive)
REMARK    1  A    between atoms: C_3  and  O_2 
REMARK    2  A    between atoms: C_3  and  C_4 
REMARK    3  A    between atoms: C_3  and  C_29 
REMARK    4  A    between atoms: C_4  and  C_5 
REMARK    5  A    between atoms: C_8  and  O_11 
REMARK    6  A    between atoms: O_11  and  C_12 
REMARK    7  A    between atoms: C_12  and  C_13 
REMARK    8  A    between atoms: C_13  and  C_14 
REMARK    9  A    between atoms: C_14  and  O_15 
REMARK   10  A    between atoms: O_15  and  C_16 
REMARK   11  A    between atoms: C_19  and  O_22 
REMARK   12  A    between atoms: O_22  and  C_23 
REMARK   13  A    between atoms: C_29  and  O_31 
ROOT
HETATM    1  C   UNK N   1      26.771  29.518  -3.179  0.00  0.00     0.178 C 
ENDROOT
BRANCH   1   2
HETATM    2  O   UNK N   1      25.687  28.673  -3.290  0.00  0.00    -0.351 OA
BRANCH   2   3
HETATM    3  C   UNK N   1      25.752  27.489  -3.945  0.00  0.00     0.068 A 
HETATM    4  C   UNK N   1      25.123  27.356  -5.188  0.00  0.00     0.037 A 
HETATM    5  C   UNK N   1      25.206  26.151  -5.895  0.00  0.00     0.010 A 
HETATM    6  C   UNK N   1      25.898  25.061  -5.352  0.00  0.00    -0.055 A 
HETATM    7  C   UNK N   1      26.526  25.190  -4.109  0.00  0.00     0.010 A 
HETATM    8  C   UNK N   1      26.448  26.393  -3.405  0.00  0.00     0.037 A 
BRANCH   6   9
HETATM    9  C   UNK N   1      26.089  23.820  -6.167  0.00  0.00     0.081 C 
BRANCH   9  10
HETATM   10  C   UNK N   1      26.365  23.991  -7.667  0.00  0.00     0.222 C 
BRANCH  10  11
HETATM   11  O   UNK N   1      27.466  23.191  -7.989  0.00  0.00    -0.380 OA
HETATM   12  C   UNK N   1      27.789  22.517  -6.811  0.00  0.00     0.202 C 
ENDBRANCH  10  11
BRANCH  10  13
HETATM   13  C   UNK N   1      25.202  23.643  -8.562  0.00  0.00     0.170 C 
HETATM   14  O   UNK N   1      24.461  22.721  -8.275  0.00  0.00    -0.648 OA
BRANCH  13  15
HETATM   15  O   UNK N   1      24.937  24.393  -9.651  0.00  0.00    -0.774 OA
HETATM   16  H   UNK N   1      25.050  25.318  -9.757  0.00  0.00     0.167 HD
ENDBRANCH  13  15
ENDBRANCH  10  13
ENDBRANCH   9  10
ENDBRANCH   6   9
ENDBRANCH   2   3
ENDBRANCH   1   2
BRANCH   1  17
HETATM   17  C   UNK N   1      26.803  30.501  -4.337  0.00  0.00     0.053 C 
BRANCH  17  18
HETATM   18  C   UNK N   1      28.082  30.357  -5.153  0.00  0.00     0.178 C 
BRANCH  18  19
HETATM   19  O   UNK N   1      28.032  29.232  -5.952  0.00  0.00    -0.351 OA
BRANCH  19  20
HETATM   20  C   UNK N   1      28.816  28.150  -5.741  0.00  0.00     0.068 A 
HETATM   21  C   UNK N   1      29.809  28.160  -4.753  0.00  0.00     0.039 A 
HETATM   22  C   UNK N   1      30.649  27.064  -4.592  0.00  0.00     0.040 A 
HETATM   23  C   UNK N   1      30.507  25.935  -5.414  0.00  0.00     0.076 A 
HETATM   24  C   UNK N   1      29.487  25.900  -6.369  0.00  0.00     0.040 A 
HETATM   25  C   UNK N   1      28.650  27.011  -6.540  0.00  0.00     0.039 A 
BRANCH  23  26
HETATM   26  O   UNK N   1      31.370  24.893  -5.306  0.00  0.00    -0.311 OA
BRANCH  26  27
HETATM   27  C   UNK N   1      31.028  23.697  -4.756  0.00  0.00     0.076 A 
HETATM   28  C   UNK N   1      31.253  22.489  -5.447  0.00  0.00     0.037 A 
HETATM   29  C   UNK N   1      30.872  21.269  -4.890  0.00  0.00     0.003 A 
HETATM   30  C   UNK N   1      30.262  21.241  -3.635  0.00  0.00     0.000 A 
HETATM   31  C   UNK N   1      30.029  22.434  -2.943  0.00  0.00     0.003 A 
HETATM   32  C   UNK N   1      30.404  23.660  -3.505  0.00  0.00     0.037 A 
ENDBRANCH  26  27
ENDBRANCH  23  26
ENDBRANCH  19  20
ENDBRANCH  18  19
ENDBRANCH  17  18
ENDBRANCH   1  17
TORSDOF 13
ENDMDL
MODEL 3
REMARK VINA RESULT:      -6.2      2.085      6.978
REMARK  13 active torsions:
REMARK  status: ('A' for Active; 'I' for Inactive)
REMARK    1  A    between atoms: C_3  and  O_2 
REMARK    2  A    between atoms: C_3  and  C_4 
REMARK    3  A    between atoms: C_3  and  C_29 
REMARK    4  A    between atoms: C_4  and  C_5 
REMARK    5  A    between atoms: C_8  and  O_11 
REMARK    6  A    between atoms: O_11  and  C_12 
REMARK    7  A    between atoms: C_12  and  C_13 
REMARK    8  A    between atoms: C_13  and  C_14 
REMARK    9  A    between atoms: C_14  and  O_15 
REMARK   10  A    between atoms: O_15  and  C_16 
REMARK   11  A    between atoms: C_19  and  O_22 
REMARK   12  A    between atoms: O_22  and  C_23 
REMARK   13  A    between atoms: C_29  and  O_31 
ROOT
HETATM    1  C   UNK N   1      32.523  21.248  -5.358  0.00  0.00     0.178 C 
ENDROOT
BRANCH   1   2
HETATM    2  O   UNK N   1      31.449  20.383  -5.364  0.00  0.00    -0.351 OA
BRANCH   2   3
HETATM    3  C   UNK N   1      30.373  20.564  -6.167  0.00  0.00     0.068 A 
HETATM    4  C   UNK N   1      29.639  21.752  -6.072  0.00  0.00     0.037 A 
HETATM    5  C   UNK N   1      28.544  21.972  -6.916  0.00  0.00     0.010 A 
HETATM    6  C   UNK N   1      28.160  20.995  -7.843  0.00  0.00    -0.055 A 
HETATM    7  C   UNK N   1      28.891  19.807  -7.938  0.00  0.00     0.010 A 
HETATM    8  C   UNK N   1      29.987  19.588  -7.101  0.00  0.00     0.037 A 
BRANCH   6   9
HETATM    9  C   UNK N   1      27.069  21.290  -8.825  0.00  0.00     0.081 C 
BRANCH   9  10
HETATM   10  C   UNK N   1      26.208  22.535  -8.577  0.00  0.00     0.222 C 
BRANCH  10  11
HETATM   11  O   UNK N   1      25.737  22.979  -9.818  0.00  0.00    -0.380 OA
HETATM   12  C   UNK N   1      26.364  22.165 -10.762  0.00  0.00     0.202 C 
ENDBRANCH  10  11
BRANCH  10  13
HETATM   13  C   UNK N   1      25.048  22.319  -7.639  0.00  0.00     0.170 C 
HETATM   14  O   UNK N   1      25.118  22.684  -6.480  0.00  0.00    -0.648 OA
BRANCH  13  15
HETATM   15  O   UNK N   1      23.899  21.778  -8.095  0.00  0.00    -0.774 OA
HETATM   16  H   UNK N   1      23.031  21.900  -7.762  0.00  0.00     0.167 HD
ENDBRANCH  13  15
ENDBRANCH  10  13
ENDBRANCH   9  10
ENDBRANCH   6   9
ENDBRANCH   2   3
ENDBRANCH   1   2
BRANCH   1  17
HETATM   17  C   UNK N   1      32.994  21.505  -3.936  0.00  0.00     0.053 C 
BRANCH  17  18
HETATM   18  C   UNK N   1      31.829  21.488  -2.953  0.00  0.00     0.178 C 
BRANCH  18  19
HETATM   19  O   UNK N   1      31.539  22.764  -2.511  0.00  0.00    -0.351 OA
BRANCH  19  20
HETATM   20  C   UNK N   1      30.504  23.488  -2.994  0.00  0.00     0.068 A 
HETATM   21  C   UNK N   1      29.183  23.179  -2.644  0.00  0.00     0.039 A 
HETATM   22  C   UNK N   1      28.127  23.893  -3.199  0.00  0.00     0.040 A 
HETATM   23  C   UNK N   1      28.373  24.932  -4.110  0.00  0.00     0.076 A 
HETATM   24  C   UNK N   1      29.691  25.276  -4.425  0.00  0.00     0.040 A 
HETATM   25  C   UNK N   1      30.755  24.547  -3.876  0.00  0.00     0.039 A 
BRANCH  23  26
HETATM   26  O   UNK N   1      27.342  25.582  -4.706  0.00  0.00    -0.311 OA
BRANCH  26  27
HETATM   27  C   UNK N   1      27.195  26.934  -4.672  0.00  0.00     0.076 A 
HETATM   28  C   UNK N   1      27.578  27.734  -5.768  0.00  0.00     0.037 A 
HETATM   29  C   UNK N   1      27.453  29.122  -5.714  0.00  0.00     0.003 A 
HETATM   30  C   UNK N   1      26.944  29.727  -4.564  0.00  0.00     0.000 A 
HETATM   31  C   UNK N   1      26.567  28.944  -3.469  0.00  0.00     0.003 A 
HETATM   32  C   UNK N   1      26.699  27.551  -3.519  0.00  0.00     0.037 A 
ENDBRANCH  26  27
ENDBRANCH  23  26
ENDBRANCH  19  20
ENDBRANCH  18  19
ENDBRANCH  17  18
ENDBRANCH   1  17
TORSDOF 13
ENDMDL
MODEL 4
REMARK VINA RESULT:      -6.2     11.397     15.207
REMARK  13 active torsions:
REMARK  status: ('A' for Active; 'I' for Inactive)
REMARK    1  A    between atoms: C_3  and  O_2 
REMARK    2  A    between atoms: C_3  and  C_4 
REMARK    3  A    between atoms: C_3  and  C_29 
REMARK    4  A    between atoms: C_4  and  C_5 
REMARK    5  A    between atoms: C_8  and  O_11 
REMARK    6  A    between atoms: O_11  and  C_12 
REMARK    7  A    between atoms: C_12  and  C_13 
REMARK    8  A    between atoms: C_13  and  C_14 
REMARK    9  A    between atoms: C_14  and  O_15 
REMARK   10  A    between atoms: O_15  and  C_16 
REMARK   11  A    between atoms: C_19  and  O_22 
REMARK   12  A    between atoms: O_22  and  C_23 
REMARK   13  A    between atoms: C_29  and  O_31 
ROOT
HETATM    1  C   UNK N   1      20.399  14.209   7.060  0.00  0.00     0.178 C 
ENDROOT
BRANCH   1   2
HETATM    2  O   UNK N   1      19.828  15.433   6.779  0.00  0.00    -0.351 OA
BRANCH   2   3
HETATM    3  C   UNK N   1      20.378  16.309   5.905  0.00  0.00     0.068 A 
HETATM    4  C   UNK N   1      20.949  17.493   6.388  0.00  0.00     0.037 A 
HETATM    5  C   UNK N   1      21.552  18.396   5.504  0.00  0.00     0.010 A 
HETATM    6  C   UNK N   1      21.567  18.133   4.129  0.00  0.00    -0.055 A 
HETATM    7  C   UNK N   1      20.996  16.952   3.644  0.00  0.00     0.010 A 
HETATM    8  C   UNK N   1      20.399  16.048   4.524  0.00  0.00     0.037 A 
BRANCH   6   9
HETATM    9  C   UNK N   1      22.322  19.040   3.207  0.00  0.00     0.081 C 
BRANCH   9  10
HETATM   10  C   UNK N   1      21.588  20.273   2.666  0.00  0.00     0.222 C 
BRANCH  10  11
HETATM   11  O   UNK N   1      22.483  21.348   2.698  0.00  0.00    -0.380 OA
HETATM   12  C   UNK N   1      23.743  20.772   2.863  0.00  0.00     0.202 C 
ENDBRANCH  10  11
BRANCH  10  13
HETATM   13  C   UNK N   1      21.036  20.112   1.271  0.00  0.00     0.170 C 
HETATM   14  O   UNK N   1      21.287  20.937   0.412  0.00  0.00    -0.648 OA
BRANCH  13  15
HETATM   15  O   UNK N   1      20.315  19.018   0.950  0.00  0.00    -0.774 OA
HETATM   16  H   UNK N   1      20.261  18.585   0.120  0.00  0.00     0.167 HD
ENDBRANCH  13  15
ENDBRANCH  10  13
ENDBRANCH   9  10
ENDBRANCH   6   9
ENDBRANCH   2   3
ENDBRANCH   1   2
BRANCH   1  17
HETATM   17  C   UNK N   1      21.238  14.289   8.324  0.00  0.00     0.053 C 
BRANCH  17  18
HETATM   18  C   UNK N   1      22.667  13.825   8.073  0.00  0.00     0.178 C 
BRANCH  18  19
HETATM   19  O   UNK N   1      23.041  14.067   6.766  0.00  0.00    -0.351 OA
BRANCH  19  20
HETATM   20  C   UNK N   1      24.151  14.768   6.441  0.00  0.00     0.068 A 
HETATM   21  C   UNK N   1      25.367  14.541   7.099  0.00  0.00     0.039 A 
HETATM   22  C   UNK N   1      26.482  15.314   6.797  0.00  0.00     0.040 A 
HETATM   23  C   UNK N   1      26.404  16.326   5.828  0.00  0.00     0.076 A 
HETATM   24  C   UNK N   1      25.206  16.525   5.134  0.00  0.00     0.040 A 
HETATM   25  C   UNK N   1      24.078  15.755   5.448  0.00  0.00     0.039 A 
BRANCH  23  26
HETATM   26  O   UNK N   1      27.470  17.128   5.583  0.00  0.00    -0.311 OA
BRANCH  26  27
HETATM   27  C   UNK N   1      27.399  18.486   5.594  0.00  0.00     0.076 A 
HETATM   28  C   UNK N   1      27.492  19.209   6.801  0.00  0.00     0.037 A 
HETATM   29  C   UNK N   1      27.387  20.599   6.808  0.00  0.00     0.003 A 
HETATM   30  C   UNK N   1      27.187  21.284   5.609  0.00  0.00     0.000 A 
HETATM   31  C   UNK N   1      27.087  20.577   4.406  0.00  0.00     0.003 A 
HETATM   32  C   UNK N   1      27.185  19.181   4.399  0.00  0.00     0.037 A 
ENDBRANCH  26  27
ENDBRANCH  23  26
ENDBRANCH  19  20
ENDBRANCH  18  19
ENDBRANCH  17  18
ENDBRANCH   1  17
TORSDOF 13
ENDMDL
MODEL 5
REMARK VINA RESULT:      -6.1     10.789     13.233
REMARK  13 active torsions:
REMARK  status: ('A' for Active; 'I' for Inactive)
REMARK    1  A    between atoms: C_3  and  O_2 
REMARK    2  A    between atoms: C_3  and  C_4 
REMARK    3  A    between atoms: C_3  and  C_29 
REMARK    4  A    between atoms: C_4  and  C_5 
REMARK    5  A    between atoms: C_8  and  O_11 
REMARK    6  A    between atoms: O_11  and  C_12 
REMARK    7  A    between atoms: C_12  and  C_13 
REMARK    8  A    between atoms: C_13  and  C_14 
REMARK    9  A    between atoms: C_14  and  O_15 
REMARK   10  A    between atoms: O_15  and  C_16 
REMARK   11  A    between atoms: C_19  and  O_22 
REMARK   12  A    between atoms: O_22  and  C_23 
REMARK   13  A    between atoms: C_29  and  O_31 
ROOT
HETATM    1  C   UNK N   1      27.492  20.593   6.787  0.00  0.00     0.178 C 
ENDROOT
BRANCH   1   2
HETATM    2  O   UNK N   1      27.626  19.423   7.505  0.00  0.00    -0.351 OA
BRANCH   2   3
HETATM    3  C   UNK N   1      28.797  18.745   7.579  0.00  0.00     0.068 A 
HETATM    4  C   UNK N   1      29.626  18.928   8.691  0.00  0.00     0.037 A 
HETATM    5  C   UNK N   1      30.824  18.212   8.803  0.00  0.00     0.010 A 
HETATM    6  C   UNK N   1      31.213  17.326   7.790  0.00  0.00    -0.055 A 
HETATM    7  C   UNK N   1      30.387  17.143   6.677  0.00  0.00     0.010 A 
HETATM    8  C   UNK N   1      29.190  17.852   6.567  0.00  0.00     0.037 A 
BRANCH   6   9
HETATM    9  C   UNK N   1      32.429  16.473   7.976  0.00  0.00     0.081 C 
BRANCH   9  10
HETATM   10  C   UNK N   1      33.780  17.059   7.546  0.00  0.00     0.222 C 
BRANCH  10  11
HETATM   11  O   UNK N   1      33.557  17.858   6.419  0.00  0.00    -0.380 OA
HETATM   12  C   UNK N   1      33.829  17.035   5.326  0.00  0.00     0.202 C 
ENDBRANCH  10  11
BRANCH  10  13
HETATM   13  C   UNK N   1      34.480  17.866   8.611  0.00  0.00     0.170 C 
HETATM   14  O   UNK N   1      34.923  18.969   8.354  0.00  0.00    -0.648 OA
BRANCH  13  15
HETATM   15  O   UNK N   1      34.561  17.395   9.874  0.00  0.00    -0.774 OA
HETATM   16  H   UNK N   1      34.698  16.511  10.152  0.00  0.00     0.167 HD
ENDBRANCH  13  15
ENDBRANCH  10  13
ENDBRANCH   9  10
ENDBRANCH   6   9
ENDBRANCH   2   3
ENDBRANCH   1   2
BRANCH   1  17
HETATM   17  C   UNK N   1      26.275  20.526   5.880  0.00  0.00     0.053 C 
BRANCH  17  18
HETATM   18  C   UNK N   1      26.632  19.957   4.513  0.00  0.00     0.178 C 
BRANCH  18  19
HETATM   19  O   UNK N   1      25.683  20.305   3.571  0.00  0.00    -0.351 OA
BRANCH  19  20
HETATM   20  C   UNK N   1      24.422  19.816   3.587  0.00  0.00     0.068 A 
HETATM   21  C   UNK N   1      24.126  18.604   4.226  0.00  0.00     0.039 A 
HETATM   22  C   UNK N   1      22.839  18.084   4.178  0.00  0.00     0.040 A 
HETATM   23  C   UNK N   1      21.821  18.767   3.495  0.00  0.00     0.076 A 
HETATM   24  C   UNK N   1      22.099  20.001   2.898  0.00  0.00     0.040 A 
HETATM   25  C   UNK N   1      23.401  20.519   2.934  0.00  0.00     0.039 A 
BRANCH  23  26
HETATM   26  O   UNK N   1      20.581  18.227   3.387  0.00  0.00    -0.311 OA
BRANCH  26  27
HETATM   27  C   UNK N   1      20.272  17.245   2.498  0.00  0.00     0.076 A 
HETATM   28  C   UNK N   1      20.065  17.538   1.134  0.00  0.00     0.037 A 
HETATM   29  C   UNK N   1      19.719  16.531   0.235  0.00  0.00     0.003 A 
HETATM   30  C   UNK N   1      19.574  15.218   0.686  0.00  0.00     0.000 A 
HETATM   31  C   UNK N   1      19.771  14.917   2.038  0.00  0.00     0.003 A 
HETATM   32  C   UNK N   1      20.112  15.929   2.943  0.00  0.00     0.037 A 
ENDBRANCH  26  27
ENDBRANCH  23  26
ENDBRANCH  19  20
ENDBRANCH  18  19
ENDBRANCH  17  18
ENDBRANCH   1  17
TORSDOF 13
ENDMDL
MODEL 6
REMARK VINA RESULT:      -6.0     10.951     14.367
REMARK  13 active torsions:
REMARK  status: ('A' for Active; 'I' for Inactive)
REMARK    1  A    between atoms: C_3  and  O_2 
REMARK    2  A    between atoms: C_3  and  C_4 
REMARK    3  A    between atoms: C_3  and  C_29 
REMARK    4  A    between atoms: C_4  and  C_5 
REMARK    5  A    between atoms: C_8  and  O_11 
REMARK    6  A    between atoms: O_11  and  C_12 
REMARK    7  A    between atoms: C_12  and  C_13 
REMARK    8  A    between atoms: C_13  and  C_14 
REMARK    9  A    between atoms: C_14  and  O_15 
REMARK   10  A    between atoms: O_15  and  C_16 
REMARK   11  A    between atoms: C_19  and  O_22 
REMARK   12  A    between atoms: O_22  and  C_23 
REMARK   13  A    between atoms: C_29  and  O_31 
ROOT
HETATM    1  C   UNK N   1      33.532  17.981   8.285  0.00  0.00     0.178 C 
ENDROOT
BRANCH   1   2
HETATM    2  O   UNK N   1      32.381  17.561   8.917  0.00  0.00    -0.351 OA
BRANCH   2   3
HETATM    3  C   UNK N   1      31.152  17.710   8.365  0.00  0.00     0.068 A 
HETATM    4  C   UNK N   1      30.182  18.457   9.043  0.00  0.00     0.037 A 
HETATM    5  C   UNK N   1      28.917  18.649   8.474  0.00  0.00     0.010 A 
HETATM    6  C   UNK N   1      28.606  18.076   7.235  0.00  0.00    -0.055 A 
HETATM    7  C   UNK N   1      29.574  17.328   6.557  0.00  0.00     0.010 A 
HETATM    8  C   UNK N   1      30.837  17.139   7.120  0.00  0.00     0.037 A 
BRANCH   6   9
HETATM    9  C   UNK N   1      27.299  18.390   6.577  0.00  0.00     0.081 C 
BRANCH   9  10
HETATM   10  C   UNK N   1      27.179  19.730   5.839  0.00  0.00     0.222 C 
BRANCH  10  11
HETATM   11  O   UNK N   1      26.157  19.603   4.892  0.00  0.00    -0.380 OA
HETATM   12  C   UNK N   1      26.681  20.133   3.713  0.00  0.00     0.202 C 
ENDBRANCH  10  11
BRANCH  10  13
HETATM   13  C   UNK N   1      26.902  20.914   6.732  0.00  0.00     0.170 C 
HETATM   14  O   UNK N   1      27.297  22.022   6.422  0.00  0.00    -0.648 OA
BRANCH  13  15
HETATM   15  O   UNK N   1      26.159  20.762   7.848  0.00  0.00    -0.774 OA
HETATM   16  H   UNK N   1      26.203  20.073   8.482  0.00  0.00     0.167 HD
ENDBRANCH  13  15
ENDBRANCH  10  13
ENDBRANCH   9  10
ENDBRANCH   6   9
ENDBRANCH   2   3
ENDBRANCH   1   2
BRANCH   1  17
HETATM   17  C   UNK N   1      34.632  16.943   8.436  0.00  0.00     0.053 C 
BRANCH  17  18
HETATM   18  C   UNK N   1      34.679  16.004   7.237  0.00  0.00     0.178 C 
BRANCH  18  19
HETATM   19  O   UNK N   1      34.581  16.710   6.054  0.00  0.00    -0.351 OA
BRANCH  19  20
HETATM   20  C   UNK N   1      33.574  16.524   5.172  0.00  0.00     0.068 A 
HETATM   21  C   UNK N   1      32.992  15.261   4.997  0.00  0.00     0.039 A 
HETATM   22  C   UNK N   1      32.001  15.073   4.041  0.00  0.00     0.040 A 
HETATM   23  C   UNK N   1      31.569  16.145   3.245  0.00  0.00     0.076 A 
HETATM   24  C   UNK N   1      32.111  17.418   3.449  0.00  0.00     0.040 A 
HETATM   25  C   UNK N   1      33.120  17.605   4.403  0.00  0.00     0.039 A 
BRANCH  23  26
HETATM   26  O   UNK N   1      30.654  15.948   2.263  0.00  0.00    -0.311 OA
BRANCH  26  27
HETATM   27  C   UNK N   1      29.328  15.766   2.507  0.00  0.00     0.076 A 
HETATM   28  C   UNK N   1      28.612  16.657   3.332  0.00  0.00     0.037 A 
HETATM   29  C   UNK N   1      27.260  16.447   3.602  0.00  0.00     0.003 A 
HETATM   30  C   UNK N   1      26.608  15.343   3.052  0.00  0.00     0.000 A 
HETATM   31  C   UNK N   1      27.309  14.448   2.238  0.00  0.00     0.003 A 
HETATM   32  C   UNK N   1      28.668  14.655   1.972  0.00  0.00     0.037 A 
ENDBRANCH  26  27
ENDBRANCH  23  26
ENDBRANCH  19  20
ENDBRANCH  18  19
ENDBRANCH  17  18
ENDBRANCH   1  17
TORSDOF 13
ENDMDL
MODEL 7
REMARK VINA RESULT:      -6.0     13.037     16.118
REMARK  13 active torsions:
REMARK  status: ('A' for Active; 'I' for Inactive)
REMARK    1  A    between atoms: C_3  and  O_2 
REMARK    2  A    between atoms: C_3  and  C_4 
REMARK    3  A    between atoms: C_3  and  C_29 
REMARK    4  A    between atoms: C_4  and  C_5 
REMARK    5  A    between atoms: C_8  and  O_11 
REMARK    6  A    between atoms: O_11  and  C_12 
REMARK    7  A    between atoms: C_12  and  C_13 
REMARK    8  A    between atoms: C_13  and  C_14 
REMARK    9  A    between atoms: C_14  and  O_15 
REMARK   10  A    between atoms: O_15  and  C_16 
REMARK   11  A    between atoms: C_19  and  O_22 
REMARK   12  A    between atoms: O_22  and  C_23 
REMARK   13  A    between atoms: C_29  and  O_31 
ROOT
HETATM    1  C   UNK N   1      20.494  14.704   9.297  0.00  0.00     0.178 C 
ENDROOT
BRANCH   1   2
HETATM    2  O   UNK N   1      19.915  14.583   8.052  0.00  0.00    -0.351 OA
BRANCH   2   3
HETATM    3  C   UNK N   1      20.275  15.361   7.003  0.00  0.00     0.068 A 
HETATM    4  C   UNK N   1      21.153  16.430   7.212  0.00  0.00     0.037 A 
HETATM    5  C   UNK N   1      21.563  17.226   6.136  0.00  0.00     0.010 A 
HETATM    6  C   UNK N   1      21.078  16.973   4.847  0.00  0.00    -0.055 A 
HETATM    7  C   UNK N   1      20.199  15.907   4.636  0.00  0.00     0.010 A 
HETATM    8  C   UNK N   1      19.793  15.109   5.707  0.00  0.00     0.037 A 
BRANCH   6   9
HETATM    9  C   UNK N   1      21.617  17.747   3.684  0.00  0.00     0.081 C 
BRANCH   9  10
HETATM   10  C   UNK N   1      22.053  19.197   3.936  0.00  0.00     0.222 C 
BRANCH  10  11
HETATM   11  O   UNK N   1      23.331  19.357   3.390  0.00  0.00    -0.380 OA
HETATM   12  C   UNK N   1      24.209  18.873   4.360  0.00  0.00     0.202 C 
ENDBRANCH  10  11
BRANCH  10  13
HETATM   13  C   UNK N   1      21.121  20.238   3.369  0.00  0.00     0.170 C 
HETATM   14  O   UNK N   1      19.919  20.141   3.533  0.00  0.00    -0.648 OA
BRANCH  13  15
HETATM   15  O   UNK N   1      21.619  21.318   2.732  0.00  0.00    -0.774 OA
HETATM   16  H   UNK N   1      22.045  21.351   1.898  0.00  0.00     0.167 HD
ENDBRANCH  13  15
ENDBRANCH  10  13
ENDBRANCH   9  10
ENDBRANCH   6   9
ENDBRANCH   2   3
ENDBRANCH   1   2
BRANCH   1  17
HETATM   17  C   UNK N   1      21.040  13.365   9.764  0.00  0.00     0.053 C 
BRANCH  17  18
HETATM   18  C   UNK N   1      22.563  13.366   9.795  0.00  0.00     0.178 C 
BRANCH  18  19
HETATM   19  O   UNK N   1      23.077  12.634   8.743  0.00  0.00    -0.351 OA
BRANCH  19  20
HETATM   20  C   UNK N   1      23.317  13.173   7.526  0.00  0.00     0.068 A 
HETATM   21  C   UNK N   1      24.195  14.255   7.375  0.00  0.00     0.039 A 
HETATM   22  C   UNK N   1      24.380  14.837   6.127  0.00  0.00     0.040 A 
HETATM   23  C   UNK N   1      23.697  14.345   5.005  0.00  0.00     0.076 A 
HETATM   24  C   UNK N   1      22.857  13.234   5.140  0.00  0.00     0.040 A 
HETATM   25  C   UNK N   1      22.659  12.656   6.401  0.00  0.00     0.039 A 
BRANCH  23  26
HETATM   26  O   UNK N   1      23.822  14.956   3.799  0.00  0.00    -0.311 OA
BRANCH  26  27
HETATM   27  C   UNK N   1      23.593  14.324   2.617  0.00  0.00     0.076 A 
HETATM   28  C   UNK N   1      24.577  13.503   2.029  0.00  0.00     0.037 A 
HETATM   29  C   UNK N   1      24.345  12.883   0.802  0.00  0.00     0.003 A 
HETATM   30  C   UNK N   1      23.129  13.076   0.147  0.00  0.00     0.000 A 
HETATM   31  C   UNK N   1      22.148  13.894   0.717  0.00  0.00     0.003 A 
HETATM   32  C   UNK N   1      22.382  14.522   1.946  0.00  0.00     0.037 A 
ENDBRANCH  26  27
ENDBRANCH  23  26
ENDBRANCH  19  20
ENDBRANCH  18  19
ENDBRANCH  17  18
ENDBRANCH   1  17
TORSDOF 13
ENDMDL
MODEL 8
REMARK VINA RESULT:      -6.0      1.850      6.108
REMARK  13 active torsions:
REMARK  status: ('A' for Active; 'I' for Inactive)
REMARK    1  A    between atoms: C_3  and  O_2 
REMARK    2  A    between atoms: C_3  and  C_4 
REMARK    3  A    between atoms: C_3  and  C_29 
REMARK    4  A    between atoms: C_4  and  C_5 
REMARK    5  A    between atoms: C_8  and  O_11 
REMARK    6  A    between atoms: O_11  and  C_12 
REMARK    7  A    between atoms: C_12  and  C_13 
REMARK    8  A    between atoms: C_13  and  C_14 
REMARK    9  A    between atoms: C_14  and  O_15 
REMARK   10  A    between atoms: O_15  and  C_16 
REMARK   11  A    between atoms: C_19  and  O_22 
REMARK   12  A    between atoms: O_22  and  C_23 
REMARK   13  A    between atoms: C_29  and  O_31 
ROOT
HETATM    1  C   UNK N   1      26.498  21.091  -7.941  0.00  0.00     0.178 C 
ENDROOT
BRANCH   1   2
HETATM    2  O   UNK N   1      27.755  21.516  -8.315  0.00  0.00    -0.351 OA
BRANCH   2   3
HETATM    3  C   UNK N   1      28.764  21.677  -7.425  0.00  0.00     0.068 A 
HETATM    4  C   UNK N   1      29.098  22.965  -6.993  0.00  0.00     0.037 A 
HETATM    5  C   UNK N   1      30.115  23.150  -6.049  0.00  0.00     0.010 A 
HETATM    6  C   UNK N   1      30.822  22.049  -5.549  0.00  0.00    -0.055 A 
HETATM    7  C   UNK N   1      30.490  20.761  -5.980  0.00  0.00     0.010 A 
HETATM    8  C   UNK N   1      29.473  20.575  -6.917  0.00  0.00     0.037 A 
BRANCH   6   9
HETATM    9  C   UNK N   1      31.819  22.244  -4.450  0.00  0.00     0.081 C 
BRANCH   9  10
HETATM   10  C   UNK N   1      31.353  21.978  -3.012  0.00  0.00     0.222 C 
BRANCH  10  11
HETATM   11  O   UNK N   1      32.467  21.562  -2.275  0.00  0.00    -0.380 OA
HETATM   12  C   UNK N   1      33.270  20.868  -3.181  0.00  0.00     0.202 C 
ENDBRANCH  10  11
BRANCH  10  13
HETATM   13  C   UNK N   1      30.705  23.159  -2.335  0.00  0.00     0.170 C 
HETATM   14  O   UNK N   1      30.692  24.248  -2.880  0.00  0.00    -0.648 OA
BRANCH  13  15
HETATM   15  O   UNK N   1      30.079  23.002  -1.150  0.00  0.00    -0.774 OA
HETATM   16  H   UNK N   1      29.309  22.500  -0.967  0.00  0.00     0.167 HD
ENDBRANCH  13  15
ENDBRANCH  10  13
ENDBRANCH   9  10
ENDBRANCH   6   9
ENDBRANCH   2   3
ENDBRANCH   1   2
BRANCH   1  17
HETATM   17  C   UNK N   1      25.527  22.260  -7.908  0.00  0.00     0.053 C 
BRANCH  17  18
HETATM   18  C   UNK N   1      25.555  22.968  -6.559  0.00  0.00     0.178 C 
BRANCH  18  19
HETATM   19  O   UNK N   1      25.236  24.305  -6.699  0.00  0.00    -0.351 OA
BRANCH  19  20
HETATM   20  C   UNK N   1      25.600  25.241  -5.794  0.00  0.00     0.068 A 
HETATM   21  C   UNK N   1      26.267  24.885  -4.614  0.00  0.00     0.039 A 
HETATM   22  C   UNK N   1      26.576  25.852  -3.665  0.00  0.00     0.040 A 
HETATM   23  C   UNK N   1      26.229  27.195  -3.880  0.00  0.00     0.076 A 
HETATM   24  C   UNK N   1      25.608  27.564  -5.077  0.00  0.00     0.040 A 
HETATM   25  C   UNK N   1      25.283  26.587  -6.027  0.00  0.00     0.039 A 
BRANCH  23  26
HETATM   26  O   UNK N   1      26.467  28.128  -2.924  0.00  0.00    -0.311 OA
BRANCH  26  27
HETATM   27  C   UNK N   1      27.677  28.725  -2.750  0.00  0.00     0.076 A 
HETATM   28  C   UNK N   1      28.765  28.421  -3.595  0.00  0.00     0.037 A 
HETATM   29  C   UNK N   1      30.010  29.013  -3.391  0.00  0.00     0.003 A 
HETATM   30  C   UNK N   1      30.185  29.916  -2.342  0.00  0.00     0.000 A 
HETATM   31  C   UNK N   1      29.115  30.220  -1.494  0.00  0.00     0.003 A 
HETATM   32  C   UNK N   1      27.866  29.620  -1.693  0.00  0.00     0.037 A 
ENDBRANCH  26  27
ENDBRANCH  23  26
ENDBRANCH  19  20
ENDBRANCH  18  19
ENDBRANCH  17  18
ENDBRANCH   1  17
TORSDOF 13
ENDMDL
MODEL 9
REMARK VINA RESULT:      -5.9     12.129     15.724
REMARK  13 active torsions:
REMARK  status: ('A' for Active; 'I' for Inactive)
REMARK    1  A    between atoms: C_3  and  O_2 
REMARK    2  A    between atoms: C_3  and  C_4 
REMARK    3  A    between atoms: C_3  and  C_29 
REMARK    4  A    between atoms: C_4  and  C_5 
REMARK    5  A    between atoms: C_8  and  O_11 
REMARK    6  A    between atoms: O_11  and  C_12 
REMARK    7  A    between atoms: C_12  and  C_13 
REMARK    8  A    between atoms: C_13  and  C_14 
REMARK    9  A    between atoms: C_14  and  O_15 
REMARK   10  A    between atoms: O_15  and  C_16 
REMARK   11  A    between atoms: C_19  and  O_22 
REMARK   12  A    between atoms: O_22  and  C_23 
REMARK   13  A    between atoms: C_29  and  O_31 
ROOT
HETATM    1  C   UNK N   1      20.759  14.753   9.162  0.00  0.00     0.178 C 
ENDROOT
BRANCH   1   2
HETATM    2  O   UNK N   1      19.921  15.001   8.095  0.00  0.00    -0.351 OA
BRANCH   2   3
HETATM    3  C   UNK N   1      20.370  15.500   6.918  0.00  0.00     0.068 A 
HETATM    4  C   UNK N   1      19.863  14.987   5.719  0.00  0.00     0.037 A 
HETATM    5  C   UNK N   1      20.289  15.512   4.493  0.00  0.00     0.010 A 
HETATM    6  C   UNK N   1      21.242  16.537   4.457  0.00  0.00    -0.055 A 
HETATM    7  C   UNK N   1      21.751  17.051   5.655  0.00  0.00     0.010 A 
HETATM    8  C   UNK N   1      21.323  16.532   6.878  0.00  0.00     0.037 A 
BRANCH   6   9
HETATM    9  C   UNK N   1      21.598  17.177   3.151  0.00  0.00     0.081 C 
BRANCH   9  10
HETATM   10  C   UNK N   1      20.462  17.813   2.339  0.00  0.00     0.222 C 
BRANCH  10  11
HETATM   11  O   UNK N   1      20.813  19.143   2.087  0.00  0.00    -0.380 OA
HETATM   12  C   UNK N   1      20.329  19.865   3.178  0.00  0.00     0.202 C 
ENDBRANCH  10  11
BRANCH  10  13
HETATM   13  C   UNK N   1      20.152  17.111   1.040  0.00  0.00     0.170 C 
HETATM   14  O   UNK N   1      19.744  15.965   1.043  0.00  0.00    -0.648 OA
BRANCH  13  15
HETATM   15  O   UNK N   1      20.263  17.774  -0.130  0.00  0.00    -0.774 OA
HETATM   16  H   UNK N   1      20.920  18.392  -0.384  0.00  0.00     0.167 HD
ENDBRANCH  13  15
ENDBRANCH  10  13
ENDBRANCH   9  10
ENDBRANCH   6   9
ENDBRANCH   2   3
ENDBRANCH   1   2
BRANCH   1  17
HETATM   17  C   UNK N   1      21.450  13.410   8.996  0.00  0.00     0.053 C 
BRANCH  17  18
HETATM   18  C   UNK N   1      22.903  13.581   8.571  0.00  0.00     0.178 C 
BRANCH  18  19
HETATM   19  O   UNK N   1      23.067  13.261   7.237  0.00  0.00    -0.351 OA
BRANCH  19  20
HETATM   20  C   UNK N   1      23.883  13.955   6.413  0.00  0.00     0.068 A 
HETATM   21  C   UNK N   1      24.881  14.795   6.925  0.00  0.00     0.039 A 
HETATM   22  C   UNK N   1      25.669  15.551   6.065  0.00  0.00     0.040 A 
HETATM   23  C   UNK N   1      25.477  15.478   4.677  0.00  0.00     0.076 A 
HETATM   24  C   UNK N   1      24.516  14.605   4.157  0.00  0.00     0.040 A 
HETATM   25  C   UNK N   1      23.712  13.853   5.025  0.00  0.00     0.039 A 
BRANCH  23  26
HETATM   26  O   UNK N   1      26.197  16.267   3.840  0.00  0.00    -0.311 OA
BRANCH  26  27
HETATM   27  C   UNK N   1      26.141  17.626   3.866  0.00  0.00     0.076 A 
HETATM   28  C   UNK N   1      27.314  18.400   3.984  0.00  0.00     0.037 A 
HETATM   29  C   UNK N   1      27.246  19.791   4.041  0.00  0.00     0.003 A 
HETATM   30  C   UNK N   1      26.005  20.427   3.981  0.00  0.00     0.000 A 
HETATM   31  C   UNK N   1      24.835  19.670   3.871  0.00  0.00     0.003 A 
HETATM   32  C   UNK N   1      24.901  18.272   3.821  0.00  0.00     0.037 A 
ENDBRANCH  26  27
ENDBRANCH  23  26
ENDBRANCH  19  20
ENDBRANCH  18  19
ENDBRANCH  17  18
ENDBRANCH   1  17
TORSDOF 13
ENDMDL
