MODEL 1
REMARK VINA RESULT:      -7.9      0.000      0.000
REMARK  8 active torsions:
REMARK  status: ('A' for Active; 'I' for Inactive)
REMARK    1  A    between atoms: O_2  and  C_3 
REMARK    2  A    between atoms: C_3  and  C_5 
REMARK    3  A    between atoms: N_23  and  C_26 
REMARK    4  A    between atoms: C_26  and  C_27 
REMARK    5  A    between atoms: C_27  and  C_28 
REMARK    6  A    between atoms: C_31  and  O_34 
REMARK    7  A    between atoms: O_34  and  C_35 
REMARK    8  A    between atoms: C_35  and  C_36 
ROOT
HETATM    1  C   UNK N   1      24.132  13.429   6.486  0.00  0.00     0.127 A 
HETATM    2  C   UNK N   1      24.266  12.370   5.620  0.00  0.00     0.125 A 
HETATM    3  N   UNK N   1      23.545  12.646   4.518  0.00  0.00    -0.349 N 
ATOM      4  HN  UNK N   1      23.441  12.055   3.692  1.00  0.00     0.167 HD
HETATM    5  C   UNK N   1      22.987  13.865   4.721  0.00  0.00     0.119 A 
HETATM    6  N   UNK N   1      23.354  14.367   5.913  0.00  0.00    -0.326 N 
HETATM    7  C   UNK N   1      22.955  15.640   6.463  0.00  0.00     0.136 C 
HETATM    8  C   UNK N   1      23.513  16.671   5.528  0.00  0.00     0.060 C 
HETATM    9  C   UNK N   1      22.541  17.001   4.453  0.00  0.00    -0.045 A 
HETATM   10  C   UNK N   1      22.302  18.372   4.272  0.00  0.00     0.008 A 
HETATM   11  C   UNK N   1      21.432  18.831   3.292  0.00  0.00     0.001 A 
HETATM   12  C   UNK N   1      20.786  17.922   2.470  0.00  0.00     0.001 A 
HETATM   13  C   UNK N   1      21.003  16.558   2.642  0.00  0.00     0.013 A 
HETATM   14  C   UNK N   1      21.871  16.036   3.625  0.00  0.00    -0.016 A 
HETATM   15  C   UNK N   1      22.025  14.499   3.743  0.00  0.00     0.021 C 
HETATM   16  C   UNK N   1      21.253  13.627   2.987  0.00  0.00    -0.062 C 
HETATM   17  C   UNK N   1      20.259  14.059   1.950  0.00  0.00     0.065 C 
HETATM   18  C   UNK N   1      20.542  13.298   0.653  0.00  0.00     0.276 C 
HETATM   19  N   UNK N   1      20.745  11.837   0.821  0.00  0.00     0.089 N 
HETATM   20  C   UNK N   1      20.439  11.377   2.182  0.00  0.00     0.276 C 
HETATM   21  C   UNK N   1      21.300  12.126   3.206  0.00  0.00     0.065 C 
ENDROOT
BRANCH  19  22
HETATM   22  C   UNK N   1      22.125  11.419   0.527  0.00  0.00     0.277 C 
BRANCH  22  23
HETATM   23  C   UNK N   1      23.021  12.473  -0.140  0.00  0.00     0.068 C 
BRANCH  23  24
HETATM   24  C   UNK N   1      24.104  12.983   0.746  0.00  0.00    -0.056 A 
HETATM   25  C   UNK N   1      24.196  14.357   0.989  0.00  0.00     0.010 A 
HETATM   26  C   UNK N   1      25.220  14.858   1.794  0.00  0.00     0.037 A 
HETATM   27  C   UNK N   1      26.171  13.991   2.341  0.00  0.00     0.069 A 
HETATM   28  C   UNK N   1      26.074  12.611   2.096  0.00  0.00     0.037 A 
HETATM   29  C   UNK N   1      25.036  12.109   1.312  0.00  0.00     0.010 A 
BRANCH  27  30
HETATM   30  O   UNK N   1      27.177  14.508   3.085  0.00  0.00    -0.345 OA
BRANCH  30  31
HETATM   31  C   UNK N   1      27.128  14.599   4.459  0.00  0.00     0.232 C 
BRANCH  31  32
HETATM   32  C   UNK N   1      27.329  15.991   4.950  0.00  0.00     0.034 A 
HETATM   33  C   UNK N   1      27.860  16.202   6.226  0.00  0.00     0.028 A 
HETATM   34  C   UNK N   1      27.959  17.501   6.725  0.00  0.00     0.016 A 
HETATM   35  C   UNK N   1      27.506  18.571   5.953  0.00  0.00    -0.009 A 
HETATM   36  C   UNK N   1      27.570  19.877   6.444  0.00  0.00     0.013 A 
HETATM   37  C   UNK N   1      26.969  18.321   4.673  0.00  0.00     0.042 A 
HETATM   38  C   UNK N   1      27.098  20.938   5.662  0.00  0.00     0.001 A 
HETATM   39  C   UNK N   1      26.565  20.691   4.392  0.00  0.00     0.002 A 
HETATM   40  C   UNK N   1      26.500  19.385   3.896  0.00  0.00     0.030 A 
HETATM   41  N   UNK N   1      26.893  17.046   4.206  0.00  0.00    -0.357 N 
ATOM     42  HN  UNK N   1      26.501  16.876   3.279  1.00  0.00     0.166 HD
ENDBRANCH  31  32
ENDBRANCH  30  31
ENDBRANCH  27  30
ENDBRANCH  23  24
ENDBRANCH  22  23
ENDBRANCH  19  22
BRANCH   1  43
HETATM   43  C   UNK N   1      24.706  13.466   7.842  0.00  0.00     0.311 C 
HETATM   44  O   UNK N   1      25.652  14.200   8.092  0.00  0.00    -0.258 OA
BRANCH  43  45
HETATM   45  O   UNK N   1      24.128  12.725   8.819  0.00  0.00    -0.321 OA
HETATM   46  C   UNK N   1      23.020  13.149   9.513  0.00  0.00     0.213 C 
ENDBRANCH  43  45
ENDBRANCH   1  43
TORSDOF 8
ENDMDL
MODEL 2
REMARK VINA RESULT:      -7.7      2.746      4.678
REMARK  8 active torsions:
REMARK  status: ('A' for Active; 'I' for Inactive)
REMARK    1  A    between atoms: O_2  and  C_3 
REMARK    2  A    between atoms: C_3  and  C_5 
REMARK    3  A    between atoms: N_23  and  C_26 
REMARK    4  A    between atoms: C_26  and  C_27 
REMARK    5  A    between atoms: C_27  and  C_28 
REMARK    6  A    between atoms: C_31  and  O_34 
REMARK    7  A    between atoms: O_34  and  C_35 
REMARK    8  A    between atoms: C_35  and  C_36 
ROOT
HETATM    1  C   UNK N   1      27.831  17.091   5.814  0.00  0.00     0.127 A 
HETATM    2  C   UNK N   1      27.536  15.749   5.852  0.00  0.00     0.125 A 
HETATM    3  N   UNK N   1      26.232  15.606   5.553  0.00  0.00    -0.349 N 
ATOM      4  HN  UNK N   1      25.709  14.731   5.500  1.00  0.00     0.167 HD
HETATM    5  C   UNK N   1      25.751  16.854   5.333  0.00  0.00     0.119 A 
HETATM    6  N   UNK N   1      26.723  17.773   5.470  0.00  0.00    -0.326 N 
HETATM    7  C   UNK N   1      26.578  19.200   5.308  0.00  0.00     0.136 C 
HETATM    8  C   UNK N   1      26.184  19.401   3.875  0.00  0.00     0.060 C 
HETATM    9  C   UNK N   1      24.707  19.386   3.718  0.00  0.00    -0.045 A 
HETATM   10  C   UNK N   1      24.176  20.472   3.006  0.00  0.00     0.008 A 
HETATM   11  C   UNK N   1      22.813  20.582   2.764  0.00  0.00     0.001 A 
HETATM   12  C   UNK N   1      21.954  19.600   3.231  0.00  0.00     0.001 A 
HETATM   13  C   UNK N   1      22.462  18.521   3.950  0.00  0.00     0.013 A 
HETATM   14  C   UNK N   1      23.836  18.363   4.229  0.00  0.00    -0.016 A 
HETATM   15  C   UNK N   1      24.291  17.133   5.054  0.00  0.00     0.021 C 
HETATM   16  C   UNK N   1      23.379  16.251   5.615  0.00  0.00    -0.062 C 
HETATM   17  C   UNK N   1      21.893  16.343   5.436  0.00  0.00     0.065 C 
HETATM   18  C   UNK N   1      21.368  14.980   4.980  0.00  0.00     0.276 C 
HETATM   19  N   UNK N   1      21.879  13.825   5.759  0.00  0.00     0.089 N 
HETATM   20  C   UNK N   1      22.641  14.236   6.946  0.00  0.00     0.276 C 
HETATM   21  C   UNK N   1      23.818  15.131   6.542  0.00  0.00     0.065 C 
ENDROOT
BRANCH  19  22
HETATM   22  C   UNK N   1      22.759  12.951   4.965  0.00  0.00     0.277 C 
BRANCH  22  23
HETATM   23  C   UNK N   1      22.857  13.275   3.467  0.00  0.00     0.068 C 
BRANCH  23  24
HETATM   24  C   UNK N   1      24.232  13.632   3.022  0.00  0.00    -0.056 A 
HETATM   25  C   UNK N   1      25.299  12.792   3.357  0.00  0.00     0.010 A 
HETATM   26  C   UNK N   1      26.598  13.125   2.973  0.00  0.00     0.037 A 
HETATM   27  C   UNK N   1      26.843  14.310   2.273  0.00  0.00     0.069 A 
HETATM   28  C   UNK N   1      25.768  15.151   1.936  0.00  0.00     0.037 A 
HETATM   29  C   UNK N   1      24.467  14.806   2.299  0.00  0.00     0.010 A 
BRANCH  27  30
HETATM   30  O   UNK N   1      28.117  14.628   1.948  0.00  0.00    -0.345 OA
BRANCH  30  31
HETATM   31  C   UNK N   1      29.183  13.777   2.155  0.00  0.00     0.232 C 
BRANCH  31  32
HETATM   32  C   UNK N   1      30.135  14.289   3.180  0.00  0.00     0.034 A 
HETATM   33  C   UNK N   1      30.161  13.703   4.449  0.00  0.00     0.028 A 
HETATM   34  C   UNK N   1      30.982  14.242   5.440  0.00  0.00     0.016 A 
HETATM   35  C   UNK N   1      31.749  15.372   5.158  0.00  0.00    -0.009 A 
HETATM   36  C   UNK N   1      32.557  15.945   6.143  0.00  0.00     0.013 A 
HETATM   37  C   UNK N   1      31.693  15.942   3.869  0.00  0.00     0.042 A 
HETATM   38  C   UNK N   1      33.310  17.087   5.848  0.00  0.00     0.001 A 
HETATM   39  C   UNK N   1      33.255  17.654   4.570  0.00  0.00     0.002 A 
HETATM   40  C   UNK N   1      32.448  17.083   3.580  0.00  0.00     0.030 A 
HETATM   41  N   UNK N   1      30.892  15.391   2.918  0.00  0.00    -0.357 N 
ATOM     42  HN  UNK N   1      30.857  15.811   1.989  1.00  0.00     0.166 HD
ENDBRANCH  31  32
ENDBRANCH  30  31
ENDBRANCH  27  30
ENDBRANCH  23  24
ENDBRANCH  22  23
ENDBRANCH  19  22
BRANCH   1  43
HETATM   43  C   UNK N   1      29.143  17.659   6.169  0.00  0.00     0.311 C 
HETATM   44  O   UNK N   1      29.787  18.289   5.341  0.00  0.00    -0.258 OA
BRANCH  43  45
HETATM   45  O   UNK N   1      29.593  17.528   7.441  0.00  0.00    -0.321 OA
HETATM   46  C   UNK N   1      28.911  18.031   8.524  0.00  0.00     0.213 C 
ENDBRANCH  43  45
ENDBRANCH   1  43
TORSDOF 8
ENDMDL
MODEL 3
REMARK VINA RESULT:      -7.6     13.245     17.084
REMARK  8 active torsions:
REMARK  status: ('A' for Active; 'I' for Inactive)
REMARK    1  A    between atoms: O_2  and  C_3 
REMARK    2  A    between atoms: C_3  and  C_5 
REMARK    3  A    between atoms: N_23  and  C_26 
REMARK    4  A    between atoms: C_26  and  C_27 
REMARK    5  A    between atoms: C_27  and  C_28 
REMARK    6  A    between atoms: C_31  and  O_34 
REMARK    7  A    between atoms: O_34  and  C_35 
REMARK    8  A    between atoms: C_35  and  C_36 
ROOT
HETATM    1  C   UNK N   1      26.674  24.907  -7.910  0.00  0.00     0.127 A 
HETATM    2  C   UNK N   1      27.908  24.828  -8.511  0.00  0.00     0.125 A 
HETATM    3  N   UNK N   1      28.559  25.980  -8.269  0.00  0.00    -0.349 N 
ATOM      4  HN  UNK N   1      29.497  26.230  -8.583  1.00  0.00     0.167 HD
HETATM    5  C   UNK N   1      27.723  26.742  -7.522  0.00  0.00     0.119 A 
HETATM    6  N   UNK N   1      26.572  26.092  -7.276  0.00  0.00    -0.326 N 
HETATM    7  C   UNK N   1      25.453  26.592  -6.514  0.00  0.00     0.136 C 
HETATM    8  C   UNK N   1      25.977  26.796  -5.124  0.00  0.00     0.060 C 
HETATM    9  C   UNK N   1      26.516  28.170  -4.950  0.00  0.00    -0.045 A 
HETATM   10  C   UNK N   1      26.032  28.857  -3.827  0.00  0.00     0.008 A 
HETATM   11  C   UNK N   1      26.461  30.143  -3.526  0.00  0.00     0.001 A 
HETATM   12  C   UNK N   1      27.389  30.765  -4.346  0.00  0.00     0.001 A 
HETATM   13  C   UNK N   1      27.871  30.101  -5.471  0.00  0.00     0.013 A 
HETATM   14  C   UNK N   1      27.465  28.798  -5.827  0.00  0.00    -0.016 A 
HETATM   15  C   UNK N   1      28.051  28.160  -7.111  0.00  0.00     0.021 C 
HETATM   16  C   UNK N   1      28.873  28.874  -7.973  0.00  0.00    -0.062 C 
HETATM   17  C   UNK N   1      29.331  30.282  -7.733  0.00  0.00     0.065 C 
HETATM   18  C   UNK N   1      30.851  30.337  -7.892  0.00  0.00     0.276 C 
HETATM   19  N   UNK N   1      31.374  29.659  -9.104  0.00  0.00     0.089 N 
HETATM   20  C   UNK N   1      30.307  29.235 -10.019  0.00  0.00     0.276 C 
HETATM   21  C   UNK N   1      29.329  28.298  -9.302  0.00  0.00     0.065 C 
ENDROOT
BRANCH  19  22
HETATM   22  C   UNK N   1      32.169  28.461  -8.785  0.00  0.00     0.277 C 
BRANCH  22  23
HETATM   23  C   UNK N   1      32.683  28.357  -7.343  0.00  0.00     0.068 C 
BRANCH  23  24
HETATM   24  C   UNK N   1      31.885  27.435  -6.488  0.00  0.00    -0.056 A 
HETATM   25  C   UNK N   1      31.275  27.931  -5.333  0.00  0.00     0.010 A 
HETATM   26  C   UNK N   1      30.546  27.077  -4.504  0.00  0.00     0.037 A 
HETATM   27  C   UNK N   1      30.443  25.717  -4.814  0.00  0.00     0.069 A 
HETATM   28  C   UNK N   1      31.056  25.222  -5.978  0.00  0.00     0.037 A 
HETATM   29  C   UNK N   1      31.763  26.082  -6.818  0.00  0.00     0.010 A 
BRANCH  27  30
HETATM   30  O   UNK N   1      29.764  24.904  -3.972  0.00  0.00    -0.345 OA
BRANCH  30  31
HETATM   31  C   UNK N   1      28.697  24.128  -4.371  0.00  0.00     0.232 C 
BRANCH  31  32
HETATM   32  C   UNK N   1      29.122  22.857  -5.022  0.00  0.00     0.034 A 
HETATM   33  C   UNK N   1      30.148  22.099  -4.449  0.00  0.00     0.028 A 
HETATM   34  C   UNK N   1      30.615  20.961  -5.107  0.00  0.00     0.016 A 
HETATM   35  C   UNK N   1      30.066  20.606  -6.339  0.00  0.00    -0.009 A 
HETATM   36  C   UNK N   1      30.537  19.486  -7.030  0.00  0.00     0.013 A 
HETATM   37  C   UNK N   1      29.038  21.398  -6.892  0.00  0.00     0.042 A 
HETATM   38  C   UNK N   1      29.986  19.152  -8.272  0.00  0.00     0.001 A 
HETATM   39  C   UNK N   1      28.966  19.937  -8.822  0.00  0.00     0.002 A 
HETATM   40  C   UNK N   1      28.491  21.058  -8.134  0.00  0.00     0.030 A 
HETATM   41  N   UNK N   1      28.594  22.497  -6.225  0.00  0.00    -0.357 N 
ATOM     42  HN  UNK N   1      27.852  23.064  -6.635  1.00  0.00     0.166 HD
ENDBRANCH  31  32
ENDBRANCH  30  31
ENDBRANCH  27  30
ENDBRANCH  23  24
ENDBRANCH  22  23
ENDBRANCH  19  22
BRANCH   1  43
HETATM   43  C   UNK N   1      25.632  23.873  -8.021  0.00  0.00     0.311 C 
HETATM   44  O   UNK N   1      24.793  23.934  -8.910  0.00  0.00    -0.258 OA
BRANCH  43  45
HETATM   45  O   UNK N   1      25.658  22.821  -7.166  0.00  0.00    -0.321 OA
HETATM   46  C   UNK N   1      24.882  21.700  -7.346  0.00  0.00     0.213 C 
ENDBRANCH  43  45
ENDBRANCH   1  43
TORSDOF 8
ENDMDL
MODEL 4
REMARK VINA RESULT:      -7.6      2.578      4.611
REMARK  8 active torsions:
REMARK  status: ('A' for Active; 'I' for Inactive)
REMARK    1  A    between atoms: O_2  and  C_3 
REMARK    2  A    between atoms: C_3  and  C_5 
REMARK    3  A    between atoms: N_23  and  C_26 
REMARK    4  A    between atoms: C_26  and  C_27 
REMARK    5  A    between atoms: C_27  and  C_28 
REMARK    6  A    between atoms: C_31  and  O_34 
REMARK    7  A    between atoms: O_34  and  C_35 
REMARK    8  A    between atoms: C_35  and  C_36 
ROOT
HETATM    1  C   UNK N   1      26.574  17.343   5.410  0.00  0.00     0.127 A 
HETATM    2  C   UNK N   1      26.247  16.026   5.627  0.00  0.00     0.125 A 
HETATM    3  N   UNK N   1      24.914  15.905   5.496  0.00  0.00    -0.349 N 
ATOM      4  HN  UNK N   1      24.364  15.052   5.599  1.00  0.00     0.167 HD
HETATM    5  C   UNK N   1      24.446  17.142   5.198  0.00  0.00     0.119 A 
HETATM    6  N   UNK N   1      25.452  18.030   5.122  0.00  0.00    -0.326 N 
HETATM    7  C   UNK N   1      25.329  19.437   4.824  0.00  0.00     0.136 C 
HETATM    8  C   UNK N   1      24.775  19.502   3.432  0.00  0.00     0.060 C 
HETATM    9  C   UNK N   1      23.290  19.531   3.447  0.00  0.00    -0.045 A 
HETATM   10  C   UNK N   1      22.710  20.557   2.686  0.00  0.00     0.008 A 
HETATM   11  C   UNK N   1      21.331  20.697   2.591  0.00  0.00     0.001 A 
HETATM   12  C   UNK N   1      20.506  19.805   3.258  0.00  0.00     0.001 A 
HETATM   13  C   UNK N   1      21.064  18.787   4.027  0.00  0.00     0.013 A 
HETATM   14  C   UNK N   1      22.457  18.603   4.163  0.00  0.00    -0.016 A 
HETATM   15  C   UNK N   1      22.972  17.450   5.059  0.00  0.00     0.021 C 
HETATM   16  C   UNK N   1      22.107  16.669   5.813  0.00  0.00    -0.062 C 
HETATM   17  C   UNK N   1      20.614  16.802   5.797  0.00  0.00     0.065 C 
HETATM   18  C   UNK N   1      20.001  15.421   5.554  0.00  0.00     0.276 C 
HETATM   19  N   UNK N   1      20.568  14.334   6.390  0.00  0.00     0.089 N 
HETATM   20  C   UNK N   1      21.475  14.836   7.431  0.00  0.00     0.276 C 
HETATM   21  C   UNK N   1      22.621  15.635   6.800  0.00  0.00     0.065 C 
ENDROOT
BRANCH  19  22
HETATM   22  C   UNK N   1      21.323  13.347   5.601  0.00  0.00     0.277 C 
BRANCH  22  23
HETATM   23  C   UNK N   1      21.351  13.577   4.084  0.00  0.00     0.068 C 
BRANCH  23  24
HETATM   24  C   UNK N   1      22.726  13.699   3.523  0.00  0.00    -0.056 A 
HETATM   25  C   UNK N   1      23.725  12.830   3.972  0.00  0.00     0.010 A 
HETATM   26  C   UNK N   1      25.026  12.947   3.480  0.00  0.00     0.037 A 
HETATM   27  C   UNK N   1      25.340  13.947   2.555  0.00  0.00     0.069 A 
HETATM   28  C   UNK N   1      24.332  14.816   2.104  0.00  0.00     0.037 A 
HETATM   29  C   UNK N   1      23.027  14.684   2.578  0.00  0.00     0.010 A 
BRANCH  27  30
HETATM   30  O   UNK N   1      26.617  14.062   2.124  0.00  0.00    -0.345 OA
BRANCH  30  31
HETATM   31  C   UNK N   1      27.310  15.254   2.130  0.00  0.00     0.232 C 
BRANCH  31  32
HETATM   32  C   UNK N   1      28.613  15.157   2.846  0.00  0.00     0.034 A 
HETATM   33  C   UNK N   1      28.754  14.249   3.899  0.00  0.00     0.028 A 
HETATM   34  C   UNK N   1      29.940  14.224   4.634  0.00  0.00     0.016 A 
HETATM   35  C   UNK N   1      30.962  15.121   4.321  0.00  0.00    -0.009 A 
HETATM   36  C   UNK N   1      32.147  15.133   5.060  0.00  0.00     0.013 A 
HETATM   37  C   UNK N   1      30.782  16.029   3.256  0.00  0.00     0.042 A 
HETATM   38  C   UNK N   1      33.156  16.049   4.742  0.00  0.00     0.001 A 
HETATM   39  C   UNK N   1      32.979  16.950   3.687  0.00  0.00     0.002 A 
HETATM   40  C   UNK N   1      31.795  16.941   2.943  0.00  0.00     0.030 A 
HETATM   41  N   UNK N   1      29.620  16.025   2.549  0.00  0.00    -0.357 N 
ATOM     42  HN  UNK N   1      29.500  16.687   1.783  1.00  0.00     0.166 HD
ENDBRANCH  31  32
ENDBRANCH  30  31
ENDBRANCH  27  30
ENDBRANCH  23  24
ENDBRANCH  22  23
ENDBRANCH  19  22
BRANCH   1  43
HETATM   43  C   UNK N   1      27.934  17.892   5.548  0.00  0.00     0.311 C 
HETATM   44  O   UNK N   1      28.566  18.233   4.557  0.00  0.00    -0.258 OA
BRANCH  43  45
HETATM   45  O   UNK N   1      28.445  18.073   6.790  0.00  0.00    -0.321 OA
HETATM   46  C   UNK N   1      28.132  19.162   7.569  0.00  0.00     0.213 C 
ENDBRANCH  43  45
ENDBRANCH   1  43
TORSDOF 8
ENDMDL
MODEL 5
REMARK VINA RESULT:      -7.4      1.692      2.294
REMARK  8 active torsions:
REMARK  status: ('A' for Active; 'I' for Inactive)
REMARK    1  A    between atoms: O_2  and  C_3 
REMARK    2  A    between atoms: C_3  and  C_5 
REMARK    3  A    between atoms: N_23  and  C_26 
REMARK    4  A    between atoms: C_26  and  C_27 
REMARK    5  A    between atoms: C_27  and  C_28 
REMARK    6  A    between atoms: C_31  and  O_34 
REMARK    7  A    between atoms: O_34  and  C_35 
REMARK    8  A    between atoms: C_35  and  C_36 
ROOT
HETATM    1  C   UNK N   1      22.789  12.911   7.059  0.00  0.00     0.127 A 
HETATM    2  C   UNK N   1      23.068  11.952   6.113  0.00  0.00     0.125 A 
HETATM    3  N   UNK N   1      22.652  12.417   4.921  0.00  0.00    -0.349 N 
ATOM      4  HN  UNK N   1      22.717  11.938   4.022  1.00  0.00     0.167 HD
HETATM    5  C   UNK N   1      22.131  13.647   5.151  0.00  0.00     0.119 A 
HETATM    6  N   UNK N   1      22.226  13.973   6.452  0.00  0.00    -0.326 N 
HETATM    7  C   UNK N   1      21.779  15.203   7.059  0.00  0.00     0.136 C 
HETATM    8  C   UNK N   1      22.604  16.283   6.427  0.00  0.00     0.060 C 
HETATM    9  C   UNK N   1      21.941  16.820   5.210  0.00  0.00    -0.045 A 
HETATM   10  C   UNK N   1      21.830  18.218   5.164  0.00  0.00     0.008 A 
HETATM   11  C   UNK N   1      21.250  18.863   4.080  0.00  0.00     0.001 A 
HETATM   12  C   UNK N   1      20.772  18.116   3.015  0.00  0.00     0.001 A 
HETATM   13  C   UNK N   1      20.863  16.727   3.049  0.00  0.00     0.013 A 
HETATM   14  C   UNK N   1      21.437  16.021   4.127  0.00  0.00    -0.016 A 
HETATM   15  C   UNK N   1      21.471  14.473   4.070  0.00  0.00     0.021 C 
HETATM   16  C   UNK N   1      20.857  13.766   3.046  0.00  0.00    -0.062 C 
HETATM   17  C   UNK N   1      20.169  14.400   1.874  0.00  0.00     0.065 C 
HETATM   18  C   UNK N   1      20.713  13.774   0.588  0.00  0.00     0.276 C 
HETATM   19  N   UNK N   1      20.787  12.292   0.601  0.00  0.00     0.089 N 
HETATM   20  C   UNK N   1      20.135  11.704   1.779  0.00  0.00     0.276 C 
HETATM   21  C   UNK N   1      20.765  12.250   3.066  0.00  0.00     0.065 C 
ENDROOT
BRANCH  19  22
HETATM   22  C   UNK N   1      22.172  11.793   0.582  0.00  0.00     0.277 C 
BRANCH  22  23
HETATM   23  C   UNK N   1      23.248  12.808   0.174  0.00  0.00     0.068 C 
BRANCH  23  24
HETATM   24  C   UNK N   1      24.091  13.274   1.310  0.00  0.00    -0.056 A 
HETATM   25  C   UNK N   1      24.802  12.335   2.062  0.00  0.00     0.010 A 
HETATM   26  C   UNK N   1      25.575  12.748   3.148  0.00  0.00     0.037 A 
HETATM   27  C   UNK N   1      25.623  14.100   3.502  0.00  0.00     0.069 A 
HETATM   28  C   UNK N   1      24.909  15.042   2.742  0.00  0.00     0.037 A 
HETATM   29  C   UNK N   1      24.156  14.630   1.643  0.00  0.00     0.010 A 
BRANCH  27  30
HETATM   30  O   UNK N   1      26.348  14.469   4.583  0.00  0.00    -0.345 OA
BRANCH  30  31
HETATM   31  C   UNK N   1      26.058  15.582   5.342  0.00  0.00     0.232 C 
BRANCH  31  32
HETATM   32  C   UNK N   1      27.272  16.194   5.952  0.00  0.00     0.034 A 
HETATM   33  C   UNK N   1      28.522  15.978   5.362  0.00  0.00     0.028 A 
HETATM   34  C   UNK N   1      29.670  16.468   5.985  0.00  0.00     0.016 A 
HETATM   35  C   UNK N   1      29.559  17.146   7.198  0.00  0.00    -0.009 A 
HETATM   36  C   UNK N   1      30.699  17.621   7.853  0.00  0.00     0.013 A 
HETATM   37  C   UNK N   1      28.283  17.339   7.768  0.00  0.00     0.042 A 
HETATM   38  C   UNK N   1      30.571  18.287   9.077  0.00  0.00     0.001 A 
HETATM   39  C   UNK N   1      29.306  18.479   9.643  0.00  0.00     0.002 A 
HETATM   40  C   UNK N   1      28.163  18.006   8.991  0.00  0.00     0.030 A 
HETATM   41  N   UNK N   1      27.178  16.861   7.136  0.00  0.00    -0.357 N 
ATOM     42  HN  UNK N   1      26.260  17.003   7.557  1.00  0.00     0.166 HD
ENDBRANCH  31  32
ENDBRANCH  30  31
ENDBRANCH  27  30
ENDBRANCH  23  24
ENDBRANCH  22  23
ENDBRANCH  19  22
BRANCH   1  43
HETATM   43  C   UNK N   1      23.019  12.738   8.503  0.00  0.00     0.311 C 
HETATM   44  O   UNK N   1      22.287  12.012   9.163  0.00  0.00    -0.258 OA
BRANCH  43  45
HETATM   45  O   UNK N   1      24.090  13.342   9.074  0.00  0.00    -0.321 OA
HETATM   46  C   UNK N   1      24.817  12.760  10.085  0.00  0.00     0.213 C 
ENDBRANCH  43  45
ENDBRANCH   1  43
TORSDOF 8
ENDMDL
MODEL 6
REMARK VINA RESULT:      -7.3      1.549      2.114
REMARK  8 active torsions:
REMARK  status: ('A' for Active; 'I' for Inactive)
REMARK    1  A    between atoms: O_2  and  C_3 
REMARK    2  A    between atoms: C_3  and  C_5 
REMARK    3  A    between atoms: N_23  and  C_26 
REMARK    4  A    between atoms: C_26  and  C_27 
REMARK    5  A    between atoms: C_27  and  C_28 
REMARK    6  A    between atoms: C_31  and  O_34 
REMARK    7  A    between atoms: O_34  and  C_35 
REMARK    8  A    between atoms: C_35  and  C_36 
ROOT
HETATM    1  C   UNK N   1      21.655  12.747   7.322  0.00  0.00     0.127 A 
HETATM    2  C   UNK N   1      21.621  11.710   6.420  0.00  0.00     0.125 A 
HETATM    3  N   UNK N   1      21.396  12.233   5.201  0.00  0.00    -0.349 N 
ATOM      4  HN  UNK N   1      21.315  11.721   4.322  1.00  0.00     0.167 HD
HETATM    5  C   UNK N   1      21.300  13.574   5.372  0.00  0.00     0.119 A 
HETATM    6  N   UNK N   1      21.477  13.907   6.662  0.00  0.00    -0.326 N 
HETATM    7  C   UNK N   1      21.445  15.241   7.213  0.00  0.00     0.136 C 
HETATM    8  C   UNK N   1      22.585  15.967   6.565  0.00  0.00     0.060 C 
HETATM    9  C   UNK N   1      22.151  16.637   5.312  0.00  0.00    -0.045 A 
HETATM   10  C   UNK N   1      22.501  17.992   5.213  0.00  0.00     0.008 A 
HETATM   11  C   UNK N   1      22.178  18.743   4.090  0.00  0.00     0.001 A 
HETATM   12  C   UNK N   1      21.499  18.146   3.040  0.00  0.00     0.001 A 
HETATM   13  C   UNK N   1      21.133  16.805   3.126  0.00  0.00     0.013 A 
HETATM   14  C   UNK N   1      21.430  15.998   4.245  0.00  0.00    -0.016 A 
HETATM   15  C   UNK N   1      20.960  14.523   4.244  0.00  0.00     0.021 C 
HETATM   16  C   UNK N   1      20.165  14.009   3.229  0.00  0.00    -0.062 C 
HETATM   17  C   UNK N   1      19.738  14.781   2.016  0.00  0.00     0.065 C 
HETATM   18  C   UNK N   1      20.068  13.958   0.769  0.00  0.00     0.276 C 
HETATM   19  N   UNK N   1      19.656  12.534   0.838  0.00  0.00     0.089 N 
HETATM   20  C   UNK N   1      18.831  12.240   2.017  0.00  0.00     0.276 C 
HETATM   21  C   UNK N   1      19.585  12.607   3.301  0.00  0.00     0.065 C 
ENDROOT
BRANCH  19  22
HETATM   22  C   UNK N   1      20.803  11.613   0.875  0.00  0.00     0.277 C 
BRANCH  22  23
HETATM   23  C   UNK N   1      22.094  12.116   0.213  0.00  0.00     0.068 C 
BRANCH  23  24
HETATM   24  C   UNK N   1      23.024  12.794   1.157  0.00  0.00    -0.056 A 
HETATM   25  C   UNK N   1      23.369  12.156   2.352  0.00  0.00     0.010 A 
HETATM   26  C   UNK N   1      24.218  12.788   3.262  0.00  0.00     0.037 A 
HETATM   27  C   UNK N   1      24.706  14.070   2.995  0.00  0.00     0.069 A 
HETATM   28  C   UNK N   1      24.359  14.707   1.791  0.00  0.00     0.037 A 
HETATM   29  C   UNK N   1      23.531  14.066   0.871  0.00  0.00     0.010 A 
BRANCH  27  30
HETATM   30  O   UNK N   1      25.495  14.675   3.912  0.00  0.00    -0.345 OA
BRANCH  30  31
HETATM   31  C   UNK N   1      26.588  15.445   3.577  0.00  0.00     0.232 C 
BRANCH  31  32
HETATM   32  C   UNK N   1      26.468  16.852   4.053  0.00  0.00     0.034 A 
HETATM   33  C   UNK N   1      25.761  17.781   3.284  0.00  0.00     0.028 A 
HETATM   34  C   UNK N   1      25.729  19.119   3.677  0.00  0.00     0.016 A 
HETATM   35  C   UNK N   1      26.420  19.516   4.822  0.00  0.00    -0.009 A 
HETATM   36  C   UNK N   1      26.424  20.856   5.220  0.00  0.00     0.013 A 
HETATM   37  C   UNK N   1      27.129  18.553   5.570  0.00  0.00     0.042 A 
HETATM   38  C   UNK N   1      27.135  21.240   6.362  0.00  0.00     0.001 A 
HETATM   39  C   UNK N   1      27.839  20.285   7.105  0.00  0.00     0.002 A 
HETATM   40  C   UNK N   1      27.836  18.943   6.712  0.00  0.00     0.030 A 
HETATM   41  N   UNK N   1      27.136  17.253   5.170  0.00  0.00    -0.357 N 
ATOM     42  HN  UNK N   1      27.653  16.565   5.717  1.00  0.00     0.166 HD
ENDBRANCH  31  32
ENDBRANCH  30  31
ENDBRANCH  27  30
ENDBRANCH  23  24
ENDBRANCH  22  23
ENDBRANCH  19  22
BRANCH   1  43
HETATM   43  C   UNK N   1      21.795  12.571   8.778  0.00  0.00     0.311 C 
HETATM   44  O   UNK N   1      20.827  12.716   9.513  0.00  0.00    -0.258 OA
BRANCH  43  45
HETATM   45  O   UNK N   1      22.993  12.184   9.280  0.00  0.00    -0.321 OA
HETATM   46  C   UNK N   1      23.363  12.421  10.582  0.00  0.00     0.213 C 
ENDBRANCH  43  45
ENDBRANCH   1  43
TORSDOF 8
ENDMDL
MODEL 7
REMARK VINA RESULT:      -7.2      6.433      9.389
REMARK  8 active torsions:
REMARK  status: ('A' for Active; 'I' for Inactive)
REMARK    1  A    between atoms: O_2  and  C_3 
REMARK    2  A    between atoms: C_3  and  C_5 
REMARK    3  A    between atoms: N_23  and  C_26 
REMARK    4  A    between atoms: C_26  and  C_27 
REMARK    5  A    between atoms: C_27  and  C_28 
REMARK    6  A    between atoms: C_31  and  O_34 
REMARK    7  A    between atoms: O_34  and  C_35 
REMARK    8  A    between atoms: C_35  and  C_36 
ROOT
HETATM    1  C   UNK N   1      23.543  14.927   6.396  0.00  0.00     0.127 A 
HETATM    2  C   UNK N   1      24.633  14.706   7.205  0.00  0.00     0.125 A 
HETATM    3  N   UNK N   1      25.621  15.523   6.796  0.00  0.00    -0.349 N 
ATOM      4  HN  UNK N   1      26.558  15.595   7.194  1.00  0.00     0.167 HD
HETATM    5  C   UNK N   1      25.125  16.231   5.752  0.00  0.00     0.119 A 
HETATM    6  N   UNK N   1      23.847  15.892   5.508  0.00  0.00    -0.326 N 
HETATM    7  C   UNK N   1      23.000  16.440   4.475  0.00  0.00     0.136 C 
HETATM    8  C   UNK N   1      22.858  17.896   4.807  0.00  0.00     0.060 C 
HETATM    9  C   UNK N   1      23.922  18.700   4.151  0.00  0.00    -0.045 A 
HETATM   10  C   UNK N   1      23.462  19.814   3.432  0.00  0.00     0.008 A 
HETATM   11  C   UNK N   1      24.343  20.670   2.782  0.00  0.00     0.001 A 
HETATM   12  C   UNK N   1      25.705  20.425   2.845  0.00  0.00     0.001 A 
HETATM   13  C   UNK N   1      26.178  19.317   3.544  0.00  0.00     0.013 A 
HETATM   14  C   UNK N   1      25.329  18.414   4.216  0.00  0.00    -0.016 A 
HETATM   15  C   UNK N   1      25.959  17.203   4.949  0.00  0.00     0.021 C 
HETATM   16  C   UNK N   1      27.316  16.926   4.868  0.00  0.00    -0.062 C 
HETATM   17  C   UNK N   1      28.312  17.779   4.140  0.00  0.00     0.065 C 
HETATM   18  C   UNK N   1      29.480  18.081   5.081  0.00  0.00     0.276 C 
HETATM   19  N   UNK N   1      30.012  16.903   5.810  0.00  0.00     0.089 N 
HETATM   20  C   UNK N   1      29.437  15.637   5.334  0.00  0.00     0.276 C 
HETATM   21  C   UNK N   1      27.910  15.662   5.465  0.00  0.00     0.065 C 
ENDROOT
BRANCH  19  22
HETATM   22  C   UNK N   1      29.761  16.971   7.259  0.00  0.00     0.277 C 
BRANCH  22  23
HETATM   23  C   UNK N   1      30.800  17.739   8.088  0.00  0.00     0.068 C 
BRANCH  23  24
HETATM   24  C   UNK N   1      31.922  16.890   8.575  0.00  0.00    -0.056 A 
HETATM   25  C   UNK N   1      33.218  17.415   8.592  0.00  0.00     0.010 A 
HETATM   26  C   UNK N   1      34.286  16.625   9.018  0.00  0.00     0.037 A 
HETATM   27  C   UNK N   1      34.070  15.300   9.407  0.00  0.00     0.069 A 
HETATM   28  C   UNK N   1      32.765  14.777   9.391  0.00  0.00     0.037 A 
HETATM   29  C   UNK N   1      31.695  15.574   8.988  0.00  0.00     0.010 A 
BRANCH  27  30
HETATM   30  O   UNK N   1      35.129  14.544   9.778  0.00  0.00    -0.345 OA
BRANCH  30  31
HETATM   31  C   UNK N   1      35.997  14.906  10.786  0.00  0.00     0.232 C 
BRANCH  31  32
HETATM   32  C   UNK N   1      35.715  14.200  12.067  0.00  0.00     0.034 A 
HETATM   33  C   UNK N   1      36.262  14.689  13.258  0.00  0.00     0.028 A 
HETATM   34  C   UNK N   1      36.080  13.975  14.443  0.00  0.00     0.016 A 
HETATM   35  C   UNK N   1      35.374  12.773  14.421  0.00  0.00    -0.009 A 
HETATM   36  C   UNK N   1      35.203  12.028  15.591  0.00  0.00     0.013 A 
HETATM   37  C   UNK N   1      34.843  12.306  13.200  0.00  0.00     0.042 A 
HETATM   38  C   UNK N   1      34.505  10.816  15.548  0.00  0.00     0.001 A 
HETATM   39  C   UNK N   1      33.978  10.352  14.338  0.00  0.00     0.002 A 
HETATM   40  C   UNK N   1      34.145  11.094  13.165  0.00  0.00     0.030 A 
HETATM   41  N   UNK N   1      35.026  13.025  12.061  0.00  0.00    -0.357 N 
ATOM     42  HN  UNK N   1      34.639  12.678  11.183  1.00  0.00     0.166 HD
ENDBRANCH  31  32
ENDBRANCH  30  31
ENDBRANCH  27  30
ENDBRANCH  23  24
ENDBRANCH  22  23
ENDBRANCH  19  22
BRANCH   1  43
HETATM   43  C   UNK N   1      22.287  14.162   6.475  0.00  0.00     0.311 C 
HETATM   44  O   UNK N   1      22.256  12.990   6.122  0.00  0.00    -0.258 OA
BRANCH  43  45
HETATM   45  O   UNK N   1      21.189  14.754   7.004  0.00  0.00    -0.321 OA
HETATM   46  C   UNK N   1      20.062  15.021   6.264  0.00  0.00     0.213 C 
ENDBRANCH  43  45
ENDBRANCH   1  43
TORSDOF 8
ENDMDL
MODEL 8
REMARK VINA RESULT:      -7.0     10.524     14.734
REMARK  8 active torsions:
REMARK  status: ('A' for Active; 'I' for Inactive)
REMARK    1  A    between atoms: O_2  and  C_3 
REMARK    2  A    between atoms: C_3  and  C_5 
REMARK    3  A    between atoms: N_23  and  C_26 
REMARK    4  A    between atoms: C_26  and  C_27 
REMARK    5  A    between atoms: C_27  and  C_28 
REMARK    6  A    between atoms: C_31  and  O_34 
REMARK    7  A    between atoms: O_34  and  C_35 
REMARK    8  A    between atoms: C_35  and  C_36 
ROOT
HETATM    1  C   UNK N   1      33.914  10.953   8.678  0.00  0.00     0.127 A 
HETATM    2  C   UNK N   1      33.514  11.885   9.606  0.00  0.00     0.125 A 
HETATM    3  N   UNK N   1      34.164  11.628  10.755  0.00  0.00    -0.349 N 
ATOM      4  HN  UNK N   1      34.082  12.143  11.632  1.00  0.00     0.167 HD
HETATM    5  C   UNK N   1      34.953  10.552  10.515  0.00  0.00     0.119 A 
HETATM    6  N   UNK N   1      34.827  10.139   9.242  0.00  0.00    -0.326 N 
HETATM    7  C   UNK N   1      35.514   9.026   8.633  0.00  0.00     0.136 C 
HETATM    8  C   UNK N   1      36.970   9.380   8.682  0.00  0.00     0.060 C 
HETATM    9  C   UNK N   1      37.599   8.887   9.935  0.00  0.00    -0.045 A 
HETATM   10  C   UNK N   1      38.779   8.151   9.754  0.00  0.00     0.008 A 
HETATM   11  C   UNK N   1      39.488   7.643  10.836  0.00  0.00     0.001 A 
HETATM   12  C   UNK N   1      39.026   7.868  12.122  0.00  0.00     0.001 A 
HETATM   13  C   UNK N   1      37.851   8.588  12.320  0.00  0.00     0.013 A 
HETATM   14  C   UNK N   1      37.089   9.121  11.258  0.00  0.00    -0.016 A 
HETATM   15  C   UNK N   1      35.786   9.890  11.590  0.00  0.00     0.021 C 
HETATM   16  C   UNK N   1      35.295   9.972  12.885  0.00  0.00    -0.062 C 
HETATM   17  C   UNK N   1      35.984   9.401  14.089  0.00  0.00     0.065 C 
HETATM   18  C   UNK N   1      36.085  10.490  15.159  0.00  0.00     0.276 C 
HETATM   19  N   UNK N   1      34.829  11.244  15.399  0.00  0.00     0.089 N 
HETATM   20  C   UNK N   1      33.678  10.662  14.697  0.00  0.00     0.276 C 
HETATM   21  C   UNK N   1      33.946  10.600  13.189  0.00  0.00     0.065 C 
ENDROOT
BRANCH  19  22
HETATM   22  C   UNK N   1      34.923  12.651  14.977  0.00  0.00     0.277 C 
BRANCH  22  23
HETATM   23  C   UNK N   1      36.324  13.148  14.593  0.00  0.00     0.068 C 
BRANCH  23  24
HETATM   24  C   UNK N   1      36.443  13.558  13.167  0.00  0.00    -0.056 A 
HETATM   25  C   UNK N   1      35.624  14.581  12.680  0.00  0.00     0.010 A 
HETATM   26  C   UNK N   1      35.700  14.960  11.339  0.00  0.00     0.037 A 
HETATM   27  C   UNK N   1      36.578  14.303  10.472  0.00  0.00     0.069 A 
HETATM   28  C   UNK N   1      37.402  13.277  10.965  0.00  0.00     0.037 A 
HETATM   29  C   UNK N   1      37.342  12.914  12.311  0.00  0.00     0.010 A 
BRANCH  27  30
HETATM   30  O   UNK N   1      36.603  14.664   9.169  0.00  0.00    -0.345 OA
BRANCH  30  31
HETATM   31  C   UNK N   1      35.858  14.031   8.196  0.00  0.00     0.232 C 
BRANCH  31  32
HETATM   32  C   UNK N   1      35.181  14.989   7.278  0.00  0.00     0.034 A 
HETATM   33  C   UNK N   1      34.686  16.195   7.783  0.00  0.00     0.028 A 
HETATM   34  C   UNK N   1      33.966  17.049   6.947  0.00  0.00     0.016 A 
HETATM   35  C   UNK N   1      33.732  16.679   5.623  0.00  0.00    -0.009 A 
HETATM   36  C   UNK N   1      32.991  17.506   4.775  0.00  0.00     0.013 A 
HETATM   37  C   UNK N   1      34.240  15.451   5.148  0.00  0.00     0.042 A 
HETATM   38  C   UNK N   1      32.753  17.112   3.453  0.00  0.00     0.001 A 
HETATM   39  C   UNK N   1      33.256  15.895   2.982  0.00  0.00     0.002 A 
HETATM   40  C   UNK N   1      33.999  15.064   3.826  0.00  0.00     0.030 A 
HETATM   41  N   UNK N   1      34.947  14.641   5.982  0.00  0.00    -0.357 N 
ATOM     42  HN  UNK N   1      35.308  13.755   5.629  1.00  0.00     0.166 HD
ENDBRANCH  31  32
ENDBRANCH  30  31
ENDBRANCH  27  30
ENDBRANCH  23  24
ENDBRANCH  22  23
ENDBRANCH  19  22
BRANCH   1  43
HETATM   43  C   UNK N   1      33.360  10.850   7.317  0.00  0.00     0.311 C 
HETATM   44  O   UNK N   1      32.372  10.159   7.104  0.00  0.00    -0.258 OA
BRANCH  43  45
HETATM   45  O   UNK N   1      33.919  11.582   6.324  0.00  0.00    -0.321 OA
HETATM   46  C   UNK N   1      34.797  11.046   5.412  0.00  0.00     0.213 C 
ENDBRANCH  43  45
ENDBRANCH   1  43
TORSDOF 8
ENDMDL
MODEL 9
REMARK VINA RESULT:      -7.0     11.334     14.920
REMARK  8 active torsions:
REMARK  status: ('A' for Active; 'I' for Inactive)
REMARK    1  A    between atoms: O_2  and  C_3 
REMARK    2  A    between atoms: C_3  and  C_5 
REMARK    3  A    between atoms: N_23  and  C_26 
REMARK    4  A    between atoms: C_26  and  C_27 
REMARK    5  A    between atoms: C_27  and  C_28 
REMARK    6  A    between atoms: C_31  and  O_34 
REMARK    7  A    between atoms: O_34  and  C_35 
REMARK    8  A    between atoms: C_35  and  C_36 
ROOT
HETATM    1  C   UNK N   1      35.404  14.290  10.659  0.00  0.00     0.127 A 
HETATM    2  C   UNK N   1      34.244  13.555  10.599  0.00  0.00     0.125 A 
HETATM    3  N   UNK N   1      34.441  12.543   9.736  0.00  0.00    -0.349 N 
ATOM      4  HN  UNK N   1      33.767  11.823   9.474  1.00  0.00     0.167 HD
HETATM    5  C   UNK N   1      35.713  12.668   9.284  0.00  0.00     0.119 A 
HETATM    6  N   UNK N   1      36.323  13.721   9.855  0.00  0.00    -0.326 N 
HETATM    7  C   UNK N   1      37.678  14.157   9.617  0.00  0.00     0.136 C 
HETATM    8  C   UNK N   1      38.548  13.028  10.082  0.00  0.00     0.060 C 
HETATM    9  C   UNK N   1      38.821  12.071   8.979  0.00  0.00    -0.045 A 
HETATM   10  C   UNK N   1      40.175  11.754   8.792  0.00  0.00     0.008 A 
HETATM   11  C   UNK N   1      40.580  10.859   7.810  0.00  0.00     0.001 A 
HETATM   12  C   UNK N   1      39.631  10.261   6.996  0.00  0.00     0.001 A 
HETATM   13  C   UNK N   1      38.284  10.573   7.160  0.00  0.00     0.013 A 
HETATM   14  C   UNK N   1      37.818  11.478   8.137  0.00  0.00    -0.016 A 
HETATM   15  C   UNK N   1      36.299  11.766   8.221  0.00  0.00     0.021 C 
HETATM   16  C   UNK N   1      35.404  11.247   7.296  0.00  0.00    -0.062 C 
HETATM   17  C   UNK N   1      35.783  10.318   6.181  0.00  0.00     0.065 C 
HETATM   18  C   UNK N   1      34.856   9.101   6.220  0.00  0.00     0.276 C 
HETATM   19  N   UNK N   1      33.415   9.422   6.365  0.00  0.00     0.089 N 
HETATM   20  C   UNK N   1      33.141  10.860   6.244  0.00  0.00     0.276 C 
HETATM   21  C   UNK N   1      33.939  11.645   7.292  0.00  0.00     0.065 C 
ENDROOT
BRANCH  19  22
HETATM   22  C   UNK N   1      32.864   8.987   7.659  0.00  0.00     0.277 C 
BRANCH  22  23
HETATM   23  C   UNK N   1      33.706   7.970   8.442  0.00  0.00     0.068 C 
BRANCH  23  24
HETATM   24  C   UNK N   1      34.403   8.554   9.621  0.00  0.00    -0.056 A 
HETATM   25  C   UNK N   1      33.650   9.172  10.623  0.00  0.00     0.010 A 
HETATM   26  C   UNK N   1      34.287   9.750  11.722  0.00  0.00     0.037 A 
HETATM   27  C   UNK N   1      35.682   9.735  11.813  0.00  0.00     0.069 A 
HETATM   28  C   UNK N   1      36.436   9.111  10.805  0.00  0.00     0.037 A 
HETATM   29  C   UNK N   1      35.798   8.513   9.719  0.00  0.00     0.010 A 
BRANCH  27  30
HETATM   30  O   UNK N   1      36.276  10.338  12.868  0.00  0.00    -0.345 OA
BRANCH  30  31
HETATM   31  C   UNK N   1      36.588  11.681  12.893  0.00  0.00     0.232 C 
BRANCH  31  32
HETATM   32  C   UNK N   1      36.347  12.302  14.226  0.00  0.00     0.034 A 
HETATM   33  C   UNK N   1      35.387  11.750  15.080  0.00  0.00     0.028 A 
HETATM   34  C   UNK N   1      35.091  12.385  16.286  0.00  0.00     0.016 A 
HETATM   35  C   UNK N   1      35.741  13.574  16.614  0.00  0.00    -0.009 A 
HETATM   36  C   UNK N   1      35.440  14.242  17.804  0.00  0.00     0.013 A 
HETATM   37  C   UNK N   1      36.699  14.107  15.726  0.00  0.00     0.042 A 
HETATM   38  C   UNK N   1      36.091  15.442  18.112  0.00  0.00     0.001 A 
HETATM   39  C   UNK N   1      37.041  15.972  17.231  0.00  0.00     0.002 A 
HETATM   40  C   UNK N   1      37.346  15.306  16.040  0.00  0.00     0.030 A 
HETATM   41  N   UNK N   1      36.976  13.463  14.561  0.00  0.00    -0.357 N 
ATOM     42  HN  UNK N   1      37.669  13.857  13.924  1.00  0.00     0.166 HD
ENDBRANCH  31  32
ENDBRANCH  30  31
ENDBRANCH  27  30
ENDBRANCH  23  24
ENDBRANCH  22  23
ENDBRANCH  19  22
BRANCH   1  43
HETATM   43  C   UNK N   1      35.557  15.534  11.433  0.00  0.00     0.311 C 
HETATM   44  O   UNK N   1      36.177  15.531  12.489  0.00  0.00    -0.258 OA
BRANCH  43  45
HETATM   45  O   UNK N   1      35.058  16.688  10.927  0.00  0.00    -0.321 OA
HETATM   46  C   UNK N   1      34.981  16.933   9.577  0.00  0.00     0.213 C 
ENDBRANCH  43  45
ENDBRANCH   1  43
TORSDOF 8
ENDMDL
