REMARK  5 active torsions:
REMARK  status: ('A' for Active; 'I' for Inactive)
REMARK    1  A    between atoms: O_2  and  C_3 
REMARK    2  A    between atoms: C_3  and  C_5 
REMARK    3  A    between atoms: C_8  and  C_11 
REMARK    4  A    between atoms: C_14  and  C_17 
REMARK    5  A    between atoms: C_17  and  O_19 
ROOT
HETATM    1  C   UNK N   1       0.726   0.254  -0.000  0.00  0.00     0.039 A 
HETATM    2  C   UNK N   1       1.966  -0.408   0.000  0.00  0.00     0.018 A 
HETATM    3  C   UNK N   1       2.018  -1.811   0.000  0.00  0.00     0.013 A 
HETATM    4  C   UNK N   1       0.827  -2.559  -0.000  0.00  0.00    -0.026 A 
HETATM    5  C   UNK N   1      -0.401  -1.883  -0.000  0.00  0.00     0.013 A 
HETATM    6  C   UNK N   1      -0.452  -0.495  -0.000  0.00  0.00     0.018 A 
ENDROOT
BRANCH   4   7
HETATM    7  C   UNK N   1       0.827  -4.041   0.000  0.00  0.00    -0.026 A 
HETATM    8  C   UNK N   1       2.018  -4.789  -0.000  0.00  0.00     0.013 A 
HETATM    9  C   UNK N   1       1.966  -6.192  -0.000  0.00  0.00     0.018 A 
HETATM   10  C   UNK N   1       0.726  -6.854   0.000  0.00  0.00     0.039 A 
HETATM   11  C   UNK N   1      -0.452  -6.105   0.000  0.00  0.00     0.018 A 
HETATM   12  C   UNK N   1      -0.401  -4.717   0.000  0.00  0.00     0.013 A 
BRANCH  10  13
HETATM   13  C   UNK N   1       0.630  -8.325   0.000  0.00  0.00     0.292 C 
HETATM   14  O   UNK N   1       1.646  -9.008  -0.000  0.00  0.00    -0.259 OA
BRANCH  13  15
HETATM   15  O   UNK N   1      -0.595  -8.909   0.000  0.00  0.00    -0.323 OA
HETATM   16  C   UNK N   1      -0.772 -10.272   0.000  0.00  0.00     0.213 C 
ENDBRANCH  13  15
ENDBRANCH  10  13
ENDBRANCH   4   7
BRANCH   1  17
HETATM   17  C   UNK N   1       0.630   1.725  -0.000  0.00  0.00     0.292 C 
HETATM   18  O   UNK N   1       1.646   2.408   0.000  0.00  0.00    -0.259 OA
BRANCH  17  19
HETATM   19  O   UNK N   1      -0.595   2.309  -0.000  0.00  0.00    -0.323 OA
HETATM   20  C   UNK N   1      -0.772   3.672  -0.000  0.00  0.00     0.213 C 
ENDBRANCH  17  19
ENDBRANCH   1  17
TORSDOF 5
