MODEL 1
REMARK VINA RESULT:      -7.7      0.000      0.000
REMARK  9 active torsions:
REMARK  status: ('A' for Active; 'I' for Inactive)
REMARK    1  A    between atoms: C_9  and  C_4 
REMARK    2  A    between atoms: N_23  and  C_9 
REMARK    3  A    between atoms: C_21  and  C_15 
REMARK    4  A    between atoms: N_28  and  C_16 
REMARK    5  A    between atoms: C_22  and  C_17 
REMARK    6  A    between atoms: N_30  and  C_18 
REMARK    7  A    between atoms: O_33  and  C_21 
REMARK    8  A    between atoms: N_23  and  C_22 
REMARK    9  A    between atoms: O_34  and  C_22 
ROOT
HETATM    1  C   UNK N   1      30.252  16.789   4.973  0.00  0.00     0.052 C 
HETATM    2  C   UNK N   1      27.762  18.796   6.844  0.00  0.00     0.133 A 
HETATM    3  C   UNK N   1      29.517  18.156   9.948  0.00  0.00     0.199 A 
HETATM    4  C   UNK N   1      29.384  17.540   5.932  0.00  0.00    -0.013 A 
HETATM    5  C   UNK N   1      28.239  18.269   5.637  0.00  0.00     0.040 A 
HETATM    6  C   UNK N   1      29.566  17.647   7.292  0.00  0.00     0.106 A 
HETATM    7  C   UNK N   1      30.561  17.109   8.093  0.00  0.00     0.136 A 
HETATM    8  N   UNK N   1      30.523  17.380   9.427  0.00  0.00    -0.336 N 
ATOM      9  HN  UNK N   1      31.244  17.003  10.043  1.00  0.00     0.168 HD
HETATM   10  N   UNK N   1      28.546  18.666   9.127  0.00  0.00    -0.289 N 
HETATM   11  N   UNK N   1      31.466  16.396   7.524  0.00  0.00    -0.340 N 
ATOM     12  HN  UNK N   1      31.282  16.342   6.523  1.00  0.00     0.167 HD
HETATM   13  N   UNK N   1      28.602  18.396   7.824  0.00  0.00    -0.262 N 
HETATM   14  H   UNK N   1      27.821  19.222   9.494  0.00  0.00     0.188 HD
ENDROOT
BRANCH  11  15
HETATM   15  C   UNK N   1      32.639  15.659   7.834  0.00  0.00     0.040 A 
HETATM   16  C   UNK N   1      33.406  16.232   8.842  0.00  0.00     0.045 A 
HETATM   17  C   UNK N   1      34.585  15.673   9.315  0.00  0.00     0.017 A 
HETATM   18  C   UNK N   1      35.025  14.473   8.742  0.00  0.00     0.016 A 
HETATM   19  C   UNK N   1      34.284  13.872   7.710  0.00  0.00     0.010 A 
HETATM   20  C   UNK N   1      33.089  14.450   7.244  0.00  0.00    -0.035 A 
HETATM   21  C   UNK N   1      32.370  13.752   6.149  0.00  0.00     0.050 C 
BRANCH  17  22
HETATM   22  C   UNK N   1      35.279  16.407  10.423  0.00  0.00     0.146 C 
HETATM   23  N   UNK N   1      35.565  15.899  11.576  0.00  0.00    -0.366 N 
ATOM     24  HN  UNK N   1      36.026  16.511  12.250  1.00  0.00     0.162 HD
BRANCH  23  25
HETATM   25  C   UNK N   1      35.294  14.552  11.995  0.00  0.00     0.083 A 
HETATM   26  C   UNK N   1      36.604  13.794  12.073  0.00  0.00     0.027 A 
HETATM   27  C   UNK N   1      35.961  14.322  13.336  0.00  0.00     0.027 A 
ENDBRANCH  23  25
BRANCH  22  28
HETATM   28  O   UNK N   1      35.604  17.699  10.210  0.00  0.00    -0.346 OA
HETATM   29  H   UNK N   1      34.940  18.317   9.976  0.00  0.00     0.219 HD
ENDBRANCH  22  28
ENDBRANCH  17  22
ENDBRANCH  11  15
BRANCH   5  30
HETATM   30  C   UNK N   1      27.664  18.443   4.285  0.00  0.00     0.148 C 
BRANCH  30  31
HETATM   31  N   UNK N   1      27.629  19.624   3.769  0.00  0.00    -0.370 N 
ATOM     32  HN  UNK N   1      28.419  19.918   3.193  1.00  0.00     0.161 HD
BRANCH  31  33
HETATM   33  C   UNK N   1      26.546  20.551   3.953  0.00  0.00     0.121 C 
BRANCH  33  34
HETATM   34  C   UNK N   1      25.692  20.528   2.699  0.00  0.00     0.015 C 
HETATM   35  C   UNK N   1      24.224  20.505   3.061  0.00  0.00     0.006 C 
ENDBRANCH  33  34
ENDBRANCH  31  33
ENDBRANCH  30  31
BRANCH  30  36
HETATM   36  O   UNK N   1      27.175  17.381   3.613  0.00  0.00    -0.346 OA
HETATM   37  H   UNK N   1      26.705  16.712   4.071  0.00  0.00     0.219 HD
ENDBRANCH  30  36
ENDBRANCH   5  30
TORSDOF 9
ENDMDL
MODEL 2
REMARK VINA RESULT:      -7.5      7.638     10.426
REMARK  9 active torsions:
REMARK  status: ('A' for Active; 'I' for Inactive)
REMARK    1  A    between atoms: C_9  and  C_4 
REMARK    2  A    between atoms: N_23  and  C_9 
REMARK    3  A    between atoms: C_21  and  C_15 
REMARK    4  A    between atoms: N_28  and  C_16 
REMARK    5  A    between atoms: C_22  and  C_17 
REMARK    6  A    between atoms: N_30  and  C_18 
REMARK    7  A    between atoms: O_33  and  C_21 
REMARK    8  A    between atoms: N_23  and  C_22 
REMARK    9  A    between atoms: O_34  and  C_22 
ROOT
HETATM    1  C   UNK N   1      24.473  17.531   4.690  0.00  0.00     0.052 C 
HETATM    2  C   UNK N   1      22.554  20.166   2.928  0.00  0.00     0.133 A 
HETATM    3  C   UNK N   1      19.526  18.194   3.189  0.00  0.00     0.199 A 
HETATM    4  C   UNK N   1      23.500  18.440   4.007  0.00  0.00    -0.013 A 
HETATM    5  C   UNK N   1      23.760  19.688   3.457  0.00  0.00     0.040 A 
HETATM    6  C   UNK N   1      22.161  18.201   3.800  0.00  0.00     0.106 A 
HETATM    7  C   UNK N   1      21.396  17.101   4.157  0.00  0.00     0.136 A 
HETATM    8  N   UNK N   1      20.070  17.117   3.845  0.00  0.00    -0.336 N 
ATOM      9  HN  UNK N   1      19.479  16.325   4.099  1.00  0.00     0.168 HD
HETATM   10  N   UNK N   1      20.314  19.261   2.846  0.00  0.00    -0.289 N 
HETATM   11  N   UNK N   1      21.984  16.138   4.772  0.00  0.00    -0.340 N 
ATOM     12  HN  UNK N   1      22.972  16.360   4.892  1.00  0.00     0.167 HD
HETATM   13  N   UNK N   1      21.607  19.231   3.163  0.00  0.00    -0.262 N 
HETATM   14  H   UNK N   1      19.931  20.035   2.373  0.00  0.00     0.188 HD
ENDROOT
BRANCH  11  15
HETATM   15  C   UNK N   1      21.709  14.865   5.337  0.00  0.00     0.040 A 
HETATM   16  C   UNK N   1      21.410  14.913   6.694  0.00  0.00     0.045 A 
HETATM   17  C   UNK N   1      21.094  13.789   7.445  0.00  0.00     0.017 A 
HETATM   18  C   UNK N   1      21.083  12.545   6.800  0.00  0.00     0.016 A 
HETATM   19  C   UNK N   1      21.395  12.457   5.433  0.00  0.00     0.010 A 
HETATM   20  C   UNK N   1      21.709  13.605   4.685  0.00  0.00    -0.035 A 
HETATM   21  C   UNK N   1      22.029  13.423   3.248  0.00  0.00     0.050 C 
BRANCH  17  22
HETATM   22  C   UNK N   1      20.774  14.016   8.891  0.00  0.00     0.146 C 
HETATM   23  N   UNK N   1      21.558  13.716   9.874  0.00  0.00    -0.366 N 
ATOM     24  HN  UNK N   1      21.214  13.907  10.815  1.00  0.00     0.162 HD
BRANCH  23  25
HETATM   25  C   UNK N   1      22.868  13.137   9.762  0.00  0.00     0.083 A 
HETATM   26  C   UNK N   1      23.227  12.490  11.084  0.00  0.00     0.027 A 
HETATM   27  C   UNK N   1      22.747  11.636   9.933  0.00  0.00     0.027 A 
ENDBRANCH  23  25
BRANCH  22  28
HETATM   28  O   UNK N   1      19.571  14.548   9.190  0.00  0.00    -0.346 OA
HETATM   29  H   UNK N   1      18.943  14.697   8.512  0.00  0.00     0.219 HD
ENDBRANCH  22  28
ENDBRANCH  17  22
ENDBRANCH  11  15
BRANCH   5  30
HETATM   30  C   UNK N   1      25.076  20.363   3.457  0.00  0.00     0.148 C 
BRANCH  30  31
HETATM   31  N   UNK N   1      25.726  20.466   4.565  0.00  0.00    -0.370 N 
ATOM     32  HN  UNK N   1      25.199  20.702   5.408  1.00  0.00     0.161 HD
BRANCH  31  33
HETATM   33  C   UNK N   1      27.143  20.268   4.689  0.00  0.00     0.121 C 
BRANCH  33  34
HETATM   34  C   UNK N   1      27.560  20.717   6.078  0.00  0.00     0.015 C 
HETATM   35  C   UNK N   1      26.450  21.507   6.732  0.00  0.00     0.006 C 
ENDBRANCH  33  34
ENDBRANCH  31  33
ENDBRANCH  30  31
BRANCH  30  36
HETATM   36  O   UNK N   1      25.579  20.871   2.313  0.00  0.00    -0.346 OA
HETATM   37  H   UNK N   1      25.771  21.787   2.251  0.00  0.00     0.219 HD
ENDBRANCH  30  36
ENDBRANCH   5  30
TORSDOF 9
ENDMDL
MODEL 3
REMARK VINA RESULT:      -7.5      2.432      9.259
REMARK  9 active torsions:
REMARK  status: ('A' for Active; 'I' for Inactive)
REMARK    1  A    between atoms: C_9  and  C_4 
REMARK    2  A    between atoms: N_23  and  C_9 
REMARK    3  A    between atoms: C_21  and  C_15 
REMARK    4  A    between atoms: N_28  and  C_16 
REMARK    5  A    between atoms: C_22  and  C_17 
REMARK    6  A    between atoms: N_30  and  C_18 
REMARK    7  A    between atoms: O_33  and  C_21 
REMARK    8  A    between atoms: N_23  and  C_22 
REMARK    9  A    between atoms: O_34  and  C_22 
ROOT
HETATM    1  C   UNK N   1      32.637  13.702   9.128  0.00  0.00     0.052 C 
HETATM    2  C   UNK N   1      35.632  15.666  10.079  0.00  0.00     0.133 A 
HETATM    3  C   UNK N   1      34.313  18.580   8.376  0.00  0.00     0.199 A 
HETATM    4  C   UNK N   1      33.736  14.685   9.386  0.00  0.00    -0.013 A 
HETATM    5  C   UNK N   1      34.907  14.468  10.100  0.00  0.00     0.040 A 
HETATM    6  C   UNK N   1      33.783  15.992   8.959  0.00  0.00     0.106 A 
HETATM    7  C   UNK N   1      32.863  16.710   8.211  0.00  0.00     0.136 A 
HETATM    8  N   UNK N   1      33.144  18.013   7.931  0.00  0.00    -0.336 N 
ATOM      9  HN  UNK N   1      32.484  18.569   7.386  1.00  0.00     0.168 HD
HETATM   10  N   UNK N   1      35.203  17.839   9.108  0.00  0.00    -0.289 N 
HETATM   11  N   UNK N   1      31.794  16.103   7.836  0.00  0.00    -0.340 N 
ATOM     12  HN  UNK N   1      31.811  15.139   8.170  1.00  0.00     0.167 HD
HETATM   13  N   UNK N   1      34.910  16.567   9.377  0.00  0.00    -0.262 N 
HETATM   14  H   UNK N   1      36.044  18.238   9.428  0.00  0.00     0.188 HD
ENDROOT
BRANCH  11  15
HETATM   15  C   UNK N   1      30.597  16.335   7.110  0.00  0.00     0.040 A 
HETATM   16  C   UNK N   1      29.735  17.232   7.730  0.00  0.00     0.045 A 
HETATM   17  C   UNK N   1      28.516  17.617   7.190  0.00  0.00     0.017 A 
HETATM   18  C   UNK N   1      28.134  17.066   5.960  0.00  0.00     0.016 A 
HETATM   19  C   UNK N   1      28.973  16.144   5.311  0.00  0.00     0.010 A 
HETATM   20  C   UNK N   1      30.207  15.767   5.870  0.00  0.00    -0.035 A 
HETATM   21  C   UNK N   1      31.030  14.785   5.120  0.00  0.00     0.050 C 
BRANCH  17  22
HETATM   22  C   UNK N   1      27.717  18.611   7.976  0.00  0.00     0.146 C 
HETATM   23  N   UNK N   1      27.328  19.760   7.530  0.00  0.00    -0.366 N 
ATOM     24  HN  UNK N   1      26.803  20.353   8.173  1.00  0.00     0.162 HD
BRANCH  23  25
HETATM   25  C   UNK N   1      27.570  20.279   6.213  0.00  0.00     0.083 A 
HETATM   26  C   UNK N   1      26.241  20.657   5.589  0.00  0.00     0.027 A 
HETATM   27  C   UNK N   1      27.130  21.729   6.178  0.00  0.00     0.027 A 
ENDBRANCH  23  25
BRANCH  22  28
HETATM   28  O   UNK N   1      27.403  18.296   9.251  0.00  0.00    -0.346 OA
HETATM   29  H   UNK N   1      27.067  18.954   9.827  0.00  0.00     0.219 HD
ENDBRANCH  22  28
ENDBRANCH  17  22
ENDBRANCH  11  15
BRANCH   5  30
HETATM   30  C   UNK N   1      35.282  13.197  10.758  0.00  0.00     0.148 C 
BRANCH  30  31
HETATM   31  N   UNK N   1      34.621  12.813  11.796  0.00  0.00    -0.370 N 
ATOM     32  HN  UNK N   1      33.820  13.374  12.088  1.00  0.00     0.161 HD
BRANCH  31  33
HETATM   33  C   UNK N   1      34.942  11.643  12.566  0.00  0.00     0.121 C 
BRANCH  33  34
HETATM   34  C   UNK N   1      34.514  11.893  14.000  0.00  0.00     0.015 C 
HETATM   35  C   UNK N   1      33.686  10.736  14.512  0.00  0.00     0.006 C 
ENDBRANCH  33  34
ENDBRANCH  31  33
ENDBRANCH  30  31
BRANCH  30  36
HETATM   36  O   UNK N   1      36.307  12.462  10.281  0.00  0.00    -0.346 OA
HETATM   37  H   UNK N   1      36.873  12.008  10.874  0.00  0.00     0.219 HD
ENDBRANCH  30  36
ENDBRANCH   5  30
TORSDOF 9
ENDMDL
MODEL 4
REMARK VINA RESULT:      -7.5      6.159     10.734
REMARK  9 active torsions:
REMARK  status: ('A' for Active; 'I' for Inactive)
REMARK    1  A    between atoms: C_9  and  C_4 
REMARK    2  A    between atoms: N_23  and  C_9 
REMARK    3  A    between atoms: C_21  and  C_15 
REMARK    4  A    between atoms: N_28  and  C_16 
REMARK    5  A    between atoms: C_22  and  C_17 
REMARK    6  A    between atoms: N_30  and  C_18 
REMARK    7  A    between atoms: O_33  and  C_21 
REMARK    8  A    between atoms: N_23  and  C_22 
REMARK    9  A    between atoms: O_34  and  C_22 
ROOT
HETATM    1  C   UNK N   1      36.458  14.706  14.118  0.00  0.00     0.052 C 
HETATM    2  C   UNK N   1      35.137  13.006  11.102  0.00  0.00     0.133 A 
HETATM    3  C   UNK N   1      33.809  10.324  13.145  0.00  0.00     0.199 A 
HETATM    4  C   UNK N   1      35.842  13.843  13.062  0.00  0.00    -0.013 A 
HETATM    5  C   UNK N   1      35.818  14.077  11.693  0.00  0.00     0.040 A 
HETATM    6  C   UNK N   1      35.181  12.652  13.258  0.00  0.00     0.106 A 
HETATM    7  C   UNK N   1      34.924  11.970  14.438  0.00  0.00     0.136 A 
HETATM    8  N   UNK N   1      34.228  10.802  14.362  0.00  0.00    -0.336 N 
ATOM      9  HN  UNK N   1      34.018  10.279  15.213  1.00  0.00     0.168 HD
HETATM   10  N   UNK N   1      34.086  11.021  11.998  0.00  0.00    -0.289 N 
HETATM   11  N   UNK N   1      35.350  12.490  15.533  0.00  0.00    -0.340 N 
ATOM     12  HN  UNK N   1      35.837  13.363  15.333  1.00  0.00     0.167 HD
HETATM   13  N   UNK N   1      34.764  12.164  12.091  0.00  0.00    -0.262 N 
HETATM   14  H   UNK N   1      33.791  10.683  11.122  0.00  0.00     0.188 HD
ENDROOT
BRANCH  11  15
HETATM   15  C   UNK N   1      35.365  12.245  16.932  0.00  0.00     0.040 A 
HETATM   16  C   UNK N   1      35.393  10.894  17.259  0.00  0.00     0.045 A 
HETATM   17  C   UNK N   1      35.427  10.427  18.565  0.00  0.00     0.017 A 
HETATM   18  C   UNK N   1      35.426  11.367  19.604  0.00  0.00     0.016 A 
HETATM   19  C   UNK N   1      35.382  12.740  19.312  0.00  0.00     0.010 A 
HETATM   20  C   UNK N   1      35.352  13.198  17.982  0.00  0.00    -0.035 A 
HETATM   21  C   UNK N   1      35.303  14.665  17.762  0.00  0.00     0.050 C 
BRANCH  17  22
HETATM   22  C   UNK N   1      35.478   8.940  18.746  0.00  0.00     0.146 C 
HETATM   23  N   UNK N   1      34.468   8.203  19.070  0.00  0.00    -0.366 N 
ATOM     24  HN  UNK N   1      34.640   7.203  19.177  1.00  0.00     0.162 HD
BRANCH  23  25
HETATM   25  C   UNK N   1      33.126   8.663  19.294  0.00  0.00     0.083 A 
HETATM   26  C   UNK N   1      32.369   7.596  20.059  0.00  0.00     0.027 A 
HETATM   27  C   UNK N   1      32.909   8.806  20.787  0.00  0.00     0.027 A 
ENDBRANCH  23  25
BRANCH  22  28
HETATM   28  O   UNK N   1      36.672   8.331  18.584  0.00  0.00    -0.346 OA
HETATM   29  H   UNK N   1      37.156   8.042  19.332  0.00  0.00     0.219 HD
ENDBRANCH  22  28
ENDBRANCH  17  22
ENDBRANCH  11  15
BRANCH   5  30
HETATM   30  C   UNK N   1      36.405  15.256  11.019  0.00  0.00     0.148 C 
BRANCH  30  31
HETATM   31  N   UNK N   1      35.731  16.355  10.986  0.00  0.00    -0.370 N 
ATOM     32  HN  UNK N   1      36.074  17.143  11.538  1.00  0.00     0.161 HD
BRANCH  31  33
HETATM   33  C   UNK N   1      34.531  16.540  10.219  0.00  0.00     0.121 C 
BRANCH  33  34
HETATM   34  C   UNK N   1      34.909  16.545   8.749  0.00  0.00     0.015 C 
HETATM   35  C   UNK N   1      34.296  17.737   8.050  0.00  0.00     0.006 C 
ENDBRANCH  33  34
ENDBRANCH  31  33
ENDBRANCH  30  31
BRANCH  30  36
HETATM   36  O   UNK N   1      37.620  15.174  10.440  0.00  0.00    -0.346 OA
HETATM   37  H   UNK N   1      37.901  14.368  10.053  0.00  0.00     0.219 HD
ENDBRANCH  30  36
ENDBRANCH   5  30
TORSDOF 9
ENDMDL
MODEL 5
REMARK VINA RESULT:      -7.5      3.046      8.847
REMARK  9 active torsions:
REMARK  status: ('A' for Active; 'I' for Inactive)
REMARK    1  A    between atoms: C_9  and  C_4 
REMARK    2  A    between atoms: N_23  and  C_9 
REMARK    3  A    between atoms: C_21  and  C_15 
REMARK    4  A    between atoms: N_28  and  C_16 
REMARK    5  A    between atoms: C_22  and  C_17 
REMARK    6  A    between atoms: N_30  and  C_18 
REMARK    7  A    between atoms: O_33  and  C_21 
REMARK    8  A    between atoms: N_23  and  C_22 
REMARK    9  A    between atoms: O_34  and  C_22 
ROOT
HETATM    1  C   UNK N   1      30.887  17.539   4.957  0.00  0.00     0.052 C 
HETATM    2  C   UNK N   1      31.850  16.884   8.474  0.00  0.00     0.133 A 
HETATM    3  C   UNK N   1      28.458  17.538   9.569  0.00  0.00     0.199 A 
HETATM    4  C   UNK N   1      31.034  17.326   6.431  0.00  0.00    -0.013 A 
HETATM    5  C   UNK N   1      32.187  16.967   7.117  0.00  0.00     0.040 A 
HETATM    6  C   UNK N   1      30.044  17.447   7.379  0.00  0.00     0.106 A 
HETATM    7  C   UNK N   1      28.709  17.783   7.222  0.00  0.00     0.136 A 
HETATM    8  N   UNK N   1      27.924  17.819   8.335  0.00  0.00    -0.336 N 
ATOM      9  HN  UNK N   1      26.936  18.058   8.252  1.00  0.00     0.168 HD
HETATM   10  N   UNK N   1      29.785  17.216   9.687  0.00  0.00    -0.289 N 
HETATM   11  N   UNK N   1      28.290  18.028   6.032  0.00  0.00    -0.340 N 
ATOM     12  HN  UNK N   1      29.060  17.933   5.371  1.00  0.00     0.167 HD
HETATM   13  N   UNK N   1      30.537  17.180   8.588  0.00  0.00    -0.262 N 
HETATM   14  H   UNK N   1      30.175  17.016  10.569  0.00  0.00     0.188 HD
ENDROOT
BRANCH  11  15
HETATM   15  C   UNK N   1      27.106  18.389   5.338  0.00  0.00     0.040 A 
HETATM   16  C   UNK N   1      26.392  17.299   4.853  0.00  0.00     0.045 A 
HETATM   17  C   UNK N   1      25.197  17.418   4.157  0.00  0.00     0.017 A 
HETATM   18  C   UNK N   1      24.690  18.704   3.929  0.00  0.00     0.016 A 
HETATM   19  C   UNK N   1      25.392  19.830   4.391  0.00  0.00     0.010 A 
HETATM   20  C   UNK N   1      26.600  19.692   5.098  0.00  0.00    -0.035 A 
HETATM   21  C   UNK N   1      27.279  20.933   5.548  0.00  0.00     0.050 C 
BRANCH  17  22
HETATM   22  C   UNK N   1      24.542  16.142   3.723  0.00  0.00     0.146 C 
HETATM   23  N   UNK N   1      23.644  15.508   4.401  0.00  0.00    -0.366 N 
ATOM     24  HN  UNK N   1      23.289  14.639   4.001  1.00  0.00     0.162 HD
BRANCH  23  25
HETATM   25  C   UNK N   1      23.101  15.914   5.668  0.00  0.00     0.083 A 
HETATM   26  C   UNK N   1      22.305  14.761   6.246  0.00  0.00     0.027 A 
HETATM   27  C   UNK N   1      23.702  15.041   6.751  0.00  0.00     0.027 A 
ENDBRANCH  23  25
BRANCH  22  28
HETATM   28  O   UNK N   1      24.939  15.602   2.551  0.00  0.00    -0.346 OA
HETATM   29  H   UNK N   1      25.247  14.718   2.524  0.00  0.00     0.219 HD
ENDBRANCH  22  28
ENDBRANCH  17  22
ENDBRANCH  11  15
BRANCH   5  30
HETATM   30  C   UNK N   1      33.506  16.717   6.497  0.00  0.00     0.148 C 
BRANCH  30  31
HETATM   31  N   UNK N   1      33.872  15.500   6.277  0.00  0.00    -0.370 N 
ATOM     32  HN  UNK N   1      33.758  14.823   7.032  1.00  0.00     0.161 HD
BRANCH  31  33
HETATM   33  C   UNK N   1      34.428  15.039   5.035  0.00  0.00     0.121 C 
BRANCH  33  34
HETATM   34  C   UNK N   1      33.289  14.865   4.047  0.00  0.00     0.015 C 
HETATM   35  C   UNK N   1      33.427  15.846   2.905  0.00  0.00     0.006 C 
ENDBRANCH  33  34
ENDBRANCH  31  33
ENDBRANCH  30  31
BRANCH  30  36
HETATM   36  O   UNK N   1      34.314  17.748   6.179  0.00  0.00    -0.346 OA
HETATM   37  H   UNK N   1      34.647  18.308   6.853  0.00  0.00     0.219 HD
ENDBRANCH  30  36
ENDBRANCH   5  30
TORSDOF 9
ENDMDL
MODEL 6
REMARK VINA RESULT:      -7.4      5.311     10.673
REMARK  9 active torsions:
REMARK  status: ('A' for Active; 'I' for Inactive)
REMARK    1  A    between atoms: C_9  and  C_4 
REMARK    2  A    between atoms: N_23  and  C_9 
REMARK    3  A    between atoms: C_21  and  C_15 
REMARK    4  A    between atoms: N_28  and  C_16 
REMARK    5  A    between atoms: C_22  and  C_17 
REMARK    6  A    between atoms: N_30  and  C_18 
REMARK    7  A    between atoms: O_33  and  C_21 
REMARK    8  A    between atoms: N_23  and  C_22 
REMARK    9  A    between atoms: O_34  and  C_22 
ROOT
HETATM    1  C   UNK N   1      25.411  16.925   5.278  0.00  0.00     0.052 C 
HETATM    2  C   UNK N   1      26.369  19.907   3.300  0.00  0.00     0.133 A 
HETATM    3  C   UNK N   1      22.880  20.682   2.701  0.00  0.00     0.199 A 
HETATM    4  C   UNK N   1      25.548  18.163   4.449  0.00  0.00    -0.013 A 
HETATM    5  C   UNK N   1      26.727  18.789   4.064  0.00  0.00     0.040 A 
HETATM    6  C   UNK N   1      24.524  18.911   3.916  0.00  0.00     0.106 A 
HETATM    7  C   UNK N   1      23.154  18.720   4.005  0.00  0.00     0.136 A 
HETATM    8  N   UNK N   1      22.342  19.624   3.391  0.00  0.00    -0.336 N 
ATOM      9  HN  UNK N   1      21.328  19.515   3.442  1.00  0.00     0.168 HD
HETATM   10  N   UNK N   1      24.240  20.836   2.627  0.00  0.00    -0.289 N 
HETATM   11  N   UNK N   1      22.734  17.705   4.673  0.00  0.00    -0.340 N 
ATOM     12  HN  UNK N   1      23.529  17.182   5.039  1.00  0.00     0.167 HD
HETATM   13  N   UNK N   1      25.020  19.945   3.238  0.00  0.00    -0.262 N 
HETATM   14  H   UNK N   1      24.633  21.590   2.132  0.00  0.00     0.188 HD
ENDROOT
BRANCH  11  15
HETATM   15  C   UNK N   1      21.525  17.075   5.068  0.00  0.00     0.040 A 
HETATM   16  C   UNK N   1      21.344  17.034   6.445  0.00  0.00     0.045 A 
HETATM   17  C   UNK N   1      20.226  16.477   7.051  0.00  0.00     0.017 A 
HETATM   18  C   UNK N   1      19.234  15.925   6.230  0.00  0.00     0.016 A 
HETATM   19  C   UNK N   1      19.391  15.935   4.833  0.00  0.00     0.010 A 
HETATM   20  C   UNK N   1      20.528  16.506   4.234  0.00  0.00    -0.035 A 
HETATM   21  C   UNK N   1      20.616  16.471   2.753  0.00  0.00     0.050 C 
BRANCH  17  22
HETATM   22  C   UNK N   1      20.174  16.535   8.548  0.00  0.00     0.146 C 
HETATM   23  N   UNK N   1      20.380  15.527   9.331  0.00  0.00    -0.366 N 
ATOM     24  HN  UNK N   1      20.299  15.696  10.333  1.00  0.00     0.162 HD
BRANCH  23  25
HETATM   25  C   UNK N   1      20.711  14.192   8.917  0.00  0.00     0.083 A 
HETATM   26  C   UNK N   1      21.997  13.777   9.603  0.00  0.00     0.027 A 
HETATM   27  C   UNK N   1      20.668  13.288  10.132  0.00  0.00     0.027 A 
ENDBRANCH  23  25
BRANCH  22  28
HETATM   28  O   UNK N   1      19.864  17.718   9.119  0.00  0.00    -0.346 OA
HETATM   29  H   UNK N   1      19.720  17.768  10.043  0.00  0.00     0.219 HD
ENDBRANCH  22  28
ENDBRANCH  17  22
ENDBRANCH  11  15
BRANCH   5  30
HETATM   30  C   UNK N   1      28.089  18.338   4.421  0.00  0.00     0.148 C 
BRANCH  30  31
HETATM   31  N   UNK N   1      28.607  18.734   5.533  0.00  0.00    -0.370 N 
ATOM     32  HN  UNK N   1      28.933  19.700   5.592  1.00  0.00     0.161 HD
BRANCH  31  33
HETATM   33  C   UNK N   1      28.750  17.902   6.696  0.00  0.00     0.121 C 
BRANCH  33  34
HETATM   34  C   UNK N   1      28.292  18.700   7.903  0.00  0.00     0.015 C 
HETATM   35  C   UNK N   1      28.127  17.793   9.102  0.00  0.00     0.006 C 
ENDBRANCH  33  34
ENDBRANCH  31  33
ENDBRANCH  30  31
BRANCH  30  36
HETATM   36  O   UNK N   1      28.779  17.534   3.587  0.00  0.00    -0.346 OA
HETATM   37  H   UNK N   1      28.560  17.504   2.676  0.00  0.00     0.219 HD
ENDBRANCH  30  36
ENDBRANCH   5  30
TORSDOF 9
ENDMDL
MODEL 7
REMARK VINA RESULT:      -7.4      3.137      8.953
REMARK  9 active torsions:
REMARK  status: ('A' for Active; 'I' for Inactive)
REMARK    1  A    between atoms: C_9  and  C_4 
REMARK    2  A    between atoms: N_23  and  C_9 
REMARK    3  A    between atoms: C_21  and  C_15 
REMARK    4  A    between atoms: N_28  and  C_16 
REMARK    5  A    between atoms: C_22  and  C_17 
REMARK    6  A    between atoms: N_30  and  C_18 
REMARK    7  A    between atoms: O_33  and  C_21 
REMARK    8  A    between atoms: N_23  and  C_22 
REMARK    9  A    between atoms: O_34  and  C_22 
ROOT
HETATM    1  C   UNK N   1      30.778  17.497   5.031  0.00  0.00     0.052 C 
HETATM    2  C   UNK N   1      31.889  16.914   8.518  0.00  0.00     0.133 A 
HETATM    3  C   UNK N   1      28.505  17.393   9.720  0.00  0.00     0.199 A 
HETATM    4  C   UNK N   1      30.984  17.301   6.500  0.00  0.00    -0.013 A 
HETATM    5  C   UNK N   1      32.176  17.007   7.150  0.00  0.00     0.040 A 
HETATM    6  C   UNK N   1      30.021  17.374   7.481  0.00  0.00     0.106 A 
HETATM    7  C   UNK N   1      28.665  17.638   7.366  0.00  0.00     0.136 A 
HETATM    8  N   UNK N   1      27.917  17.639   8.504  0.00  0.00    -0.336 N 
ATOM      9  HN  UNK N   1      26.914  17.824   8.453  1.00  0.00     0.168 HD
HETATM   10  N   UNK N   1      29.850  17.142   9.797  0.00  0.00    -0.289 N 
HETATM   11  N   UNK N   1      28.195  17.854   6.190  0.00  0.00    -0.340 N 
ATOM     12  HN  UNK N   1      28.947  17.796   5.504  1.00  0.00     0.167 HD
HETATM   13  N   UNK N   1      30.566  17.140   8.673  0.00  0.00    -0.262 N 
HETATM   14  H   UNK N   1      30.279  16.968  10.665  0.00  0.00     0.188 HD
ENDROOT
BRANCH  11  15
HETATM   15  C   UNK N   1      26.971  18.148   5.533  0.00  0.00     0.040 A 
HETATM   16  C   UNK N   1      26.175  17.030   5.315  0.00  0.00     0.045 A 
HETATM   17  C   UNK N   1      24.931  17.087   4.704  0.00  0.00     0.017 A 
HETATM   18  C   UNK N   1      24.459  18.336   4.280  0.00  0.00     0.016 A 
HETATM   19  C   UNK N   1      25.243  19.487   4.470  0.00  0.00     0.010 A 
HETATM   20  C   UNK N   1      26.501  19.412   5.095  0.00  0.00    -0.035 A 
HETATM   21  C   UNK N   1      27.265  20.675   5.253  0.00  0.00     0.050 C 
BRANCH  17  22
HETATM   22  C   UNK N   1      24.190  15.791   4.565  0.00  0.00     0.146 C 
HETATM   23  N   UNK N   1      24.229  15.029   3.523  0.00  0.00    -0.366 N 
ATOM     24  HN  UNK N   1      23.665  14.180   3.549  1.00  0.00     0.162 HD
BRANCH  23  25
HETATM   25  C   UNK N   1      24.995  15.268   2.331  0.00  0.00     0.083 A 
HETATM   26  C   UNK N   1      25.735  13.997   1.967  0.00  0.00     0.027 A 
HETATM   27  C   UNK N   1      24.467  14.369   1.232  0.00  0.00     0.027 A 
ENDBRANCH  23  25
BRANCH  22  28
HETATM   28  O   UNK N   1      23.403  15.407   5.593  0.00  0.00    -0.346 OA
HETATM   29  H   UNK N   1      23.630  15.644   6.470  0.00  0.00     0.219 HD
ENDBRANCH  22  28
ENDBRANCH  17  22
ENDBRANCH  11  15
BRANCH   5  30
HETATM   30  C   UNK N   1      33.486  16.823   6.487  0.00  0.00     0.148 C 
BRANCH  30  31
HETATM   31  N   UNK N   1      33.937  15.628   6.318  0.00  0.00    -0.370 N 
ATOM     32  HN  UNK N   1      33.920  14.992   7.116  1.00  0.00     0.161 HD
BRANCH  31  33
HETATM   33  C   UNK N   1      34.461  15.134   5.074  0.00  0.00     0.121 C 
BRANCH  33  34
HETATM   34  C   UNK N   1      33.297  14.928   4.123  0.00  0.00     0.015 C 
HETATM   35  C   UNK N   1      33.404  15.869   2.945  0.00  0.00     0.006 C 
ENDBRANCH  33  34
ENDBRANCH  31  33
ENDBRANCH  30  31
BRANCH  30  36
HETATM   36  O   UNK N   1      34.197  17.894   6.080  0.00  0.00    -0.346 OA
HETATM   37  H   UNK N   1      34.871  18.245   6.628  0.00  0.00     0.219 HD
ENDBRANCH  30  36
ENDBRANCH   5  30
TORSDOF 9
ENDMDL
MODEL 8
REMARK VINA RESULT:      -7.3      2.250      8.889
REMARK  9 active torsions:
REMARK  status: ('A' for Active; 'I' for Inactive)
REMARK    1  A    between atoms: C_9  and  C_4 
REMARK    2  A    between atoms: N_23  and  C_9 
REMARK    3  A    between atoms: C_21  and  C_15 
REMARK    4  A    between atoms: N_28  and  C_16 
REMARK    5  A    between atoms: C_22  and  C_17 
REMARK    6  A    between atoms: N_30  and  C_18 
REMARK    7  A    between atoms: O_33  and  C_21 
REMARK    8  A    between atoms: N_23  and  C_22 
REMARK    9  A    between atoms: O_34  and  C_22 
ROOT
HETATM    1  C   UNK N   1      32.591  13.945   8.844  0.00  0.00     0.052 C 
HETATM    2  C   UNK N   1      35.262  15.969  10.424  0.00  0.00     0.133 A 
HETATM    3  C   UNK N   1      34.500  18.757   8.238  0.00  0.00     0.199 A 
HETATM    4  C   UNK N   1      33.600  14.943   9.318  0.00  0.00    -0.013 A 
HETATM    5  C   UNK N   1      34.534  14.776  10.333  0.00  0.00     0.040 A 
HETATM    6  C   UNK N   1      33.785  16.217   8.833  0.00  0.00     0.106 A 
HETATM    7  C   UNK N   1      33.111  16.880   7.819  0.00  0.00     0.136 A 
HETATM    8  N   UNK N   1      33.482  18.160   7.536  0.00  0.00    -0.336 N 
ATOM      9  HN  UNK N   1      33.001  18.677   6.799  1.00  0.00     0.168 HD
HETATM   10  N   UNK N   1      35.149  18.069   9.229  0.00  0.00    -0.289 N 
HETATM   11  N   UNK N   1      32.168  16.249   7.215  0.00  0.00    -0.340 N 
ATOM     12  HN  UNK N   1      32.078  15.311   7.606  1.00  0.00     0.167 HD
HETATM   13  N   UNK N   1      34.770  16.819   9.496  0.00  0.00    -0.262 N 
HETATM   14  H   UNK N   1      35.881  18.489   9.735  0.00  0.00     0.188 HD
ENDROOT
BRANCH  11  15
HETATM   15  C   UNK N   1      31.212  16.430   6.181  0.00  0.00     0.040 A 
HETATM   16  C   UNK N   1      29.968  16.846   6.641  0.00  0.00     0.045 A 
HETATM   17  C   UNK N   1      28.891  17.099   5.804  0.00  0.00     0.017 A 
HETATM   18  C   UNK N   1      29.068  16.919   4.426  0.00  0.00     0.016 A 
HETATM   19  C   UNK N   1      30.307  16.484   3.926  0.00  0.00     0.010 A 
HETATM   20  C   UNK N   1      31.391  16.236   4.787  0.00  0.00    -0.035 A 
HETATM   21  C   UNK N   1      32.663  15.776   4.177  0.00  0.00     0.050 C 
BRANCH  17  22
HETATM   22  C   UNK N   1      27.625  17.563   6.459  0.00  0.00     0.146 C 
HETATM   23  N   UNK N   1      27.152  18.763   6.377  0.00  0.00    -0.366 N 
ATOM     24  HN  UNK N   1      26.288  18.955   6.885  1.00  0.00     0.162 HD
BRANCH  23  25
HETATM   25  C   UNK N   1      27.731  19.850   5.638  0.00  0.00     0.083 A 
HETATM   26  C   UNK N   1      26.616  20.745   5.138  0.00  0.00     0.027 A 
HETATM   27  C   UNK N   1      27.414  21.144   6.359  0.00  0.00     0.027 A 
ENDBRANCH  23  25
BRANCH  22  28
HETATM   28  O   UNK N   1      26.946  16.672   7.211  0.00  0.00    -0.346 OA
HETATM   29  H   UNK N   1      27.207  16.510   8.096  0.00  0.00     0.219 HD
ENDBRANCH  22  28
ENDBRANCH  17  22
ENDBRANCH  11  15
BRANCH   5  30
HETATM   30  C   UNK N   1      34.696  13.555  11.151  0.00  0.00     0.148 C 
BRANCH  30  31
HETATM   31  N   UNK N   1      35.168  12.490  10.598  0.00  0.00    -0.370 N 
ATOM     32  HN  UNK N   1      34.645  11.621  10.708  1.00  0.00     0.161 HD
BRANCH  31  33
HETATM   33  C   UNK N   1      36.385  12.452   9.834  0.00  0.00     0.121 C 
BRANCH  33  34
HETATM   34  C   UNK N   1      36.117  11.667   8.563  0.00  0.00     0.015 C 
HETATM   35  C   UNK N   1      35.857  12.606   7.407  0.00  0.00     0.006 C 
ENDBRANCH  33  34
ENDBRANCH  31  33
ENDBRANCH  30  31
BRANCH  30  36
HETATM   36  O   UNK N   1      34.342  13.557  12.452  0.00  0.00    -0.346 OA
HETATM   37  H   UNK N   1      34.565  12.829  13.000  0.00  0.00     0.219 HD
ENDBRANCH  30  36
ENDBRANCH   5  30
TORSDOF 9
ENDMDL
MODEL 9
REMARK VINA RESULT:      -7.3      1.789      2.987
REMARK  9 active torsions:
REMARK  status: ('A' for Active; 'I' for Inactive)
REMARK    1  A    between atoms: C_9  and  C_4 
REMARK    2  A    between atoms: N_23  and  C_9 
REMARK    3  A    between atoms: C_21  and  C_15 
REMARK    4  A    between atoms: N_28  and  C_16 
REMARK    5  A    between atoms: C_22  and  C_17 
REMARK    6  A    between atoms: N_30  and  C_18 
REMARK    7  A    between atoms: O_33  and  C_21 
REMARK    8  A    between atoms: N_23  and  C_22 
REMARK    9  A    between atoms: O_34  and  C_22 
ROOT
HETATM    1  C   UNK N   1      30.493  16.676   8.172  0.00  0.00     0.052 C 
HETATM    2  C   UNK N   1      29.553  17.963   4.827  0.00  0.00     0.133 A 
HETATM    3  C   UNK N   1      32.713  16.837   3.459  0.00  0.00     0.199 A 
HETATM    4  C   UNK N   1      30.340  17.110   6.748  0.00  0.00    -0.013 A 
HETATM    5  C   UNK N   1      29.250  17.755   6.179  0.00  0.00     0.040 A 
HETATM    6  C   UNK N   1      31.260  16.946   5.737  0.00  0.00     0.106 A 
HETATM    7  C   UNK N   1      32.515  16.359   5.774  0.00  0.00     0.136 A 
HETATM    8  N   UNK N   1      33.231  16.309   4.616  0.00  0.00    -0.336 N 
ATOM      9  HN  UNK N   1      34.156  15.879   4.609  1.00  0.00     0.168 HD
HETATM   10  N   UNK N   1      31.472  17.416   3.461  0.00  0.00    -0.289 N 
HETATM   11  N   UNK N   1      32.921  15.887   6.898  0.00  0.00    -0.340 N 
ATOM     12  HN  UNK N   1      32.210  16.040   7.612  1.00  0.00     0.167 HD
HETATM   13  N   UNK N   1      30.783  17.452   4.601  0.00  0.00    -0.262 N 
HETATM   14  H   UNK N   1      31.096  17.799   2.636  0.00  0.00     0.188 HD
ENDROOT
BRANCH  11  15
HETATM   15  C   UNK N   1      34.038  15.223   7.471  0.00  0.00     0.040 A 
HETATM   16  C   UNK N   1      34.509  15.827   8.631  0.00  0.00     0.045 A 
HETATM   17  C   UNK N   1      35.581  15.338   9.364  0.00  0.00     0.017 A 
HETATM   18  C   UNK N   1      36.222  14.180   8.905  0.00  0.00     0.016 A 
HETATM   19  C   UNK N   1      35.784  13.551   7.728  0.00  0.00     0.010 A 
HETATM   20  C   UNK N   1      34.693  14.057   6.998  0.00  0.00    -0.035 A 
HETATM   21  C   UNK N   1      34.297  13.333   5.765  0.00  0.00     0.050 C 
BRANCH  17  22
HETATM   22  C   UNK N   1      35.948  16.096  10.604  0.00  0.00     0.146 C 
HETATM   23  N   UNK N   1      36.293  15.551  11.724  0.00  0.00    -0.366 N 
ATOM     24  HN  UNK N   1      36.503  16.180  12.499  1.00  0.00     0.162 HD
BRANCH  23  25
HETATM   25  C   UNK N   1      36.408  14.142  11.976  0.00  0.00     0.083 A 
HETATM   26  C   UNK N   1      36.344  13.910  13.472  0.00  0.00     0.027 A 
HETATM   27  C   UNK N   1      35.122  13.661  12.617  0.00  0.00     0.027 A 
ENDBRANCH  23  25
BRANCH  22  28
HETATM   28  O   UNK N   1      35.886  17.443  10.556  0.00  0.00    -0.346 OA
HETATM   29  H   UNK N   1      35.966  17.944  11.343  0.00  0.00     0.219 HD
ENDBRANCH  22  28
ENDBRANCH  17  22
ENDBRANCH  11  15
BRANCH   5  30
HETATM   30  C   UNK N   1      28.011  18.129   6.895  0.00  0.00     0.148 C 
BRANCH  30  31
HETATM   31  N   UNK N   1      27.898  19.323   7.367  0.00  0.00    -0.370 N 
ATOM     32  HN  UNK N   1      28.533  19.603   8.116  1.00  0.00     0.161 HD
BRANCH  31  33
HETATM   33  C   UNK N   1      26.937  20.285   6.904  0.00  0.00     0.121 C 
BRANCH  33  34
HETATM   34  C   UNK N   1      27.514  20.973   5.681  0.00  0.00     0.015 C 
HETATM   35  C   UNK N   1      26.754  20.566   4.438  0.00  0.00     0.006 C 
ENDBRANCH  33  34
ENDBRANCH  31  33
ENDBRANCH  30  31
BRANCH  30  36
HETATM   36  O   UNK N   1      27.022  17.226   7.058  0.00  0.00    -0.346 OA
HETATM   37  H   UNK N   1      26.914  16.793   7.882  0.00  0.00     0.219 HD
ENDBRANCH  30  36
ENDBRANCH   5  30
TORSDOF 9
ENDMDL
