REMARK  1 active torsions:
REMARK  status: ('A' for Active; 'I' for Inactive)
REMARK    1  A    between atoms: C_2  and  N_10 
ROOT
HETATM    1  C   UNK N   1       3.547   0.223  -0.107  0.00  0.00     0.057 A 
HETATM    2  C   UNK N   1       2.812   1.413  -0.040  0.00  0.00     0.047 A 
HETATM    3  C   UNK N   1       3.507   2.630  -0.018  0.00  0.00     0.118 A 
HETATM    4  N   UNK N   1       4.868   2.646  -0.052  0.00  0.00    -0.353 N 
ATOM      5  HN  UNK N   1       5.354   3.543  -0.039  1.00  0.00     0.166 HD
HETATM    6  C   UNK N   1       5.595   1.499  -0.104  0.00  0.00     0.125 A 
HETATM    7  C   UNK N   1       4.941   0.258  -0.141  0.00  0.00     0.074 A 
HETATM    8 Cl   UNK N   1       5.834  -1.253  -0.202  0.00  0.00    -0.081 Cl
HETATM    9 Cl   UNK N   1       7.349   1.599  -0.112  0.00  0.00    -0.063 Cl
ENDROOT
BRANCH   2  10
HETATM   10  N   UNK N   1       1.390   1.385   0.075  0.00  0.00    -0.377 N 
HETATM   11  C   UNK N   1       0.655   0.156   0.171  0.00  0.00     0.131 A 
HETATM   12  C   UNK N   1      -0.755   0.555   0.589  0.00  0.00     0.045 A 
HETATM   13  C   UNK N   1      -1.642   0.691  -0.628  0.00  0.00     0.122 A 
HETATM   14  C   UNK N   1      -0.793   2.078   0.608  0.00  0.00     0.101 A 
HETATM   15  N   UNK N   1      -1.622   2.148  -0.588  0.00  0.00    -0.414 N 
HETATM   16  H   UNK N   1      -2.018   2.897  -1.155  0.00  0.00     0.153 HD
HETATM   17  C   UNK N   1       0.617   2.571   0.301  0.00  0.00     0.148 A 
ENDBRANCH   2  10
TORSDOF 1
