REMARK  9 active torsions:
REMARK  status: ('A' for Active; 'I' for Inactive)
REMARK    1  A    between atoms: C_9  and  C_4 
REMARK    2  A    between atoms: N_23  and  C_9 
REMARK    3  A    between atoms: C_21  and  C_15 
REMARK    4  A    between atoms: N_28  and  C_16 
REMARK    5  A    between atoms: C_22  and  C_17 
REMARK    6  A    between atoms: N_30  and  C_18 
REMARK    7  A    between atoms: O_33  and  C_21 
REMARK    8  A    between atoms: N_23  and  C_22 
REMARK    9  A    between atoms: O_34  and  C_22 
ROOT
HETATM    1  C   UNK N   1       0.291   3.118  -0.096  0.00  0.00     0.052 C 
HETATM    2  C   UNK N   1      -0.044  -0.571  -0.013  0.00  0.00     0.133 A 
HETATM    3  C   UNK N   1       3.560  -0.938   0.070  0.00  0.00     0.199 A 
HETATM    4  C   UNK N   1       0.409   1.627  -0.059  0.00  0.00    -0.013 A 
HETATM    5  C   UNK N   1      -0.627   0.702  -0.051  0.00  0.00     0.040 A 
HETATM    6  C   UNK N   1       1.575   0.897  -0.024  0.00  0.00     0.106 A 
HETATM    7  C   UNK N   1       2.890   1.336  -0.014  0.00  0.00     0.136 A 
HETATM    8  N   UNK N   1       3.876   0.398   0.038  0.00  0.00    -0.336 N 
ATOM      9  HN  UNK N   1       4.854   0.689   0.052  1.00  0.00     0.168 HD
HETATM   10  N   UNK N   1       2.249  -1.336   0.052  0.00  0.00    -0.289 N 
HETATM   11  N   UNK N   1       3.097   2.604  -0.043  0.00  0.00    -0.340 N 
ATOM     12  HN  UNK N   1       2.205   3.097  -0.076  1.00  0.00     0.167 HD
HETATM   13  N   UNK N   1       1.297  -0.405   0.006  0.00  0.00    -0.262 N 
HETATM   14  H   UNK N   1       2.015  -2.292   0.072  0.00  0.00     0.188 HD
ENDROOT
BRANCH  11  15
HETATM   15  C   UNK N   1       4.162   3.543  -0.045  0.00  0.00     0.040 A 
HETATM   16  C   UNK N   1       3.736   4.866  -0.009  0.00  0.00     0.045 A 
HETATM   17  C   UNK N   1       4.606   5.947   0.011  0.00  0.00     0.017 A 
HETATM   18  C   UNK N   1       5.983   5.688  -0.012  0.00  0.00     0.016 A 
HETATM   19  C   UNK N   1       6.450   4.364  -0.064  0.00  0.00     0.010 A 
HETATM   20  C   UNK N   1       5.555   3.279  -0.080  0.00  0.00    -0.035 A 
HETATM   21  C   UNK N   1       6.132   1.913  -0.139  0.00  0.00     0.050 C 
BRANCH  17  22
HETATM   22  C   UNK N   1       3.984   7.309   0.073  0.00  0.00     0.146 C 
HETATM   23  N   UNK N   1       4.642   8.413   0.207  0.00  0.00    -0.366 N 
ATOM     24  HN  UNK N   1       4.097   9.274   0.252  1.00  0.00     0.162 HD
BRANCH  23  25
HETATM   25  C   UNK N   1       6.070   8.538   0.299  0.00  0.00     0.083 A 
HETATM   26  C   UNK N   1       6.539   9.528  -0.748  0.00  0.00     0.027 A 
HETATM   27  C   UNK N   1       6.404   9.962   0.694  0.00  0.00     0.027 A 
ENDBRANCH  23  25
BRANCH  22  28
HETATM   28  O   UNK N   1       2.638   7.386   0.012  0.00  0.00    -0.346 OA
HETATM   29  H   UNK N   1       2.218   8.222  -0.031  0.00  0.00     0.219 HD
ENDBRANCH  22  28
ENDBRANCH  17  22
ENDBRANCH  11  15
BRANCH   5  30
HETATM   30  C   UNK N   1      -2.068   1.035  -0.069  0.00  0.00     0.148 C 
BRANCH  30  31
HETATM   31  N   UNK N   1      -2.423   2.274  -0.045  0.00  0.00    -0.370 N 
ATOM     32  HN  UNK N   1      -1.688   2.982  -0.021  1.00  0.00     0.161 HD
BRANCH  31  33
HETATM   33  C   UNK N   1      -3.789   2.720  -0.052  0.00  0.00     0.121 C 
BRANCH  33  34
HETATM   34  C   UNK N   1      -3.789   4.233   0.066  0.00  0.00     0.015 C 
HETATM   35  C   UNK N   1      -5.193   4.774  -0.084  0.00  0.00     0.006 C 
ENDBRANCH  33  34
ENDBRANCH  31  33
ENDBRANCH  30  31
BRANCH  30  36
HETATM   36  O   UNK N   1      -2.992   0.053  -0.098  0.00  0.00    -0.346 OA
HETATM   37  H   UNK N   1      -3.904   0.268  -0.118  0.00  0.00     0.219 HD
ENDBRANCH  30  36
ENDBRANCH   5  30
TORSDOF 9
