MODEL 1
REMARK VINA RESULT:      -7.8      0.000      0.000
REMARK  5 active torsions:
REMARK  status: ('A' for Active; 'I' for Inactive)
REMARK       I    between atoms: N_4  and  C_16 
REMARK    1  A    between atoms: C_7  and  C_8 
REMARK    2  A    between atoms: C_7  and  O_14 
REMARK    3  A    between atoms: C_18  and  C_16 
REMARK    4  A    between atoms: N_20  and  C_31 
REMARK    5  A    between atoms: C_22  and  C_23 
ROOT
HETATM    1  C   UNK N   1      20.858  15.732   8.659  0.00  0.00     0.015 C 
HETATM    2  C   UNK N   1      20.631  14.505   7.788  0.00  0.00     0.039 C 
HETATM    3  C   UNK N   1      20.261  14.995   6.378  0.00  0.00     0.133 C 
HETATM    4  N   UNK N   1      20.848  14.147   5.363  0.00  0.00    -0.351 N 
HETATM    5  C   UNK N   1      20.753  12.718   5.539  0.00  0.00     0.133 C 
HETATM    6  C   UNK N   1      21.455  12.321   6.847  0.00  0.00     0.039 C 
HETATM    7  C   UNK N   1      21.842  13.524   7.768  0.00  0.00     0.094 C 
HETATM    8  C   UNK N   1      22.620  11.394   6.527  0.00  0.00     0.015 C 
HETATM    9  C   UNK N   1      21.559  14.679   4.329  0.00  0.00     0.226 C 
HETATM   10  O   UNK N   1      21.698  15.895   4.256  0.00  0.00    -0.273 OA
ENDROOT
BRANCH   9  11
HETATM   11  C   UNK N   1      22.177  13.788   3.271  0.00  0.00     0.116 C 
HETATM   12  C   UNK N   1      23.646  13.509   3.550  0.00  0.00     0.288 C 
HETATM   13  N   UNK N   1      24.336  13.459   2.255  0.00  0.00     0.098 N 
HETATM   14  C   UNK N   1      23.275  13.447   1.244  0.00  0.00     0.283 C 
HETATM   15  C   UNK N   1      22.187  14.307   1.849  0.00  0.00     0.065 C 
BRANCH  13  16
HETATM   16  C   UNK N   1      25.296  12.338   2.159  0.00  0.00     0.149 C 
HETATM   17  C   UNK N   1      26.741  12.817   2.059  0.00  0.00     0.048 C 
HETATM   18  C   UNK N   1      25.165  11.425   3.367  0.00  0.00     0.048 C 
HETATM   19  C   UNK N   1      24.979  11.495   0.931  0.00  0.00     0.048 C 
ENDBRANCH  13  16
BRANCH  15  20
HETATM   20  C   UNK N   1      20.815  14.336   1.195  0.00  0.00    -0.013 A 
HETATM   21  C   UNK N   1      20.187  13.106   0.955  0.00  0.00     0.013 A 
HETATM   22  C   UNK N   1      18.927  13.037   0.368  0.00  0.00     0.043 A 
HETATM   23  C   UNK N   1      18.264  14.208   0.013  0.00  0.00     0.119 A 
HETATM   24  C   UNK N   1      18.864  15.447   0.249  0.00  0.00     0.085 A 
HETATM   25  F   UNK N   1      17.039  14.137  -0.560  0.00  0.00    -0.206 F 
HETATM   26  C   UNK N   1      20.133  15.523   0.840  0.00  0.00     0.126 A 
HETATM   27  F   UNK N   1      20.681  16.745   1.050  0.00  0.00    -0.205 F 
ENDBRANCH  15  20
ENDBRANCH   9  11
BRANCH   7  28
HETATM   28  C   UNK N   1      22.221  12.997   9.146  0.00  0.00    -0.023 A 
HETATM   29  C   UNK N   1      23.577  12.909   9.505  0.00  0.00     0.010 A 
HETATM   30  C   UNK N   1      23.952  12.428  10.761  0.00  0.00     0.001 A 
HETATM   31  C   UNK N   1      22.976  12.024  11.672  0.00  0.00     0.000 A 
HETATM   32  C   UNK N   1      21.625  12.104  11.330  0.00  0.00     0.001 A 
HETATM   33  C   UNK N   1      21.249  12.590  10.076  0.00  0.00     0.010 A 
ENDBRANCH   7  28
BRANCH   7  34
HETATM   34  O   UNK N   1      22.944  14.208   7.234  0.00  0.00    -0.384 OA
HETATM   35  H   UNK N   1      23.734  14.763   7.332  0.00  0.00     0.211 HD
ENDBRANCH   7  34
TORSDOF 5
ENDMDL
MODEL 2
REMARK VINA RESULT:      -7.7      5.577      8.853
REMARK  5 active torsions:
REMARK  status: ('A' for Active; 'I' for Inactive)
REMARK       I    between atoms: N_4  and  C_16 
REMARK    1  A    between atoms: C_7  and  C_8 
REMARK    2  A    between atoms: C_7  and  O_14 
REMARK    3  A    between atoms: C_18  and  C_16 
REMARK    4  A    between atoms: N_20  and  C_31 
REMARK    5  A    between atoms: C_22  and  C_23 
ROOT
HETATM    1  C   UNK N   1      23.075  13.532   4.395  0.00  0.00     0.015 C 
HETATM    2  C   UNK N   1      23.978  14.600   3.795  0.00  0.00     0.039 C 
HETATM    3  C   UNK N   1      24.511  15.464   4.949  0.00  0.00     0.133 C 
HETATM    4  N   UNK N   1      25.887  15.849   4.717  0.00  0.00    -0.351 N 
HETATM    5  C   UNK N   1      26.242  16.328   3.402  0.00  0.00     0.133 C 
HETATM    6  C   UNK N   1      25.955  15.228   2.368  0.00  0.00     0.039 C 
HETATM    7  C   UNK N   1      25.129  14.019   2.918  0.00  0.00     0.094 C 
HETATM    8  C   UNK N   1      27.258  14.824   1.692  0.00  0.00     0.015 C 
HETATM    9  C   UNK N   1      26.838  15.666   5.675  0.00  0.00     0.226 C 
HETATM   10  O   UNK N   1      26.521  15.173   6.752  0.00  0.00    -0.273 OA
ENDROOT
BRANCH   9  11
HETATM   11  C   UNK N   1      28.279  16.066   5.427  0.00  0.00     0.116 C 
HETATM   12  C   UNK N   1      29.212  14.864   5.444  0.00  0.00     0.288 C 
HETATM   13  N   UNK N   1      30.474  15.299   6.054  0.00  0.00     0.098 N 
HETATM   14  C   UNK N   1      30.382  16.758   6.152  0.00  0.00     0.283 C 
HETATM   15  C   UNK N   1      28.915  17.013   6.422  0.00  0.00     0.065 C 
BRANCH  13  16
HETATM   16  C   UNK N   1      31.664  14.801   5.330  0.00  0.00     0.149 C 
HETATM   17  C   UNK N   1      32.493  13.834   6.169  0.00  0.00     0.048 C 
HETATM   18  C   UNK N   1      31.246  14.101   4.048  0.00  0.00     0.048 C 
HETATM   19  C   UNK N   1      32.548  15.973   4.926  0.00  0.00     0.048 C 
ENDBRANCH  13  16
BRANCH  15  20
HETATM   20  C   UNK N   1      28.382  18.434   6.345  0.00  0.00    -0.013 A 
HETATM   21  C   UNK N   1      28.289  19.022   5.075  0.00  0.00     0.013 A 
HETATM   22  C   UNK N   1      27.805  20.316   4.908  0.00  0.00     0.043 A 
HETATM   23  C   UNK N   1      27.396  21.050   6.018  0.00  0.00     0.119 A 
HETATM   24  C   UNK N   1      27.471  20.485   7.293  0.00  0.00     0.085 A 
HETATM   25  F   UNK N   1      26.927  22.309   5.853  0.00  0.00    -0.206 F 
HETATM   26  C   UNK N   1      27.958  19.181   7.467  0.00  0.00     0.126 A 
HETATM   27  F   UNK N   1      28.015  18.671   8.721  0.00  0.00    -0.205 F 
ENDBRANCH  15  20
ENDBRANCH   9  11
BRANCH   7  28
HETATM   28  C   UNK N   1      24.637  13.177   1.748  0.00  0.00    -0.023 A 
HETATM   29  C   UNK N   1      23.823  13.766   0.764  0.00  0.00     0.010 A 
HETATM   30  C   UNK N   1      23.357  13.017  -0.318  0.00  0.00     0.001 A 
HETATM   31  C   UNK N   1      23.695  11.668  -0.429  0.00  0.00     0.000 A 
HETATM   32  C   UNK N   1      24.501  11.068   0.540  0.00  0.00     0.001 A 
HETATM   33  C   UNK N   1      24.972  11.818   1.621  0.00  0.00     0.010 A 
ENDBRANCH   7  28
BRANCH   7  34
HETATM   34  O   UNK N   1      25.934  13.215   3.737  0.00  0.00    -0.384 OA
HETATM   35  H   UNK N   1      26.159  12.827   4.598  0.00  0.00     0.211 HD
ENDBRANCH   7  34
TORSDOF 5
ENDMDL
MODEL 3
REMARK VINA RESULT:      -7.7     12.384     15.131
REMARK  5 active torsions:
REMARK  status: ('A' for Active; 'I' for Inactive)
REMARK       I    between atoms: N_4  and  C_16 
REMARK    1  A    between atoms: C_7  and  C_8 
REMARK    2  A    between atoms: C_7  and  O_14 
REMARK    3  A    between atoms: C_18  and  C_16 
REMARK    4  A    between atoms: N_20  and  C_31 
REMARK    5  A    between atoms: C_22  and  C_23 
ROOT
HETATM    1  C   UNK N   1      37.051  14.513  14.845  0.00  0.00     0.015 C 
HETATM    2  C   UNK N   1      35.990  13.978  13.894  0.00  0.00     0.039 C 
HETATM    3  C   UNK N   1      35.651  15.095  12.894  0.00  0.00     0.133 C 
HETATM    4  N   UNK N   1      35.419  14.555  11.572  0.00  0.00    -0.351 N 
HETATM    5  C   UNK N   1      34.586  13.382  11.457  0.00  0.00     0.133 C 
HETATM    6  C   UNK N   1      35.221  12.231  12.253  0.00  0.00     0.039 C 
HETATM    7  C   UNK N   1      36.407  12.657  13.178  0.00  0.00     0.094 C 
HETATM    8  C   UNK N   1      35.563  11.094  11.300  0.00  0.00     0.015 C 
HETATM    9  C   UNK N   1      36.051  15.074  10.481  0.00  0.00     0.226 C 
HETATM   10  O   UNK N   1      36.824  16.015  10.624  0.00  0.00    -0.273 OA
ENDROOT
BRANCH   9  11
HETATM   11  C   UNK N   1      35.811  14.503   9.098  0.00  0.00     0.116 C 
HETATM   12  C   UNK N   1      37.019  13.737   8.583  0.00  0.00     0.288 C 
HETATM   13  N   UNK N   1      37.106  13.977   7.137  0.00  0.00     0.098 N 
HETATM   14  C   UNK N   1      35.851  14.642   6.773  0.00  0.00     0.283 C 
HETATM   15  C   UNK N   1      35.523  15.487   7.984  0.00  0.00     0.065 C 
BRANCH  13  16
HETATM   16  C   UNK N   1      37.402  12.750   6.367  0.00  0.00     0.149 C 
HETATM   17  C   UNK N   1      37.667  13.038   4.892  0.00  0.00     0.048 C 
HETATM   18  C   UNK N   1      38.611  12.039   6.951  0.00  0.00     0.048 C 
HETATM   19  C   UNK N   1      36.229  11.784   6.468  0.00  0.00     0.048 C 
ENDBRANCH  13  16
BRANCH  15  20
HETATM   20  C   UNK N   1      34.156  16.144   8.083  0.00  0.00    -0.013 A 
HETATM   21  C   UNK N   1      33.036  15.302   8.137  0.00  0.00     0.013 A 
HETATM   22  C   UNK N   1      31.746  15.815   8.236  0.00  0.00     0.043 A 
HETATM   23  C   UNK N   1      31.551  17.193   8.288  0.00  0.00     0.119 A 
HETATM   24  C   UNK N   1      32.651  18.054   8.243  0.00  0.00     0.085 A 
HETATM   25  F   UNK N   1      30.296  17.689   8.382  0.00  0.00    -0.206 F 
HETATM   26  C   UNK N   1      33.953  17.542   8.144  0.00  0.00     0.126 A 
HETATM   27  F   UNK N   1      34.991  18.412   8.102  0.00  0.00    -0.205 F 
ENDBRANCH  15  20
ENDBRANCH   9  11
BRANCH   7  28
HETATM   28  C   UNK N   1      36.725  11.519  14.138  0.00  0.00    -0.023 A 
HETATM   29  C   UNK N   1      37.978  10.884  14.068  0.00  0.00     0.010 A 
HETATM   30  C   UNK N   1      38.296   9.836  14.936  0.00  0.00     0.001 A 
HETATM   31  C   UNK N   1      37.363   9.406  15.880  0.00  0.00     0.000 A 
HETATM   32  C   UNK N   1      36.114  10.025  15.960  0.00  0.00     0.001 A 
HETATM   33  C   UNK N   1      35.798  11.077  15.097  0.00  0.00     0.010 A 
ENDBRANCH   7  28
BRANCH   7  34
HETATM   34  O   UNK N   1      37.549  12.924  12.409  0.00  0.00    -0.384 OA
HETATM   35  H   UNK N   1      38.284  12.639  11.843  0.00  0.00     0.211 HD
ENDBRANCH   7  34
TORSDOF 5
ENDMDL
MODEL 4
REMARK VINA RESULT:      -7.5     14.124     16.758
REMARK  5 active torsions:
REMARK  status: ('A' for Active; 'I' for Inactive)
REMARK       I    between atoms: N_4  and  C_16 
REMARK    1  A    between atoms: C_7  and  C_8 
REMARK    2  A    between atoms: C_7  and  O_14 
REMARK    3  A    between atoms: C_18  and  C_16 
REMARK    4  A    between atoms: N_20  and  C_31 
REMARK    5  A    between atoms: C_22  and  C_23 
ROOT
HETATM    1  C   UNK N   1      35.450  13.055  18.139  0.00  0.00     0.015 C 
HETATM    2  C   UNK N   1      34.765  12.392  16.953  0.00  0.00     0.039 C 
HETATM    3  C   UNK N   1      34.756  13.402  15.793  0.00  0.00     0.133 C 
HETATM    4  N   UNK N   1      34.975  12.738  14.526  0.00  0.00    -0.351 N 
HETATM    5  C   UNK N   1      34.241  11.524  14.263  0.00  0.00     0.133 C 
HETATM    6  C   UNK N   1      34.596  10.476  15.329  0.00  0.00     0.039 C 
HETATM    7  C   UNK N   1      35.410  11.034  16.542  0.00  0.00     0.094 C 
HETATM    8  C   UNK N   1      35.246   9.276  14.654  0.00  0.00     0.015 C 
HETATM    9  C   UNK N   1      35.922  13.186  13.654  0.00  0.00     0.226 C 
HETATM   10  O   UNK N   1      36.593  14.170  13.947  0.00  0.00    -0.273 OA
ENDROOT
BRANCH   9  11
HETATM   11  C   UNK N   1      36.153  12.486  12.330  0.00  0.00     0.116 C 
HETATM   12  C   UNK N   1      37.128  11.326  12.464  0.00  0.00     0.288 C 
HETATM   13  N   UNK N   1      37.930  11.285  11.235  0.00  0.00     0.098 N 
HETATM   14  C   UNK N   1      37.279  12.215  10.308  0.00  0.00     0.283 C 
HETATM   15  C   UNK N   1      36.746  13.310  11.206  0.00  0.00     0.065 C 
BRANCH  13  16
HETATM   16  C   UNK N   1      38.109   9.913  10.712  0.00  0.00     0.149 C 
HETATM   17  C   UNK N   1      39.259   9.816   9.714  0.00  0.00     0.048 C 
HETATM   18  C   UNK N   1      38.369   8.943  11.852  0.00  0.00     0.048 C 
HETATM   19  C   UNK N   1      36.831   9.454  10.023  0.00  0.00     0.048 C 
ENDBRANCH  13  16
BRANCH  15  20
HETATM   20  C   UNK N   1      35.791  14.343  10.631  0.00  0.00    -0.013 A 
HETATM   21  C   UNK N   1      36.143  15.693  10.763  0.00  0.00     0.013 A 
HETATM   22  C   UNK N   1      35.333  16.707  10.260  0.00  0.00     0.043 A 
HETATM   23  C   UNK N   1      34.147  16.385   9.606  0.00  0.00     0.119 A 
HETATM   24  C   UNK N   1      33.776  15.046   9.455  0.00  0.00     0.085 A 
HETATM   25  F   UNK N   1      33.360  17.373   9.120  0.00  0.00    -0.206 F 
HETATM   26  C   UNK N   1      34.589  14.021   9.960  0.00  0.00     0.126 A 
HETATM   27  F   UNK N   1      34.192  12.736   9.793  0.00  0.00    -0.205 F 
ENDBRANCH  15  20
ENDBRANCH   9  11
BRANCH   7  28
HETATM   28  C   UNK N   1      35.413   9.999  17.660  0.00  0.00    -0.023 A 
HETATM   29  C   UNK N   1      36.637   9.553  18.188  0.00  0.00     0.010 A 
HETATM   30  C   UNK N   1      36.669   8.604  19.212  0.00  0.00     0.001 A 
HETATM   31  C   UNK N   1      35.477   8.084  19.717  0.00  0.00     0.000 A 
HETATM   32  C   UNK N   1      34.253   8.516  19.203  0.00  0.00     0.001 A 
HETATM   33  C   UNK N   1      34.220   9.469  18.182  0.00  0.00     0.010 A 
ENDBRANCH   7  28
BRANCH   7  34
HETATM   34  O   UNK N   1      36.737  11.282  16.162  0.00  0.00    -0.384 OA
HETATM   35  H   UNK N   1      37.432  11.865  15.818  0.00  0.00     0.211 HD
ENDBRANCH   7  34
TORSDOF 5
ENDMDL
MODEL 5
REMARK VINA RESULT:      -7.4      4.130      7.488
REMARK  5 active torsions:
REMARK  status: ('A' for Active; 'I' for Inactive)
REMARK       I    between atoms: N_4  and  C_16 
REMARK    1  A    between atoms: C_7  and  C_8 
REMARK    2  A    between atoms: C_7  and  O_14 
REMARK    3  A    between atoms: C_18  and  C_16 
REMARK    4  A    between atoms: N_20  and  C_31 
REMARK    5  A    between atoms: C_22  and  C_23 
ROOT
HETATM    1  C   UNK N   1      28.810  14.963   2.295  0.00  0.00     0.015 C 
HETATM    2  C   UNK N   1      28.003  15.873   3.209  0.00  0.00     0.039 C 
HETATM    3  C   UNK N   1      26.515  15.544   3.001  0.00  0.00     0.133 C 
HETATM    4  N   UNK N   1      25.789  15.614   4.251  0.00  0.00    -0.351 N 
HETATM    5  C   UNK N   1      26.033  16.747   5.112  0.00  0.00     0.133 C 
HETATM    6  C   UNK N   1      27.516  16.770   5.509  0.00  0.00     0.039 C 
HETATM    7  C   UNK N   1      28.420  15.778   4.707  0.00  0.00     0.094 C 
HETATM    8  C   UNK N   1      27.631  16.620   7.020  0.00  0.00     0.015 C 
HETATM    9  C   UNK N   1      24.981  14.592   4.651  0.00  0.00     0.226 C 
HETATM   10  O   UNK N   1      24.865  13.601   3.938  0.00  0.00    -0.273 OA
ENDROOT
BRANCH   9  11
HETATM   11  C   UNK N   1      24.226  14.666   5.963  0.00  0.00     0.116 C 
HETATM   12  C   UNK N   1      24.462  13.434   6.824  0.00  0.00     0.288 C 
HETATM   13  N   UNK N   1      23.203  13.139   7.520  0.00  0.00     0.098 N 
HETATM   14  C   UNK N   1      22.340  14.299   7.282  0.00  0.00     0.283 C 
HETATM   15  C   UNK N   1      22.716  14.753   5.888  0.00  0.00     0.065 C 
BRANCH  13  16
HETATM   16  C   UNK N   1      23.401  12.796   8.945  0.00  0.00     0.149 C 
HETATM   17  C   UNK N   1      22.374  13.465   9.852  0.00  0.00     0.048 C 
HETATM   18  C   UNK N   1      23.320  11.291   9.142  0.00  0.00     0.048 C 
HETATM   19  C   UNK N   1      24.793  13.225   9.388  0.00  0.00     0.048 C 
ENDBRANCH  13  16
BRANCH  15  20
HETATM   20  C   UNK N   1      22.202  16.089   5.378  0.00  0.00    -0.013 A 
HETATM   21  C   UNK N   1      21.949  17.089   6.327  0.00  0.00     0.013 A 
HETATM   22  C   UNK N   1      21.484  18.346   5.950  0.00  0.00     0.043 A 
HETATM   23  C   UNK N   1      21.267  18.629   4.605  0.00  0.00     0.119 A 
HETATM   24  C   UNK N   1      21.519  17.652   3.638  0.00  0.00     0.085 A 
HETATM   25  F   UNK N   1      20.813  19.851   4.242  0.00  0.00    -0.206 F 
HETATM   26  C   UNK N   1      21.988  16.384   4.012  0.00  0.00     0.126 A 
HETATM   27  F   UNK N   1      22.218  15.465   3.044  0.00  0.00    -0.205 F 
ENDBRANCH  15  20
ENDBRANCH   9  11
BRANCH   7  28
HETATM   28  C   UNK N   1      29.883  16.123   4.955  0.00  0.00    -0.023 A 
HETATM   29  C   UNK N   1      30.699  15.220   5.658  0.00  0.00     0.010 A 
HETATM   30  C   UNK N   1      32.043  15.512   5.900  0.00  0.00     0.001 A 
HETATM   31  C   UNK N   1      32.587  16.714   5.446  0.00  0.00     0.000 A 
HETATM   32  C   UNK N   1      31.790  17.622   4.748  0.00  0.00     0.001 A 
HETATM   33  C   UNK N   1      30.446  17.328   4.501  0.00  0.00     0.010 A 
ENDBRANCH   7  28
BRANCH   7  34
HETATM   34  O   UNK N   1      28.195  14.462   5.137  0.00  0.00    -0.384 OA
HETATM   35  H   UNK N   1      28.466  13.535   5.228  0.00  0.00     0.211 HD
ENDBRANCH   7  34
TORSDOF 5
ENDMDL
MODEL 6
REMARK VINA RESULT:      -7.1      6.025      9.793
REMARK  5 active torsions:
REMARK  status: ('A' for Active; 'I' for Inactive)
REMARK       I    between atoms: N_4  and  C_16 
REMARK    1  A    between atoms: C_7  and  C_8 
REMARK    2  A    between atoms: C_7  and  O_14 
REMARK    3  A    between atoms: C_18  and  C_16 
REMARK    4  A    between atoms: N_20  and  C_31 
REMARK    5  A    between atoms: C_22  and  C_23 
ROOT
HETATM    1  C   UNK N   1      27.583  11.938   1.453  0.00  0.00     0.015 C 
HETATM    2  C   UNK N   1      27.062  12.517   2.761  0.00  0.00     0.039 C 
HETATM    3  C   UNK N   1      28.247  13.178   3.484  0.00  0.00     0.133 C 
HETATM    4  N   UNK N   1      27.835  14.393   4.153  0.00  0.00    -0.351 N 
HETATM    5  C   UNK N   1      26.612  14.361   4.921  0.00  0.00     0.133 C 
HETATM    6  C   UNK N   1      25.442  13.997   3.994  0.00  0.00     0.039 C 
HETATM    7  C   UNK N   1      25.868  13.500   2.573  0.00  0.00     0.094 C 
HETATM    8  C   UNK N   1      24.448  15.150   3.968  0.00  0.00     0.015 C 
HETATM    9  C   UNK N   1      28.520  15.558   3.978  0.00  0.00     0.226 C 
HETATM   10  O   UNK N   1      29.504  15.573   3.247  0.00  0.00    -0.273 OA
ENDROOT
BRANCH   9  11
HETATM   11  C   UNK N   1      28.082  16.830   4.675  0.00  0.00     0.116 C 
HETATM   12  C   UNK N   1      27.107  17.635   3.829  0.00  0.00     0.288 C 
HETATM   13  N   UNK N   1      27.397  19.055   4.059  0.00  0.00     0.098 N 
HETATM   14  C   UNK N   1      28.327  19.089   5.192  0.00  0.00     0.283 C 
HETATM   15  C   UNK N   1      29.159  17.838   5.016  0.00  0.00     0.065 C 
BRANCH  13  16
HETATM   16  C   UNK N   1      26.175  19.869   4.237  0.00  0.00     0.149 C 
HETATM   17  C   UNK N   1      26.331  20.921   5.331  0.00  0.00     0.048 C 
HETATM   18  C   UNK N   1      25.812  20.567   2.937  0.00  0.00     0.048 C 
HETATM   19  C   UNK N   1      25.003  18.966   4.596  0.00  0.00     0.048 C 
ENDBRANCH  13  16
BRANCH  15  20
HETATM   20  C   UNK N   1      30.081  17.395   6.140  0.00  0.00    -0.013 A 
HETATM   21  C   UNK N   1      31.422  17.146   5.817  0.00  0.00     0.013 A 
HETATM   22  C   UNK N   1      32.340  16.744   6.783  0.00  0.00     0.043 A 
HETATM   23  C   UNK N   1      31.930  16.588   8.104  0.00  0.00     0.119 A 
HETATM   24  C   UNK N   1      30.600  16.837   8.455  0.00  0.00     0.085 A 
HETATM   25  F   UNK N   1      32.823  16.195   9.041  0.00  0.00    -0.206 F 
HETATM   26  C   UNK N   1      29.672  17.242   7.485  0.00  0.00     0.126 A 
HETATM   27  F   UNK N   1      28.392  17.473   7.867  0.00  0.00    -0.205 F 
ENDBRANCH  15  20
ENDBRANCH   9  11
BRANCH   7  28
HETATM   28  C   UNK N   1      24.665  12.872   1.882  0.00  0.00    -0.023 A 
HETATM   29  C   UNK N   1      24.169  13.445   0.698  0.00  0.00     0.010 A 
HETATM   30  C   UNK N   1      23.066  12.890   0.045  0.00  0.00     0.001 A 
HETATM   31  C   UNK N   1      22.442  11.759   0.570  0.00  0.00     0.000 A 
HETATM   32  C   UNK N   1      22.922  11.179   1.746  0.00  0.00     0.001 A 
HETATM   33  C   UNK N   1      24.028  11.730   2.398  0.00  0.00     0.010 A 
ENDBRANCH   7  28
BRANCH   7  34
HETATM   34  O   UNK N   1      26.314  14.580   1.797  0.00  0.00    -0.384 OA
HETATM   35  H   UNK N   1      26.773  14.944   1.023  0.00  0.00     0.211 HD
ENDBRANCH   7  34
TORSDOF 5
ENDMDL
MODEL 7
REMARK VINA RESULT:      -7.1     13.058     16.148
REMARK  5 active torsions:
REMARK  status: ('A' for Active; 'I' for Inactive)
REMARK       I    between atoms: N_4  and  C_16 
REMARK    1  A    between atoms: C_7  and  C_8 
REMARK    2  A    between atoms: C_7  and  O_14 
REMARK    3  A    between atoms: C_18  and  C_16 
REMARK    4  A    between atoms: N_20  and  C_31 
REMARK    5  A    between atoms: C_22  and  C_23 
ROOT
HETATM    1  C   UNK N   1      34.590   9.476  13.587  0.00  0.00     0.015 C 
HETATM    2  C   UNK N   1      35.664  10.435  13.094  0.00  0.00     0.039 C 
HETATM    3  C   UNK N   1      35.720  10.326  11.561  0.00  0.00     0.133 C 
HETATM    4  N   UNK N   1      35.957  11.619  10.958  0.00  0.00    -0.351 N 
HETATM    5  C   UNK N   1      36.984  12.456  11.532  0.00  0.00     0.133 C 
HETATM    6  C   UNK N   1      36.630  12.757  12.997  0.00  0.00     0.039 C 
HETATM    7  C   UNK N   1      35.452  11.904  13.570  0.00  0.00     0.094 C 
HETATM    8  C   UNK N   1      36.440  14.258  13.167  0.00  0.00     0.015 C 
HETATM    9  C   UNK N   1      35.166  12.077   9.947  0.00  0.00     0.226 C 
HETATM   10  O   UNK N   1      34.244  11.380   9.540  0.00  0.00    -0.273 OA
ENDROOT
BRANCH   9  11
HETATM   11  C   UNK N   1      35.413  13.435   9.320  0.00  0.00     0.116 C 
HETATM   12  C   UNK N   1      34.156  14.293   9.311  0.00  0.00     0.288 C 
HETATM   13  N   UNK N   1      34.168  15.073   8.068  0.00  0.00     0.098 N 
HETATM   14  C   UNK N   1      35.503  14.879   7.493  0.00  0.00     0.283 C 
HETATM   15  C   UNK N   1      35.859  13.458   7.873  0.00  0.00     0.065 C 
BRANCH  13  16
HETATM   16  C   UNK N   1      33.782  16.486   8.272  0.00  0.00     0.149 C 
HETATM   17  C   UNK N   1      32.301  16.643   8.602  0.00  0.00     0.048 C 
HETATM   18  C   UNK N   1      34.600  17.100   9.395  0.00  0.00     0.048 C 
HETATM   19  C   UNK N   1      34.086  17.289   7.014  0.00  0.00     0.048 C 
ENDBRANCH  13  16
BRANCH  15  20
HETATM   20  C   UNK N   1      37.282  12.967   7.661  0.00  0.00    -0.013 A 
HETATM   21  C   UNK N   1      37.476  11.927   6.742  0.00  0.00     0.013 A 
HETATM   22  C   UNK N   1      38.745  11.419   6.478  0.00  0.00     0.043 A 
HETATM   23  C   UNK N   1      39.852  11.950   7.132  0.00  0.00     0.119 A 
HETATM   24  C   UNK N   1      39.687  12.993   8.047  0.00  0.00     0.085 A 
HETATM   25  F   UNK N   1      41.085  11.453   6.875  0.00  0.00    -0.206 F 
HETATM   26  C   UNK N   1      38.411  13.509   8.317  0.00  0.00     0.126 A 
HETATM   27  F   UNK N   1      38.294  14.519   9.212  0.00  0.00    -0.205 F 
ENDBRANCH  15  20
ENDBRANCH   9  11
BRANCH   7  28
HETATM   28  C   UNK N   1      35.417  12.054  15.085  0.00  0.00    -0.023 A 
HETATM   29  C   UNK N   1      36.118  11.137  15.888  0.00  0.00     0.010 A 
HETATM   30  C   UNK N   1      36.102  11.251  17.280  0.00  0.00     0.001 A 
HETATM   31  C   UNK N   1      35.381  12.279  17.887  0.00  0.00     0.000 A 
HETATM   32  C   UNK N   1      34.679  13.196  17.103  0.00  0.00     0.001 A 
HETATM   33  C   UNK N   1      34.698  13.087  15.711  0.00  0.00     0.010 A 
ENDBRANCH   7  28
BRANCH   7  34
HETATM   34  O   UNK N   1      34.230  12.355  13.050  0.00  0.00    -0.384 OA
HETATM   35  H   UNK N   1      33.409  12.868  13.119  0.00  0.00     0.211 HD
ENDBRANCH   7  34
TORSDOF 5
ENDMDL
MODEL 8
REMARK VINA RESULT:      -7.0     15.054     17.645
REMARK  5 active torsions:
REMARK  status: ('A' for Active; 'I' for Inactive)
REMARK       I    between atoms: N_4  and  C_16 
REMARK    1  A    between atoms: C_7  and  C_8 
REMARK    2  A    between atoms: C_7  and  O_14 
REMARK    3  A    between atoms: C_18  and  C_16 
REMARK    4  A    between atoms: N_20  and  C_31 
REMARK    5  A    between atoms: C_22  and  C_23 
ROOT
HETATM    1  C   UNK N   1      37.164   6.833  12.754  0.00  0.00     0.015 C 
HETATM    2  C   UNK N   1      35.994   7.762  13.043  0.00  0.00     0.039 C 
HETATM    3  C   UNK N   1      36.502   8.882  13.965  0.00  0.00     0.133 C 
HETATM    4  N   UNK N   1      35.894  10.150  13.625  0.00  0.00    -0.351 N 
HETATM    5  C   UNK N   1      34.470  10.175  13.388  0.00  0.00     0.133 C 
HETATM    6  C   UNK N   1      34.136   9.244  12.213  0.00  0.00     0.039 C 
HETATM    7  C   UNK N   1      35.316   8.324  11.757  0.00  0.00     0.094 C 
HETATM    8  C   UNK N   1      33.524  10.063  11.084  0.00  0.00     0.015 C 
HETATM    9  C   UNK N   1      36.655  11.264  13.431  0.00  0.00     0.226 C 
HETATM   10  O   UNK N   1      37.872  11.190  13.552  0.00  0.00    -0.273 OA
ENDROOT
BRANCH   9  11
HETATM   11  C   UNK N   1      36.015  12.590  13.070  0.00  0.00     0.116 C 
HETATM   12  C   UNK N   1      36.196  12.924  11.597  0.00  0.00     0.288 C 
HETATM   13  N   UNK N   1      36.383  14.377  11.498  0.00  0.00     0.098 N 
HETATM   14  C   UNK N   1      36.065  14.907  12.827  0.00  0.00     0.283 C 
HETATM   15  C   UNK N   1      36.538  13.824  13.773  0.00  0.00     0.065 C 
BRANCH  13  16
HETATM   16  C   UNK N   1      35.613  14.982  10.390  0.00  0.00     0.149 C 
HETATM   17  C   UNK N   1      35.573  16.505  10.472  0.00  0.00     0.048 C 
HETATM   18  C   UNK N   1      36.210  14.580   9.051  0.00  0.00     0.048 C 
HETATM   19  C   UNK N   1      34.183  14.458  10.411  0.00  0.00     0.048 C 
ENDBRANCH  13  16
BRANCH  15  20
HETATM   20  C   UNK N   1      36.157  13.903  15.242  0.00  0.00    -0.013 A 
HETATM   21  C   UNK N   1      35.132  13.057  15.690  0.00  0.00     0.013 A 
HETATM   22  C   UNK N   1      34.722  13.055  17.020  0.00  0.00     0.043 A 
HETATM   23  C   UNK N   1      35.339  13.903  17.935  0.00  0.00     0.119 A 
HETATM   24  C   UNK N   1      36.368  14.751  17.516  0.00  0.00     0.085 A 
HETATM   25  F   UNK N   1      34.937  13.901  19.227  0.00  0.00    -0.206 F 
HETATM   26  C   UNK N   1      36.785  14.757  16.177  0.00  0.00     0.126 A 
HETATM   27  F   UNK N   1      37.786  15.594  15.812  0.00  0.00    -0.205 F 
ENDBRANCH  15  20
ENDBRANCH   9  11
BRANCH   7  28
HETATM   28  C   UNK N   1      34.776   7.243  10.830  0.00  0.00    -0.023 A 
HETATM   29  C   UNK N   1      35.254   7.159   9.511  0.00  0.00     0.010 A 
HETATM   30  C   UNK N   1      34.776   6.178   8.640  0.00  0.00     0.001 A 
HETATM   31  C   UNK N   1      33.809   5.271   9.075  0.00  0.00     0.000 A 
HETATM   32  C   UNK N   1      33.323   5.342  10.382  0.00  0.00     0.001 A 
HETATM   33  C   UNK N   1      33.805   6.320  11.256  0.00  0.00     0.010 A 
ENDBRANCH   7  28
BRANCH   7  34
HETATM   34  O   UNK N   1      36.271   9.075  11.056  0.00  0.00    -0.384 OA
HETATM   35  H   UNK N   1      36.635   9.441  10.235  0.00  0.00     0.211 HD
ENDBRANCH   7  34
TORSDOF 5
ENDMDL
MODEL 9
REMARK VINA RESULT:      -6.9     11.744     14.975
REMARK  5 active torsions:
REMARK  status: ('A' for Active; 'I' for Inactive)
REMARK       I    between atoms: N_4  and  C_16 
REMARK    1  A    between atoms: C_7  and  C_8 
REMARK    2  A    between atoms: C_7  and  O_14 
REMARK    3  A    between atoms: C_18  and  C_16 
REMARK    4  A    between atoms: N_20  and  C_31 
REMARK    5  A    between atoms: C_22  and  C_23 
ROOT
HETATM    1  C   UNK N   1      36.038  10.349  12.113  0.00  0.00     0.015 C 
HETATM    2  C   UNK N   1      36.562  11.666  11.558  0.00  0.00     0.039 C 
HETATM    3  C   UNK N   1      36.607  11.544  10.026  0.00  0.00     0.133 C 
HETATM    4  N   UNK N   1      36.228  12.789   9.395  0.00  0.00    -0.351 N 
HETATM    5  C   UNK N   1      36.801  14.010   9.911  0.00  0.00     0.133 C 
HETATM    6  C   UNK N   1      36.403  14.172  11.386  0.00  0.00     0.039 C 
HETATM    7  C   UNK N   1      35.741  12.907  12.023  0.00  0.00     0.094 C 
HETATM    8  C   UNK N   1      35.577  15.442  11.544  0.00  0.00     0.015 C 
HETATM    9  C   UNK N   1      35.282  12.821   8.415  0.00  0.00     0.226 C 
HETATM   10  O   UNK N   1      34.747  11.776   8.060  0.00  0.00    -0.273 OA
ENDROOT
BRANCH   9  11
HETATM   11  C   UNK N   1      34.883  14.128   7.759  0.00  0.00     0.116 C 
HETATM   12  C   UNK N   1      33.574  14.666   8.316  0.00  0.00     0.288 C 
HETATM   13  N   UNK N   1      32.853  15.298   7.204  0.00  0.00     0.098 N 
HETATM   14  C   UNK N   1      33.812  15.361   6.098  0.00  0.00     0.283 C 
HETATM   15  C   UNK N   1      34.642  14.107   6.265  0.00  0.00     0.065 C 
BRANCH  13  16
HETATM   16  C   UNK N   1      32.249  16.596   7.575  0.00  0.00     0.149 C 
HETATM   17  C   UNK N   1      33.298  17.650   7.915  0.00  0.00     0.048 C 
HETATM   18  C   UNK N   1      31.383  17.118   6.440  0.00  0.00     0.048 C 
HETATM   19  C   UNK N   1      31.336  16.414   8.779  0.00  0.00     0.048 C 
ENDBRANCH  13  16
BRANCH  15  20
HETATM   20  C   UNK N   1      35.908  13.939   5.441  0.00  0.00    -0.013 A 
HETATM   21  C   UNK N   1      37.094  14.479   5.959  0.00  0.00     0.013 A 
HETATM   22  C   UNK N   1      38.302  14.367   5.278  0.00  0.00     0.043 A 
HETATM   23  C   UNK N   1      38.347  13.702   4.056  0.00  0.00     0.119 A 
HETATM   24  C   UNK N   1      37.182  13.148   3.520  0.00  0.00     0.085 A 
HETATM   25  F   UNK N   1      39.523  13.596   3.394  0.00  0.00    -0.206 F 
HETATM   26  C   UNK N   1      35.962  13.258   4.203  0.00  0.00     0.126 A 
HETATM   27  F   UNK N   1      34.855  12.708   3.648  0.00  0.00    -0.205 F 
ENDBRANCH  15  20
ENDBRANCH   9  11
BRANCH   7  28
HETATM   28  C   UNK N   1      35.697  13.075  13.536  0.00  0.00    -0.023 A 
HETATM   29  C   UNK N   1      36.778  13.684  14.197  0.00  0.00     0.010 A 
HETATM   30  C   UNK N   1      36.764  13.850  15.584  0.00  0.00     0.001 A 
HETATM   31  C   UNK N   1      35.672  13.404  16.328  0.00  0.00     0.000 A 
HETATM   32  C   UNK N   1      34.592  12.795  15.686  0.00  0.00     0.001 A 
HETATM   33  C   UNK N   1      34.602  12.634  14.299  0.00  0.00     0.010 A 
ENDBRANCH   7  28
BRANCH   7  34
HETATM   34  O   UNK N   1      34.428  12.758  11.553  0.00  0.00    -0.384 OA
HETATM   35  H   UNK N   1      33.469  12.719  11.696  0.00  0.00     0.211 HD
ENDBRANCH   7  34
TORSDOF 5
ENDMDL
