REMARK  5 active torsions:
REMARK  status: ('A' for Active; 'I' for Inactive)
REMARK    1  A    between atoms: N_4  and  C_7 
REMARK    2  A    between atoms: C_7  and  C_8 
REMARK    3  A    between atoms: C_8  and  C_9 
REMARK    4  A    between atoms: C_8  and  O_19 
REMARK    5  A    between atoms: C_9  and  N_10 
REMARK       I    between atoms: C_15  and  N_16 
ROOT
HETATM    1  C   UNK N   1      -0.554   6.140   0.332  0.00  0.00     0.164 C 
ENDROOT
BRANCH   1   2
HETATM    2  C   UNK N   1      -0.395   7.547  -0.257  0.00  0.00     0.305 C 
BRANCH   2   3
HETATM    3  N   UNK N   1       0.766   8.259   0.272  0.00  0.00     0.090 N 
HETATM    4  C   UNK N   1       1.946   7.792  -0.462  0.00  0.00     0.272 C 
HETATM    5  C   UNK N   1       3.197   8.486   0.059  0.00  0.00     0.030 C 
HETATM    6  C   UNK N   1       3.059   9.984  -0.178  0.00  0.00     0.003 C 
HETATM    7  C   UNK N   1       1.767  10.500   0.450  0.00  0.00     0.030 C 
HETATM    8  C   UNK N   1       0.575   9.676  -0.044  0.00  0.00     0.272 C 
ENDBRANCH   2   3
ENDBRANCH   1   2
BRANCH   1   9
HETATM    9  C   UNK N   1      -1.586   5.411  -0.530  0.00  0.00     0.165 C 
BRANCH   9  10
HETATM   10  N   UNK N   1      -1.722   3.990  -0.207  0.00  0.00    -0.320 N 
HETATM   11  C   UNK N   1      -0.724   3.088  -0.185  0.00  0.00     0.111 A 
HETATM   12  C   UNK N   1      -1.272   1.847   0.089  0.00  0.00     0.108 A 
HETATM   13  N   UNK N   1      -2.608   1.983   0.219  0.00  0.00    -0.332 N 
HETATM   14  C   UNK N   1      -2.853   3.293   0.032  0.00  0.00     0.252 A 
ATOM     15  HN  UNK N   1      -3.288   1.249   0.416  1.00  0.00     0.168 HD
HETATM   16  N   UNK N   1      -4.163   3.845   0.049  0.00  0.00    -0.079 N 
HETATM   17  O   UNK N   1      -5.107   3.125   0.188  0.00  0.00    -0.529 OA
HETATM   18  O   UNK N   1      -4.352   5.137  -0.099  0.00  0.00    -0.529 OA
ENDBRANCH   9  10
ENDBRANCH   1   9
BRANCH   1  19
HETATM   19  O   UNK N   1       0.665   5.460   0.274  0.00  0.00    -0.392 OA
HETATM   20  H   UNK N   1       0.680   4.491   0.234  0.00  0.00     0.210 HD
ENDBRANCH   1  19
TORSDOF 5
