MODEL 1
REMARK VINA RESULT:      -7.3      0.000      0.000
REMARK  9 active torsions:
REMARK  status: ('A' for Active; 'I' for Inactive)
REMARK    1  A    between atoms: C_2  and  C_3 
REMARK    2  A    between atoms: C_3  and  C_4 
REMARK    3  A    between atoms: C_5  and  C_15 
REMARK    4  A    between atoms: C_8  and  C_11 
REMARK    5  A    between atoms: C_16  and  C_17 
REMARK       I    between atoms: C_17  and  N_19 
REMARK    6  A    between atoms: N_19  and  C_20 
REMARK    7  A    between atoms: C_20  and  C_22 
REMARK    8  A    between atoms: C_25  and  N_29 
REMARK    9  A    between atoms: N_29  and  S_30 
ROOT
HETATM    1  C   UNK N   1      30.665  15.953   2.859  0.00  0.00     0.241 C 
HETATM    2  O   UNK N   1      30.848  14.755   3.043  0.00  0.00    -0.269 OA
HETATM    3  N   UNK N   1      31.695  16.837   2.884  0.00  0.00    -0.349 N 
HETATM    4  H   UNK N   1      31.476  17.764   2.634  0.00  0.00     0.163 HD
ENDROOT
BRANCH   1   5
HETATM    5  C   UNK N   1      29.293  16.462   2.899  0.00  0.00     0.075 C 
HETATM    6  C   UNK N   1      28.584  16.727   4.004  0.00  0.00     0.019 C 
BRANCH   6   7
HETATM    7  C   UNK N   1      29.064  17.173   5.330  0.00  0.00    -0.013 A 
HETATM    8  C   UNK N   1      28.698  18.429   5.865  0.00  0.00     0.019 A 
HETATM    9  N   UNK N   1      28.856  18.660   7.198  0.00  0.00    -0.355 N 
HETATM   10  C   UNK N   1      29.412  17.741   8.034  0.00  0.00     0.117 A 
ATOM     11  HN  UNK N   1      28.545  19.552   7.584  1.00  0.00     0.166 HD
HETATM   12  C   UNK N   1      29.855  16.518   7.521  0.00  0.00     0.035 A 
HETATM   13  C   UNK N   1      29.661  16.232   6.172  0.00  0.00     0.015 A 
BRANCH   8  14
HETATM   14  C   UNK N   1      27.981  19.453   5.040  0.00  0.00     0.057 C 
BRANCH  14  15
HETATM   15  C   UNK N   1      26.806  20.042   5.801  0.00  0.00     0.002 C 
HETATM   16  C   UNK N   1      27.050  21.520   6.030  0.00  0.00     0.005 C 
ENDBRANCH  14  15
ENDBRANCH   8  14
BRANCH  10  17
HETATM   17  C   UNK N   1      29.286  17.924   9.516  0.00  0.00     0.432 C 
HETATM   18  F   UNK N   1      27.945  18.142   9.792  0.00  0.00    -0.165 F 
HETATM   19  F   UNK N   1      29.697  16.797  10.205  0.00  0.00    -0.165 F 
HETATM   20  F   UNK N   1      30.012  19.018   9.945  0.00  0.00    -0.165 F 
ENDBRANCH  10  17
ENDBRANCH   6   7
ENDBRANCH   1   5
BRANCH   3  21
HETATM   21  C   UNK N   1      33.086  16.578   3.235  0.00  0.00     0.114 C 
HETATM   22  C   UNK N   1      33.705  15.364   2.536  0.00  0.00     0.037 C 
BRANCH  21  23
HETATM   23  C   UNK N   1      33.148  16.487   4.742  0.00  0.00    -0.030 A 
HETATM   24  C   UNK N   1      33.168  17.630   5.555  0.00  0.00     0.054 A 
HETATM   25  C   UNK N   1      33.317  17.521   6.942  0.00  0.00     0.147 A 
HETATM   26  C   UNK N   1      33.443  16.248   7.541  0.00  0.00     0.119 A 
HETATM   27  F   UNK N   1      33.315  18.653   7.679  0.00  0.00    -0.204 F 
HETATM   28  C   UNK N   1      33.403  15.106   6.726  0.00  0.00     0.147 A 
HETATM   29  C   UNK N   1      33.269  15.228   5.341  0.00  0.00     0.054 A 
HETATM   30  F   UNK N   1      33.530  13.872   7.273  0.00  0.00    -0.204 F 
BRANCH  26  31
HETATM   31  N   UNK N   1      33.610  16.073   8.946  0.00  0.00    -0.279 N 
HETATM   32  H   UNK N   1      32.798  15.927   9.484  0.00  0.00     0.179 HD
BRANCH  31  33
HETATM   33  S   UNK N   1      35.156  16.097   9.792  0.00  0.00     0.227 S 
HETATM   34  O   UNK N   1      34.926  16.167  11.307  0.00  0.00    -0.206 OA
HETATM   35  O   UNK N   1      35.773  14.707   9.571  0.00  0.00    -0.206 OA
HETATM   36  C   UNK N   1      34.015  14.826  10.407  0.00  0.00     0.186 C 
ENDBRANCH  31  33
ENDBRANCH  26  31
ENDBRANCH  21  23
ENDBRANCH   3  21
TORSDOF 9
ENDMDL
MODEL 2
REMARK VINA RESULT:      -7.0      2.735      3.940
REMARK  9 active torsions:
REMARK  status: ('A' for Active; 'I' for Inactive)
REMARK    1  A    between atoms: C_2  and  C_3 
REMARK    2  A    between atoms: C_3  and  C_4 
REMARK    3  A    between atoms: C_5  and  C_15 
REMARK    4  A    between atoms: C_8  and  C_11 
REMARK    5  A    between atoms: C_16  and  C_17 
REMARK       I    between atoms: C_17  and  N_19 
REMARK    6  A    between atoms: N_19  and  C_20 
REMARK    7  A    between atoms: C_20  and  C_22 
REMARK    8  A    between atoms: C_25  and  N_29 
REMARK    9  A    between atoms: N_29  and  S_30 
ROOT
HETATM    1  C   UNK N   1      31.012  16.451   6.060  0.00  0.00     0.241 C 
HETATM    2  O   UNK N   1      31.068  17.491   5.415  0.00  0.00    -0.269 OA
HETATM    3  N   UNK N   1      32.091  15.979   6.736  0.00  0.00    -0.349 N 
HETATM    4  H   UNK N   1      31.935  15.191   7.304  0.00  0.00     0.163 HD
ENDROOT
BRANCH   1   5
HETATM    5  C   UNK N   1      29.858  15.571   5.864  0.00  0.00     0.075 C 
HETATM    6  C   UNK N   1      28.596  15.839   6.220  0.00  0.00     0.019 C 
BRANCH   6   7
HETATM    7  C   UNK N   1      27.912  17.149   6.298  0.00  0.00    -0.013 A 
HETATM    8  C   UNK N   1      27.918  17.917   7.484  0.00  0.00     0.019 A 
HETATM    9  N   UNK N   1      27.598  19.240   7.426  0.00  0.00    -0.355 N 
HETATM   10  C   UNK N   1      27.211  19.845   6.269  0.00  0.00     0.117 A 
ATOM     11  HN  UNK N   1      27.650  19.797   8.279  1.00  0.00     0.166 HD
HETATM   12  C   UNK N   1      27.121  19.094   5.093  0.00  0.00     0.035 A 
HETATM   13  C   UNK N   1      27.492  17.751   5.109  0.00  0.00     0.015 A 
BRANCH   8  14
HETATM   14  C   UNK N   1      28.433  17.360   8.775  0.00  0.00     0.057 C 
BRANCH  14  15
HETATM   15  C   UNK N   1      29.220  18.407   9.545  0.00  0.00     0.002 C 
HETATM   16  C   UNK N   1      30.635  18.464   9.005  0.00  0.00     0.005 C 
ENDBRANCH  14  15
ENDBRANCH   8  14
BRANCH  10  17
HETATM   17  C   UNK N   1      27.165  21.341   6.202  0.00  0.00     0.432 C 
HETATM   18  F   UNK N   1      26.187  21.764   7.088  0.00  0.00    -0.165 F 
HETATM   19  F   UNK N   1      28.371  21.904   6.578  0.00  0.00    -0.165 F 
HETATM   20  F   UNK N   1      26.830  21.770   4.932  0.00  0.00    -0.165 F 
ENDBRANCH  10  17
ENDBRANCH   6   7
ENDBRANCH   1   5
BRANCH   3  21
HETATM   21  C   UNK N   1      33.452  16.501   6.721  0.00  0.00     0.114 C 
HETATM   22  C   UNK N   1      34.229  16.217   5.432  0.00  0.00     0.037 C 
BRANCH  21  23
HETATM   23  C   UNK N   1      34.141  15.967   7.955  0.00  0.00    -0.030 A 
HETATM   24  C   UNK N   1      34.279  16.738   9.120  0.00  0.00     0.054 A 
HETATM   25  C   UNK N   1      35.000  16.255  10.217  0.00  0.00     0.147 A 
HETATM   26  C   UNK N   1      35.594  14.975  10.164  0.00  0.00     0.119 A 
HETATM   27  F   UNK N   1      35.091  17.032  11.318  0.00  0.00    -0.204 F 
HETATM   28  C   UNK N   1      35.436  14.199   9.005  0.00  0.00     0.147 A 
HETATM   29  C   UNK N   1      34.726  14.697   7.910  0.00  0.00     0.054 A 
HETATM   30  F   UNK N   1      36.001  12.969   8.924  0.00  0.00    -0.204 F 
BRANCH  26  31
HETATM   31  N   UNK N   1      36.349  14.433  11.245  0.00  0.00    -0.279 N 
HETATM   32  H   UNK N   1      37.207  14.866  11.461  0.00  0.00     0.179 HD
BRANCH  31  33
HETATM   33  S   UNK N   1      35.865  13.049  12.224  0.00  0.00     0.227 S 
HETATM   34  O   UNK N   1      36.912  12.782  13.313  0.00  0.00    -0.206 OA
HETATM   35  O   UNK N   1      34.622  13.505  13.003  0.00  0.00    -0.206 OA
HETATM   36  C   UNK N   1      36.274  14.521  13.204  0.00  0.00     0.186 C 
ENDBRANCH  31  33
ENDBRANCH  26  31
ENDBRANCH  21  23
ENDBRANCH   3  21
TORSDOF 9
ENDMDL
MODEL 3
REMARK VINA RESULT:      -7.0      3.238      4.947
REMARK  9 active torsions:
REMARK  status: ('A' for Active; 'I' for Inactive)
REMARK    1  A    between atoms: C_2  and  C_3 
REMARK    2  A    between atoms: C_3  and  C_4 
REMARK    3  A    between atoms: C_5  and  C_15 
REMARK    4  A    between atoms: C_8  and  C_11 
REMARK    5  A    between atoms: C_16  and  C_17 
REMARK       I    between atoms: C_17  and  N_19 
REMARK    6  A    between atoms: N_19  and  C_20 
REMARK    7  A    between atoms: C_20  and  C_22 
REMARK    8  A    between atoms: C_25  and  N_29 
REMARK    9  A    between atoms: N_29  and  S_30 
ROOT
HETATM    1  C   UNK N   1      30.288  17.903   8.829  0.00  0.00     0.241 C 
HETATM    2  O   UNK N   1      30.422  19.081   9.141  0.00  0.00    -0.269 OA
HETATM    3  N   UNK N   1      31.360  17.121   8.543  0.00  0.00    -0.349 N 
HETATM    4  H   UNK N   1      31.173  16.167   8.395  0.00  0.00     0.163 HD
ENDROOT
BRANCH   1   5
HETATM    5  C   UNK N   1      28.948  17.421   8.489  0.00  0.00     0.075 C 
HETATM    6  C   UNK N   1      28.456  17.272   7.253  0.00  0.00     0.019 C 
BRANCH   6   7
HETATM    7  C   UNK N   1      29.175  16.945   6.002  0.00  0.00    -0.013 A 
HETATM    8  C   UNK N   1      29.299  17.883   4.952  0.00  0.00     0.019 A 
HETATM    9  N   UNK N   1      30.242  17.688   3.988  0.00  0.00    -0.355 N 
HETATM   10  C   UNK N   1      31.038  16.584   3.963  0.00  0.00     0.117 A 
ATOM     11  HN  UNK N   1      30.356  18.394   3.261  1.00  0.00     0.166 HD
HETATM   12  C   UNK N   1      30.887  15.600   4.945  0.00  0.00     0.035 A 
HETATM   13  C   UNK N   1      29.967  15.794   5.973  0.00  0.00     0.015 A 
BRANCH   8  14
HETATM   14  C   UNK N   1      28.541  19.175   4.963  0.00  0.00     0.057 C 
BRANCH  14  15
HETATM   15  C   UNK N   1      27.321  19.098   4.061  0.00  0.00     0.002 C 
HETATM   16  C   UNK N   1      26.613  20.438   4.064  0.00  0.00     0.005 C 
ENDBRANCH  14  15
ENDBRANCH   8  14
BRANCH  10  17
HETATM   17  C   UNK N   1      32.242  16.567   3.071  0.00  0.00     0.432 C 
HETATM   18  F   UNK N   1      31.949  17.351   1.967  0.00  0.00    -0.165 F 
HETATM   19  F   UNK N   1      33.351  17.100   3.705  0.00  0.00    -0.165 F 
HETATM   20  F   UNK N   1      32.525  15.285   2.644  0.00  0.00    -0.165 F 
ENDBRANCH  10  17
ENDBRANCH   6   7
ENDBRANCH   1   5
BRANCH   3  21
HETATM   21  C   UNK N   1      32.756  17.527   8.428  0.00  0.00     0.114 C 
HETATM   22  C   UNK N   1      33.212  17.846   7.000  0.00  0.00     0.037 C 
BRANCH  21  23
HETATM   23  C   UNK N   1      33.583  16.447   9.085  0.00  0.00    -0.030 A 
HETATM   24  C   UNK N   1      33.196  15.098   9.061  0.00  0.00     0.054 A 
HETATM   25  C   UNK N   1      33.930  14.130   9.754  0.00  0.00     0.147 A 
HETATM   26  C   UNK N   1      35.080  14.504  10.484  0.00  0.00     0.119 A 
HETATM   27  F   UNK N   1      33.522  12.844   9.686  0.00  0.00    -0.204 F 
HETATM   28  C   UNK N   1      35.475  15.851  10.489  0.00  0.00     0.147 A 
HETATM   29  C   UNK N   1      34.725  16.811   9.805  0.00  0.00     0.054 A 
HETATM   30  F   UNK N   1      36.570  16.238  11.188  0.00  0.00    -0.204 F 
BRANCH  26  31
HETATM   31  N   UNK N   1      35.862  13.565  11.219  0.00  0.00    -0.279 N 
HETATM   32  H   UNK N   1      36.393  12.914  10.704  0.00  0.00     0.179 HD
BRANCH  31  33
HETATM   33  S   UNK N   1      35.953  13.481  12.978  0.00  0.00     0.227 S 
HETATM   34  O   UNK N   1      34.678  12.838  13.540  0.00  0.00    -0.206 OA
HETATM   35  O   UNK N   1      37.057  12.459  13.290  0.00  0.00    -0.206 OA
HETATM   36  C   UNK N   1      35.543  11.894  12.198  0.00  0.00     0.186 C 
ENDBRANCH  31  33
ENDBRANCH  26  31
ENDBRANCH  21  23
ENDBRANCH   3  21
TORSDOF 9
ENDMDL
MODEL 4
REMARK VINA RESULT:      -7.0      2.159      3.219
REMARK  9 active torsions:
REMARK  status: ('A' for Active; 'I' for Inactive)
REMARK    1  A    between atoms: C_2  and  C_3 
REMARK    2  A    between atoms: C_3  and  C_4 
REMARK    3  A    between atoms: C_5  and  C_15 
REMARK    4  A    between atoms: C_8  and  C_11 
REMARK    5  A    between atoms: C_16  and  C_17 
REMARK       I    between atoms: C_17  and  N_19 
REMARK    6  A    between atoms: N_19  and  C_20 
REMARK    7  A    between atoms: C_20  and  C_22 
REMARK    8  A    between atoms: C_25  and  N_29 
REMARK    9  A    between atoms: N_29  and  S_30 
ROOT
HETATM    1  C   UNK N   1      29.726  16.370   3.665  0.00  0.00     0.241 C 
HETATM    2  O   UNK N   1      30.064  16.756   2.552  0.00  0.00    -0.269 OA
HETATM    3  N   UNK N   1      30.591  16.387   4.712  0.00  0.00    -0.349 N 
HETATM    4  H   UNK N   1      30.214  16.149   5.589  0.00  0.00     0.163 HD
ENDROOT
BRANCH   1   5
HETATM    5  C   UNK N   1      28.474  15.623   3.793  0.00  0.00     0.075 C 
HETATM    6  C   UNK N   1      27.472  15.906   4.635  0.00  0.00     0.019 C 
BRANCH   6   7
HETATM    7  C   UNK N   1      27.044  17.222   5.159  0.00  0.00    -0.013 A 
HETATM    8  C   UNK N   1      27.496  17.704   6.408  0.00  0.00     0.019 A 
HETATM    9  N   UNK N   1      27.377  19.030   6.696  0.00  0.00    -0.355 N 
HETATM   10  C   UNK N   1      26.778  19.908   5.845  0.00  0.00     0.117 A 
ATOM     11  HN  UNK N   1      27.749  19.378   7.580  1.00  0.00     0.166 HD
HETATM   12  C   UNK N   1      26.252  19.448   4.634  0.00  0.00     0.035 A 
HETATM   13  C   UNK N   1      26.404  18.107   4.287  0.00  0.00     0.015 A 
BRANCH   8  14
HETATM   14  C   UNK N   1      28.261  16.831   7.354  0.00  0.00     0.057 C 
BRANCH  14  15
HETATM   15  C   UNK N   1      29.306  17.632   8.111  0.00  0.00     0.002 C 
HETATM   16  C   UNK N   1      28.991  17.589   9.593  0.00  0.00     0.005 C 
ENDBRANCH  14  15
ENDBRANCH   8  14
BRANCH  10  17
HETATM   17  C   UNK N   1      26.942  21.380   6.073  0.00  0.00     0.432 C 
HETATM   18  F   UNK N   1      26.741  22.011   4.856  0.00  0.00    -0.165 F 
HETATM   19  F   UNK N   1      26.010  21.862   6.975  0.00  0.00    -0.165 F 
HETATM   20  F   UNK N   1      28.215  21.674   6.522  0.00  0.00    -0.165 F 
ENDBRANCH  10  17
ENDBRANCH   6   7
ENDBRANCH   1   5
BRANCH   3  21
HETATM   21  C   UNK N   1      32.012  16.713   4.691  0.00  0.00     0.114 C 
HETATM   22  C   UNK N   1      32.847  15.866   3.726  0.00  0.00     0.037 C 
BRANCH  21  23
HETATM   23  C   UNK N   1      32.501  16.637   6.118  0.00  0.00    -0.030 A 
HETATM   24  C   UNK N   1      33.480  17.510   6.615  0.00  0.00     0.054 A 
HETATM   25  C   UNK N   1      33.981  17.361   7.913  0.00  0.00     0.147 A 
HETATM   26  C   UNK N   1      33.497  16.326   8.742  0.00  0.00     0.119 A 
HETATM   27  F   UNK N   1      34.914  18.238   8.346  0.00  0.00    -0.204 F 
HETATM   28  C   UNK N   1      32.503  15.467   8.248  0.00  0.00     0.147 A 
HETATM   29  C   UNK N   1      32.021  15.616   6.946  0.00  0.00     0.054 A 
HETATM   30  F   UNK N   1      32.026  14.460   9.021  0.00  0.00    -0.204 F 
BRANCH  26  31
HETATM   31  N   UNK N   1      33.977  16.116  10.068  0.00  0.00    -0.279 N 
HETATM   32  H   UNK N   1      33.769  16.806  10.741  0.00  0.00     0.179 HD
BRANCH  31  33
HETATM   33  S   UNK N   1      34.912  14.718  10.596  0.00  0.00     0.227 S 
HETATM   34  O   UNK N   1      36.402  14.941  10.305  0.00  0.00    -0.206 OA
HETATM   35  O   UNK N   1      34.827  14.715  12.131  0.00  0.00    -0.206 OA
HETATM   36  C   UNK N   1      35.543  16.295  11.238  0.00  0.00     0.186 C 
ENDBRANCH  31  33
ENDBRANCH  26  31
ENDBRANCH  21  23
ENDBRANCH   3  21
TORSDOF 9
ENDMDL
MODEL 5
REMARK VINA RESULT:      -6.9      5.109      6.063
REMARK  9 active torsions:
REMARK  status: ('A' for Active; 'I' for Inactive)
REMARK    1  A    between atoms: C_2  and  C_3 
REMARK    2  A    between atoms: C_3  and  C_4 
REMARK    3  A    between atoms: C_5  and  C_15 
REMARK    4  A    between atoms: C_8  and  C_11 
REMARK    5  A    between atoms: C_16  and  C_17 
REMARK       I    between atoms: C_17  and  N_19 
REMARK    6  A    between atoms: N_19  and  C_20 
REMARK    7  A    between atoms: C_20  and  C_22 
REMARK    8  A    between atoms: C_25  and  N_29 
REMARK    9  A    between atoms: N_29  and  S_30 
ROOT
HETATM    1  C   UNK N   1      25.295  16.636   5.412  0.00  0.00     0.241 C 
HETATM    2  O   UNK N   1      24.520  17.571   5.244  0.00  0.00    -0.269 OA
HETATM    3  N   UNK N   1      26.564  16.841   5.847  0.00  0.00    -0.349 N 
HETATM    4  H   UNK N   1      27.089  16.033   6.046  0.00  0.00     0.163 HD
ENDROOT
BRANCH   1   5
HETATM    5  C   UNK N   1      24.935  15.326   4.867  0.00  0.00     0.075 C 
HETATM    6  C   UNK N   1      24.781  14.197   5.571  0.00  0.00     0.019 C 
BRANCH   6   7
HETATM    7  C   UNK N   1      24.326  14.030   6.969  0.00  0.00    -0.013 A 
HETATM    8  C   UNK N   1      22.963  13.829   7.285  0.00  0.00     0.019 A 
HETATM    9  N   UNK N   1      22.626  13.335   8.509  0.00  0.00    -0.355 N 
HETATM   10  C   UNK N   1      23.555  13.080   9.471  0.00  0.00     0.117 A 
ATOM     11  HN  UNK N   1      21.644  13.148   8.711  1.00  0.00     0.166 HD
HETATM   12  C   UNK N   1      24.905  13.341   9.216  0.00  0.00     0.035 A 
HETATM   13  C   UNK N   1      25.287  13.798   7.956  0.00  0.00     0.015 A 
BRANCH   8  14
HETATM   14  C   UNK N   1      21.889  13.979   6.252  0.00  0.00     0.057 C 
BRANCH  14  15
HETATM   15  C   UNK N   1      20.884  15.041   6.662  0.00  0.00     0.002 C 
HETATM   16  C   UNK N   1      21.600  16.365   6.837  0.00  0.00     0.005 C 
ENDBRANCH  14  15
ENDBRANCH   8  14
BRANCH  10  17
HETATM   17  C   UNK N   1      23.169  12.266  10.669  0.00  0.00     0.432 C 
HETATM   18  F   UNK N   1      24.268  12.222  11.510  0.00  0.00    -0.165 F 
HETATM   19  F   UNK N   1      22.114  12.842  11.355  0.00  0.00    -0.165 F 
HETATM   20  F   UNK N   1      22.834  10.977  10.305  0.00  0.00    -0.165 F 
ENDBRANCH  10  17
ENDBRANCH   6   7
ENDBRANCH   1   5
BRANCH   3  21
HETATM   21  C   UNK N   1      27.243  18.115   6.056  0.00  0.00     0.114 C 
HETATM   22  C   UNK N   1      27.561  18.885   4.770  0.00  0.00     0.037 C 
BRANCH  21  23
HETATM   23  C   UNK N   1      28.468  17.828   6.891  0.00  0.00    -0.030 A 
HETATM   24  C   UNK N   1      28.791  18.592   8.023  0.00  0.00     0.054 A 
HETATM   25  C   UNK N   1      29.978  18.364   8.726  0.00  0.00     0.147 A 
HETATM   26  C   UNK N   1      30.867  17.351   8.304  0.00  0.00     0.119 A 
HETATM   27  F   UNK N   1      30.233  19.119   9.818  0.00  0.00    -0.204 F 
HETATM   28  C   UNK N   1      30.531  16.576   7.183  0.00  0.00     0.147 A 
HETATM   29  C   UNK N   1      29.350  16.822   6.479  0.00  0.00     0.054 A 
HETATM   30  F   UNK N   1      31.369  15.602   6.751  0.00  0.00    -0.204 F 
BRANCH  26  31
HETATM   31  N   UNK N   1      32.097  17.080   8.972  0.00  0.00    -0.279 N 
HETATM   32  H   UNK N   1      32.063  16.498   9.767  0.00  0.00     0.179 HD
BRANCH  31  33
HETATM   33  S   UNK N   1      33.672  17.704   8.485  0.00  0.00     0.227 S 
HETATM   34  O   UNK N   1      34.685  17.521   9.622  0.00  0.00    -0.206 OA
HETATM   35  O   UNK N   1      34.172  16.758   7.382  0.00  0.00    -0.206 OA
HETATM   36  C   UNK N   1      33.734  16.008   9.128  0.00  0.00     0.186 C 
ENDBRANCH  31  33
ENDBRANCH  26  31
ENDBRANCH  21  23
ENDBRANCH   3  21
TORSDOF 9
ENDMDL
MODEL 6
REMARK VINA RESULT:      -6.9     12.715     15.018
REMARK  9 active torsions:
REMARK  status: ('A' for Active; 'I' for Inactive)
REMARK    1  A    between atoms: C_2  and  C_3 
REMARK    2  A    between atoms: C_3  and  C_4 
REMARK    3  A    between atoms: C_5  and  C_15 
REMARK    4  A    between atoms: C_8  and  C_11 
REMARK    5  A    between atoms: C_16  and  C_17 
REMARK       I    between atoms: C_17  and  N_19 
REMARK    6  A    between atoms: N_19  and  C_20 
REMARK    7  A    between atoms: C_20  and  C_22 
REMARK    8  A    between atoms: C_25  and  N_29 
REMARK    9  A    between atoms: N_29  and  S_30 
ROOT
HETATM    1  C   UNK N   1      26.709  24.574  -4.111  0.00  0.00     0.241 C 
HETATM    2  O   UNK N   1      26.618  24.840  -2.918  0.00  0.00    -0.269 OA
HETATM    3  N   UNK N   1      27.918  24.441  -4.716  0.00  0.00    -0.349 N 
HETATM    4  H   UNK N   1      27.902  24.135  -5.651  0.00  0.00     0.163 HD
ENDROOT
BRANCH   1   5
HETATM    5  C   UNK N   1      25.509  24.684  -4.943  0.00  0.00     0.075 C 
HETATM    6  C   UNK N   1      25.131  25.765  -5.638  0.00  0.00     0.019 C 
BRANCH   6   7
HETATM    7  C   UNK N   1      25.973  26.810  -6.259  0.00  0.00    -0.013 A 
HETATM    8  C   UNK N   1      26.369  27.964  -5.544  0.00  0.00     0.019 A 
HETATM    9  N   UNK N   1      27.407  28.714  -6.006  0.00  0.00    -0.355 N 
HETATM   10  C   UNK N   1      28.047  28.429  -7.173  0.00  0.00     0.117 A 
ATOM     11  HN  UNK N   1      27.716  29.518  -5.459  1.00  0.00     0.166 HD
HETATM   12  C   UNK N   1      27.630  27.338  -7.942  0.00  0.00     0.035 A 
HETATM   13  C   UNK N   1      26.605  26.521  -7.471  0.00  0.00     0.015 A 
BRANCH   8  14
HETATM   14  C   UNK N   1      25.792  28.288  -4.200  0.00  0.00     0.057 C 
BRANCH  14  15
HETATM   15  C   UNK N   1      26.876  28.329  -3.138  0.00  0.00     0.002 C 
HETATM   16  C   UNK N   1      27.168  29.772  -2.778  0.00  0.00     0.005 C 
ENDBRANCH  14  15
ENDBRANCH   8  14
BRANCH  10  17
HETATM   17  C   UNK N   1      29.355  29.095  -7.476  0.00  0.00     0.432 C 
HETATM   18  F   UNK N   1      29.399  30.270  -6.743  0.00  0.00    -0.165 F 
HETATM   19  F   UNK N   1      30.427  28.304  -7.101  0.00  0.00    -0.165 F 
HETATM   20  F   UNK N   1      29.456  29.404  -8.818  0.00  0.00    -0.165 F 
ENDBRANCH  10  17
ENDBRANCH   6   7
ENDBRANCH   1   5
BRANCH   3  21
HETATM   21  C   UNK N   1      29.234  24.697  -4.145  0.00  0.00     0.114 C 
HETATM   22  C   UNK N   1      30.024  25.811  -4.839  0.00  0.00     0.037 C 
BRANCH  21  23
HETATM   23  C   UNK N   1      29.969  23.377  -4.125  0.00  0.00    -0.030 A 
HETATM   24  C   UNK N   1      30.939  23.082  -3.156  0.00  0.00     0.054 A 
HETATM   25  C   UNK N   1      31.669  21.890  -3.213  0.00  0.00     0.147 A 
HETATM   26  C   UNK N   1      31.429  20.963  -4.251  0.00  0.00     0.119 A 
HETATM   27  F   UNK N   1      32.583  21.649  -2.246  0.00  0.00    -0.204 F 
HETATM   28  C   UNK N   1      30.444  21.253  -5.207  0.00  0.00     0.147 A 
HETATM   29  C   UNK N   1      29.731  22.453  -5.149  0.00  0.00     0.054 A 
HETATM   30  F   UNK N   1      30.198  20.385  -6.219  0.00  0.00    -0.204 F 
BRANCH  26  31
HETATM   31  N   UNK N   1      32.149  19.738  -4.369  0.00  0.00    -0.279 N 
HETATM   32  H   UNK N   1      31.642  18.939  -4.643  0.00  0.00     0.179 HD
BRANCH  31  33
HETATM   33  S   UNK N   1      33.874  19.544  -4.062  0.00  0.00     0.227 S 
HETATM   34  O   UNK N   1      34.398  18.290  -4.774  0.00  0.00    -0.206 OA
HETATM   35  O   UNK N   1      34.561  20.706  -4.798  0.00  0.00    -0.206 OA
HETATM   36  C   UNK N   1      33.441  19.482  -5.824  0.00  0.00     0.186 C 
ENDBRANCH  31  33
ENDBRANCH  26  31
ENDBRANCH  21  23
ENDBRANCH   3  21
TORSDOF 9
ENDMDL
MODEL 7
REMARK VINA RESULT:      -6.9      6.972      9.628
REMARK  9 active torsions:
REMARK  status: ('A' for Active; 'I' for Inactive)
REMARK    1  A    between atoms: C_2  and  C_3 
REMARK    2  A    between atoms: C_3  and  C_4 
REMARK    3  A    between atoms: C_5  and  C_15 
REMARK    4  A    between atoms: C_8  and  C_11 
REMARK    5  A    between atoms: C_16  and  C_17 
REMARK       I    between atoms: C_17  and  N_19 
REMARK    6  A    between atoms: N_19  and  C_20 
REMARK    7  A    between atoms: C_20  and  C_22 
REMARK    8  A    between atoms: C_25  and  N_29 
REMARK    9  A    between atoms: N_29  and  S_30 
ROOT
HETATM    1  C   UNK N   1      20.243  17.102   1.041  0.00  0.00     0.241 C 
HETATM    2  O   UNK N   1      20.362  17.331  -0.157  0.00  0.00    -0.269 OA
HETATM    3  N   UNK N   1      20.636  15.919   1.578  0.00  0.00    -0.349 N 
HETATM    4  H   UNK N   1      20.593  15.853   2.558  0.00  0.00     0.163 HD
ENDROOT
BRANCH   1   5
HETATM    5  C   UNK N   1      19.411  18.002   1.842  0.00  0.00     0.075 C 
HETATM    6  C   UNK N   1      19.791  18.640   2.957  0.00  0.00     0.019 C 
BRANCH   6   7
HETATM    7  C   UNK N   1      21.136  19.125   3.336  0.00  0.00    -0.013 A 
HETATM    8  C   UNK N   1      21.976  18.380   4.195  0.00  0.00     0.019 A 
HETATM    9  N   UNK N   1      23.307  18.666   4.241  0.00  0.00    -0.355 N 
HETATM   10  C   UNK N   1      23.856  19.690   3.531  0.00  0.00     0.117 A 
ATOM     11  HN  UNK N   1      23.914  18.093   4.827  1.00  0.00     0.166 HD
HETATM   12  C   UNK N   1      23.038  20.493   2.731  0.00  0.00     0.035 A 
HETATM   13  C   UNK N   1      21.682  20.195   2.622  0.00  0.00     0.015 A 
BRANCH   8  14
HETATM   14  C   UNK N   1      21.476  17.173   4.926  0.00  0.00     0.057 C 
BRANCH  14  15
HETATM   15  C   UNK N   1      22.404  16.806   6.071  0.00  0.00     0.002 C 
HETATM   16  C   UNK N   1      22.470  15.297   6.196  0.00  0.00     0.005 C 
ENDBRANCH  14  15
ENDBRANCH   8  14
BRANCH  10  17
HETATM   17  C   UNK N   1      25.346  19.767   3.385  0.00  0.00     0.432 C 
HETATM   18  F   UNK N   1      25.851  20.270   4.574  0.00  0.00    -0.165 F 
HETATM   19  F   UNK N   1      25.901  18.519   3.166  0.00  0.00    -0.165 F 
HETATM   20  F   UNK N   1      25.700  20.618   2.356  0.00  0.00    -0.165 F 
ENDBRANCH  10  17
ENDBRANCH   6   7
ENDBRANCH   1   5
BRANCH   3  21
HETATM   21  C   UNK N   1      21.114  14.735   0.874  0.00  0.00     0.114 C 
HETATM   22  C   UNK N   1      20.175  13.527   0.948  0.00  0.00     0.037 C 
BRANCH  21  23
HETATM   23  C   UNK N   1      22.498  14.439   1.403  0.00  0.00    -0.030 A 
HETATM   24  C   UNK N   1      23.095  15.224   2.401  0.00  0.00     0.054 A 
HETATM   25  C   UNK N   1      24.412  14.985   2.808  0.00  0.00     0.147 A 
HETATM   26  C   UNK N   1      25.156  13.940   2.218  0.00  0.00     0.119 A 
HETATM   27  F   UNK N   1      24.933  15.762   3.784  0.00  0.00    -0.204 F 
HETATM   28  C   UNK N   1      24.548  13.145   1.234  0.00  0.00     0.147 A 
HETATM   29  C   UNK N   1      23.238  13.402   0.824  0.00  0.00     0.054 A 
HETATM   30  F   UNK N   1      25.242  12.140   0.645  0.00  0.00    -0.204 F 
BRANCH  26  31
HETATM   31  N   UNK N   1      26.504  13.655   2.583  0.00  0.00    -0.279 N 
HETATM   32  H   UNK N   1      26.660  12.892   3.185  0.00  0.00     0.179 HD
BRANCH  31  33
HETATM   33  S   UNK N   1      27.913  14.565   2.037  0.00  0.00     0.227 S 
HETATM   34  O   UNK N   1      28.127  15.791   2.934  0.00  0.00    -0.206 OA
HETATM   35  O   UNK N   1      29.126  13.670   2.332  0.00  0.00    -0.206 OA
HETATM   36  C   UNK N   1      27.951  14.165   3.808  0.00  0.00     0.186 C 
ENDBRANCH  31  33
ENDBRANCH  26  31
ENDBRANCH  21  23
ENDBRANCH   3  21
TORSDOF 9
ENDMDL
MODEL 8
REMARK VINA RESULT:      -6.8      3.334      5.063
REMARK  9 active torsions:
REMARK  status: ('A' for Active; 'I' for Inactive)
REMARK    1  A    between atoms: C_2  and  C_3 
REMARK    2  A    between atoms: C_3  and  C_4 
REMARK    3  A    between atoms: C_5  and  C_15 
REMARK    4  A    between atoms: C_8  and  C_11 
REMARK    5  A    between atoms: C_16  and  C_17 
REMARK       I    between atoms: C_17  and  N_19 
REMARK    6  A    between atoms: N_19  and  C_20 
REMARK    7  A    between atoms: C_20  and  C_22 
REMARK    8  A    between atoms: C_25  and  N_29 
REMARK    9  A    between atoms: N_29  and  S_30 
ROOT
HETATM    1  C   UNK N   1      30.299  18.034   8.896  0.00  0.00     0.241 C 
HETATM    2  O   UNK N   1      30.881  19.093   9.097  0.00  0.00    -0.269 OA
HETATM    3  N   UNK N   1      30.840  17.069   8.108  0.00  0.00    -0.349 N 
HETATM    4  H   UNK N   1      30.353  16.214   8.075  0.00  0.00     0.163 HD
ENDROOT
BRANCH   1   5
HETATM    5  C   UNK N   1      28.890  17.930   9.277  0.00  0.00     0.075 C 
HETATM    6  C   UNK N   1      27.864  18.535   8.665  0.00  0.00     0.019 C 
BRANCH   6   7
HETATM    7  C   UNK N   1      27.720  18.905   7.240  0.00  0.00    -0.013 A 
HETATM    8  C   UNK N   1      27.413  17.941   6.252  0.00  0.00     0.019 A 
HETATM    9  N   UNK N   1      26.947  18.351   5.040  0.00  0.00    -0.355 N 
HETATM   10  C   UNK N   1      26.820  19.668   4.717  0.00  0.00     0.117 A 
ATOM     11  HN  UNK N   1      26.684  17.647   4.350  1.00  0.00     0.166 HD
HETATM   12  C   UNK N   1      27.187  20.646   5.645  0.00  0.00     0.035 A 
HETATM   13  C   UNK N   1      27.619  20.259   6.912  0.00  0.00     0.015 A 
BRANCH   8  14
HETATM   14  C   UNK N   1      27.422  16.475   6.559  0.00  0.00     0.057 C 
BRANCH  14  15
HETATM   15  C   UNK N   1      26.105  15.829   6.167  0.00  0.00     0.002 C 
HETATM   16  C   UNK N   1      25.691  14.846   7.243  0.00  0.00     0.005 C 
ENDBRANCH  14  15
ENDBRANCH   8  14
BRANCH  10  17
HETATM   17  C   UNK N   1      26.030  20.053   3.503  0.00  0.00     0.432 C 
HETATM   18  F   UNK N   1      24.883  20.694   3.943  0.00  0.00    -0.165 F 
HETATM   19  F   UNK N   1      26.736  20.925   2.693  0.00  0.00    -0.165 F 
HETATM   20  F   UNK N   1      25.665  18.938   2.774  0.00  0.00    -0.165 F 
ENDBRANCH  10  17
ENDBRANCH   6   7
ENDBRANCH   1   5
BRANCH   3  21
HETATM   21  C   UNK N   1      32.055  17.148   7.306  0.00  0.00     0.114 C 
HETATM   22  C   UNK N   1      31.910  16.619   5.876  0.00  0.00     0.037 C 
BRANCH  21  23
HETATM   23  C   UNK N   1      33.143  16.449   8.087  0.00  0.00    -0.030 A 
HETATM   24  C   UNK N   1      33.338  15.061   8.010  0.00  0.00     0.054 A 
HETATM   25  C   UNK N   1      34.292  14.426   8.812  0.00  0.00     0.147 A 
HETATM   26  C   UNK N   1      35.078  15.183   9.709  0.00  0.00     0.119 A 
HETATM   27  F   UNK N   1      34.448  13.089   8.688  0.00  0.00    -0.204 F 
HETATM   28  C   UNK N   1      34.894  16.573   9.768  0.00  0.00     0.147 A 
HETATM   29  C   UNK N   1      33.928  17.194   8.973  0.00  0.00     0.054 A 
HETATM   30  F   UNK N   1      35.629  17.323  10.625  0.00  0.00    -0.204 F 
BRANCH  26  31
HETATM   31  N   UNK N   1      36.057  14.591  10.559  0.00  0.00    -0.279 N 
HETATM   32  H   UNK N   1      36.957  14.993  10.563  0.00  0.00     0.179 HD
BRANCH  31  33
HETATM   33  S   UNK N   1      35.781  13.199  11.604  0.00  0.00     0.227 S 
HETATM   34  O   UNK N   1      37.002  12.965  12.503  0.00  0.00    -0.206 OA
HETATM   35  O   UNK N   1      34.674  13.624  12.581  0.00  0.00    -0.206 OA
HETATM   36  C   UNK N   1      36.308  14.685  12.504  0.00  0.00     0.186 C 
ENDBRANCH  31  33
ENDBRANCH  26  31
ENDBRANCH  21  23
ENDBRANCH   3  21
TORSDOF 9
ENDMDL
MODEL 9
REMARK VINA RESULT:      -6.7      5.803     10.468
REMARK  9 active torsions:
REMARK  status: ('A' for Active; 'I' for Inactive)
REMARK    1  A    between atoms: C_2  and  C_3 
REMARK    2  A    between atoms: C_3  and  C_4 
REMARK    3  A    between atoms: C_5  and  C_15 
REMARK    4  A    between atoms: C_8  and  C_11 
REMARK    5  A    between atoms: C_16  and  C_17 
REMARK       I    between atoms: C_17  and  N_19 
REMARK    6  A    between atoms: N_19  and  C_20 
REMARK    7  A    between atoms: C_20  and  C_22 
REMARK    8  A    between atoms: C_25  and  N_29 
REMARK    9  A    between atoms: N_29  and  S_30 
ROOT
HETATM    1  C   UNK N   1      36.500  10.284  11.380  0.00  0.00     0.241 C 
HETATM    2  O   UNK N   1      37.724  10.238  11.345  0.00  0.00    -0.269 OA
HETATM    3  N   UNK N   1      35.834  11.465  11.314  0.00  0.00    -0.349 N 
HETATM    4  H   UNK N   1      34.854  11.406  11.254  0.00  0.00     0.163 HD
ENDROOT
BRANCH   1   5
HETATM    5  C   UNK N   1      35.770   9.080  11.782  0.00  0.00     0.075 C 
HETATM    6  C   UNK N   1      35.470   8.725  13.038  0.00  0.00     0.019 C 
BRANCH   6   7
HETATM    7  C   UNK N   1      35.208   9.590  14.210  0.00  0.00    -0.013 A 
HETATM    8  C   UNK N   1      36.193   9.814  15.199  0.00  0.00     0.019 A 
HETATM    9  N   UNK N   1      36.055  10.866  16.053  0.00  0.00    -0.355 N 
HETATM   10  C   UNK N   1      34.967  11.684  16.031  0.00  0.00     0.117 A 
ATOM     11  HN  UNK N   1      36.794  11.048  16.733  1.00  0.00     0.166 HD
HETATM   12  C   UNK N   1      33.940  11.442  15.114  0.00  0.00     0.035 A 
HETATM   13  C   UNK N   1      34.074  10.406  14.193  0.00  0.00     0.015 A 
BRANCH   8  14
HETATM   14  C   UNK N   1      37.470   9.032  15.224  0.00  0.00     0.057 C 
BRANCH  14  15
HETATM   15  C   UNK N   1      38.626   9.860  14.692  0.00  0.00     0.002 C 
HETATM   16  C   UNK N   1      39.892   9.027  14.723  0.00  0.00     0.005 C 
ENDBRANCH  14  15
ENDBRANCH   8  14
BRANCH  10  17
HETATM   17  C   UNK N   1      35.009  12.983  16.776  0.00  0.00     0.432 C 
HETATM   18  F   UNK N   1      35.063  12.682  18.128  0.00  0.00    -0.165 F 
HETATM   19  F   UNK N   1      36.131  13.723  16.446  0.00  0.00    -0.165 F 
HETATM   20  F   UNK N   1      33.874  13.731  16.532  0.00  0.00    -0.165 F 
ENDBRANCH  10  17
ENDBRANCH   6   7
ENDBRANCH   1   5
BRANCH   3  21
HETATM   21  C   UNK N   1      36.398  12.809  11.323  0.00  0.00     0.114 C 
HETATM   22  C   UNK N   1      36.421  13.483  12.699  0.00  0.00     0.037 C 
BRANCH  21  23
HETATM   23  C   UNK N   1      35.643  13.608  10.286  0.00  0.00    -0.030 A 
HETATM   24  C   UNK N   1      34.316  14.018  10.486  0.00  0.00     0.054 A 
HETATM   25  C   UNK N   1      33.610  14.677   9.475  0.00  0.00     0.147 A 
HETATM   26  C   UNK N   1      34.233  14.945   8.236  0.00  0.00     0.119 A 
HETATM   27  F   UNK N   1      32.339  15.062   9.725  0.00  0.00    -0.204 F 
HETATM   28  C   UNK N   1      35.567  14.551   8.048  0.00  0.00     0.147 A 
HETATM   29  C   UNK N   1      36.258  13.880   9.059  0.00  0.00     0.054 A 
HETATM   30  F   UNK N   1      36.188  14.788   6.866  0.00  0.00    -0.204 F 
BRANCH  26  31
HETATM   31  N   UNK N   1      33.562  15.602   7.164  0.00  0.00    -0.279 N 
HETATM   32  H   UNK N   1      33.298  15.054   6.390  0.00  0.00     0.179 HD
BRANCH  31  33
HETATM   33  S   UNK N   1      33.170  17.321   7.119  0.00  0.00     0.227 S 
HETATM   34  O   UNK N   1      34.381  18.125   6.629  0.00  0.00    -0.206 OA
HETATM   35  O   UNK N   1      32.134  17.482   5.996  0.00  0.00    -0.206 OA
HETATM   36  C   UNK N   1      33.866  16.697   5.563  0.00  0.00     0.186 C 
ENDBRANCH  31  33
ENDBRANCH  26  31
ENDBRANCH  21  23
ENDBRANCH   3  21
TORSDOF 9
ENDMDL
