REMARK  12 active torsions:
REMARK  status: ('A' for Active; 'I' for Inactive)
REMARK    1  A    between atoms: C_9  and  C_2 
REMARK    2  A    between atoms: C_13  and  C_5 
REMARK    3  A    between atoms: N_23  and  C_9 
REMARK    4  A    between atoms: O_31  and  C_13 
REMARK    5  A    between atoms: C_19  and  C_16 
REMARK    6  A    between atoms: N_27  and  C_16 
REMARK    7  A    between atoms: C_20  and  C_17 
REMARK    8  A    between atoms: S_32  and  C_17 
REMARK    9  A    between atoms: C_21  and  C_18 
REMARK   10  A    between atoms: S_32  and  C_18 
REMARK   11  A    between atoms: O_28  and  C_21 
REMARK   12  A    between atoms: O_31  and  C_22 
ROOT
HETATM    1  C   UNK N   1       5.852   2.673  -0.056  0.00  0.00    -0.009 C 
HETATM    2  C   UNK N   1       4.695   3.343   0.064  0.00  0.00    -0.003 C 
ENDROOT
BRANCH   2   3
HETATM    3  C   UNK N   1       3.488   2.947  -0.727  0.00  0.00     0.204 C 
BRANCH   3   4
HETATM    4  O   UNK N   1       2.316   3.043  -0.008  0.00  0.00    -0.332 OA
BRANCH   4   5
HETATM    5  C   UNK N   1       1.446   2.013   0.040  0.00  0.00     0.142 A 
HETATM    6  C   UNK N   1       0.074   2.273  -0.030  0.00  0.00     0.065 A 
HETATM    7  C   UNK N   1      -0.831   1.213  -0.110  0.00  0.00    -0.025 A 
HETATM    8  C   UNK N   1      -0.346  -0.101  -0.102  0.00  0.00     0.026 A 
HETATM    9  C   UNK N   1       1.027  -0.327   0.016  0.00  0.00     0.090 A 
HETATM   10  N   UNK N   1       1.891   0.722   0.059  0.00  0.00    -0.347 N 
ATOM     11  HN  UNK N   1       2.893   0.541   0.106  1.00  0.00     0.167 HD
BRANCH   7  12
HETATM   12  C   UNK N   1      -2.269   1.517  -0.428  0.00  0.00     0.311 C 
BRANCH  12  13
HETATM   13  N   UNK N   1      -3.249   0.688   0.266  0.00  0.00     0.092 N 
HETATM   14  C   UNK N   1      -3.284  -0.612  -0.416  0.00  0.00     0.272 C 
HETATM   15  C   UNK N   1      -4.375  -1.504   0.168  0.00  0.00     0.030 C 
HETATM   16  C   UNK N   1      -5.723  -0.829  -0.035  0.00  0.00     0.003 C 
HETATM   17  C   UNK N   1      -5.698   0.554   0.601  0.00  0.00     0.030 C 
HETATM   18  C   UNK N   1      -4.531   1.362   0.035  0.00  0.00     0.272 C 
ENDBRANCH  12  13
ENDBRANCH   7  12
ENDBRANCH   4   5
ENDBRANCH   3   4
ENDBRANCH   2   3
BRANCH   1  19
HETATM   19  C   UNK N   1       5.981   1.487  -0.967  0.00  0.00     0.148 C 
BRANCH  19  20
HETATM   20  N   UNK N   1       6.538   0.355  -0.265  0.00  0.00    -0.370 N 
HETATM   21  C   UNK N   1       5.845  -0.702  -0.018  0.00  0.00     0.123 C 
ATOM     22  HN  UNK N   1       7.510   0.393   0.043  1.00  0.00     0.161 HD
BRANCH  21  23
HETATM   23  C   UNK N   1       6.488  -1.867   0.662  0.00  0.00     0.192 C 
BRANCH  23  24
HETATM   24  S   UNK N   1       6.379  -3.339  -0.405  0.00  0.00     0.028 S 
HETATM   25  O   UNK N   1       5.063  -3.776   0.256  0.00  0.00    -0.257 OA
BRANCH  24  26
HETATM   26  C   UNK N   1       7.377  -4.355   0.727  0.00  0.00     0.174 C 
BRANCH  26  27
HETATM   27  C   UNK N   1       7.382  -5.783   0.288  0.00  0.00     0.064 A 
HETATM   28  C   UNK N   1       8.497  -6.505  -0.066  0.00  0.00     0.035 A 
HETATM   29  C   UNK N   1       8.029  -7.769  -0.379  0.00  0.00     0.027 A 
HETATM   30  C   UNK N   1       6.657  -7.735  -0.192  0.00  0.00     0.142 A 
HETATM   31  O   UNK N   1       6.312  -6.534   0.208  0.00  0.00    -0.326 OA
ENDBRANCH  26  27
ENDBRANCH  24  26
ENDBRANCH  23  24
ENDBRANCH  21  23
BRANCH  21  32
HETATM   32  O   UNK N   1       4.544  -0.771  -0.369  0.00  0.00    -0.349 OA
HETATM   33  H   UNK N   1       4.050  -0.012  -0.612  0.00  0.00     0.219 HD
ENDBRANCH  21  32
ENDBRANCH  19  20
ENDBRANCH   1  19
TORSDOF 12
