MODEL 1
REMARK VINA RESULT:      -9.0      0.000      0.000
REMARK  11 active torsions:
REMARK  status: ('A' for Active; 'I' for Inactive)
REMARK    1  A    between atoms: C_2  and  C_3 
REMARK    2  A    between atoms: C_6  and  C_2 
REMARK    3  A    between atoms: C_23  and  C_24 
REMARK    4  A    between atoms: C_24  and  O_26 
REMARK    5  A    between atoms: C_29  and  N_40 
REMARK    6  A    between atoms: C_30  and  O_31 
REMARK    7  A    between atoms: O_31  and  C_32 
REMARK    8  A    between atoms: C_32  and  C_33 
REMARK    9  A    between atoms: C_33  and  C_35 
REMARK   10  A    between atoms: C_33  and  N_39 
REMARK   11  A    between atoms: C_41  and  C_47 
ROOT
HETATM    1  C   UNK N   1      27.248  18.593   4.305  0.00  0.00    -0.026 C 
HETATM    2  C   UNK N   1      28.019  17.547   3.464  0.00  0.00     0.011 C 
HETATM    3  C   UNK N   1      28.421  16.287   4.244  0.00  0.00     0.011 C 
HETATM    4  C   UNK N   1      29.355  16.718   5.372  0.00  0.00    -0.028 C 
HETATM    5  C   UNK N   1      29.964  15.570   6.197  0.00  0.00     0.024 C 
HETATM    6  C   UNK N   1      30.464  14.364   5.375  0.00  0.00     0.010 C 
HETATM    7  C   UNK N   1      31.645  13.656   6.038  0.00  0.00     0.007 C 
HETATM    8  C   UNK N   1      32.727  14.714   6.018  0.00  0.00     0.013 C 
HETATM    9  C   UNK N   1      34.206  14.313   6.086  0.00  0.00     0.010 C 
HETATM   10  C   UNK N   1      34.958  15.590   5.640  0.00  0.00     0.179 C 
HETATM   11  O   UNK N   1      34.721  16.695   6.497  0.00  0.00    -0.389 OA
HETATM   12  C   UNK N   1      33.340  17.014   6.502  0.00  0.00     0.182 C 
HETATM   13  C   UNK N   1      32.465  15.842   7.019  0.00  0.00     0.011 C 
HETATM   14  C   UNK N   1      31.022  16.245   7.064  0.00  0.00    -0.068 C 
HETATM   15  C   UNK N   1      30.686  17.335   7.776  0.00  0.00    -0.022 C 
HETATM   16  C   UNK N   1      29.328  17.960   7.667  0.00  0.00     0.038 C 
HETATM   17  C   UNK N   1      28.528  17.583   6.387  0.00  0.00    -0.019 C 
HETATM   18  C   UNK N   1      28.050  18.850   5.635  0.00  0.00     0.101 C 
HETATM   19  C   UNK N   1      27.315  16.801   6.904  0.00  0.00     0.017 C 
HETATM   20  C   UNK N   1      32.833  15.433   8.435  0.00  0.00     0.046 C 
HETATM   21  C   UNK N   1      34.265  15.015   8.498  0.00  0.00     0.141 C 
HETATM   22  C   UNK N   1      34.616  13.876   7.529  0.00  0.00     0.157 C 
HETATM   23  C   UNK N   1      34.515  13.224   5.071  0.00  0.00     0.020 C 
HETATM   24  C   UNK N   1      30.511  17.515   4.704  0.00  0.00     0.016 C 
HETATM   25  C   UNK N   1      27.303  19.862   3.466  0.00  0.00     0.016 C 
ENDROOT
BRANCH  21  26
HETATM   26  N   UNK N   1      35.096  15.310   9.676  0.00  0.00    -0.268 N 
HETATM   27  C   UNK N   1      36.349  14.915  10.062  0.00  0.00     0.134 A 
HETATM   28  N   UNK N   1      36.601  15.352  11.313  0.00  0.00    -0.336 N 
HETATM   29  C   UNK N   1      35.486  16.014  11.675  0.00  0.00     0.199 A 
ATOM     30  HN  UNK N   1      37.448  15.211  11.863  1.00  0.00     0.168 HD
HETATM   31  N   UNK N   1      34.574  15.979  10.690  0.00  0.00    -0.292 N 
ATOM     32  HN  UNK N   1      33.642  16.394  10.719  1.00  0.00     0.188 HD
BRANCH  27  33
HETATM   33  C   UNK N   1      37.380  14.098   9.338  0.00  0.00     0.012 A 
HETATM   34  C   UNK N   1      38.130  13.170  10.076  0.00  0.00     0.032 A 
HETATM   35  C   UNK N   1      39.096  12.381   9.444  0.00  0.00     0.088 A 
HETATM   36  N   UNK N   1      39.323  12.517   8.111  0.00  0.00    -0.375 N 
HETATM   37  C   UNK N   1      38.631  13.421   7.371  0.00  0.00     0.088 A 
ATOM     38  HN  UNK N   1      40.024  11.930   7.659  1.00  0.00     0.164 HD
HETATM   39  C   UNK N   1      37.661  14.221   7.977  0.00  0.00     0.032 A 
ENDBRANCH  27  33
ENDBRANCH  21  26
BRANCH  22  40
HETATM   40  O   UNK N   1      33.902  12.727   7.919  0.00  0.00    -0.380 OA
BRANCH  40  41
HETATM   41  C   UNK N   1      34.772  11.970   8.712  0.00  0.00     0.199 C 
BRANCH  41  42
HETATM   42  C   UNK N   1      34.058  10.860   9.507  0.00  0.00     0.048 C 
HETATM   43  C   UNK N   1      34.200   9.558   8.731  0.00  0.00     0.041 C 
BRANCH  42  44
HETATM   44  C   UNK N   1      34.696  10.749  10.924  0.00  0.00    -0.025 C 
HETATM   45  C   UNK N   1      34.862  12.120  11.563  0.00  0.00     0.017 C 
HETATM   46  C   UNK N   1      36.064  10.089  10.857  0.00  0.00     0.017 C 
HETATM   47  C   UNK N   1      33.834   9.919  11.864  0.00  0.00     0.017 C 
ENDBRANCH  42  44
BRANCH  42  48
HETATM   48  N   UNK N   1      32.633  11.135   9.619  0.00  0.00    -0.420 N 
HETATM   49  H   UNK N   1      31.952  10.425   9.346  0.00  0.00     0.150 HD
HETATM   50  H   UNK N   1      32.313  12.039   9.971  0.00  0.00     0.150 HD
ENDBRANCH  42  48
ENDBRANCH  41  42
ENDBRANCH  40  41
ENDBRANCH  22  40
BRANCH  18  51
HETATM   51  C   UNK N   1      27.662  19.998   6.535  0.00  0.00     0.145 C 
HETATM   52  O   UNK N   1      28.205  21.081   6.392  0.00  0.00    -0.650 OA
BRANCH  51  53
HETATM   53  O   UNK N   1      26.878  19.787   7.612  0.00  0.00    -0.776 OA
HETATM   54  H   UNK N   1      26.542  19.157   8.218  0.00  0.00     0.167 HD
ENDBRANCH  51  53
ENDBRANCH  18  51
BRANCH   1  55
HETATM   55  C   UNK N   1      25.766  18.095   4.510  0.00  0.00    -0.006 C 
HETATM   56  C   UNK N   1      25.306  17.089   3.450  0.00  0.00     0.011 C 
BRANCH  55  57
HETATM   57  C   UNK N   1      24.631  19.140   4.631  0.00  0.00    -0.018 C 
HETATM   58  C   UNK N   1      24.304  19.919   3.385  0.00  0.00     0.010 C 
HETATM   59  C   UNK N   1      23.357  18.613   5.276  0.00  0.00     0.010 C 
ENDBRANCH  55  57
ENDBRANCH   1  55
TORSDOF 11
ENDMDL
MODEL 2
REMARK VINA RESULT:      -8.7      3.405      5.683
REMARK  11 active torsions:
REMARK  status: ('A' for Active; 'I' for Inactive)
REMARK    1  A    between atoms: C_2  and  C_3 
REMARK    2  A    between atoms: C_6  and  C_2 
REMARK    3  A    between atoms: C_23  and  C_24 
REMARK    4  A    between atoms: C_24  and  O_26 
REMARK    5  A    between atoms: C_29  and  N_40 
REMARK    6  A    between atoms: C_30  and  O_31 
REMARK    7  A    between atoms: O_31  and  C_32 
REMARK    8  A    between atoms: C_32  and  C_33 
REMARK    9  A    between atoms: C_33  and  C_35 
REMARK   10  A    between atoms: C_33  and  N_39 
REMARK   11  A    between atoms: C_41  and  C_47 
ROOT
HETATM    1  C   UNK N   1      24.465  13.433   2.034  0.00  0.00    -0.026 C 
HETATM    2  C   UNK N   1      25.715  12.725   1.458  0.00  0.00     0.011 C 
HETATM    3  C   UNK N   1      26.683  12.192   2.525  0.00  0.00     0.011 C 
HETATM    4  C   UNK N   1      27.187  13.387   3.331  0.00  0.00    -0.028 C 
HETATM    5  C   UNK N   1      28.268  13.064   4.379  0.00  0.00     0.024 C 
HETATM    6  C   UNK N   1      29.373  12.096   3.906  0.00  0.00     0.010 C 
HETATM    7  C   UNK N   1      30.713  12.364   4.588  0.00  0.00     0.007 C 
HETATM    8  C   UNK N   1      31.070  13.752   4.102  0.00  0.00     0.013 C 
HETATM    9  C   UNK N   1      32.531  14.219   4.090  0.00  0.00     0.010 C 
HETATM   10  C   UNK N   1      32.514  15.470   3.179  0.00  0.00     0.179 C 
HETATM   11  O   UNK N   1      31.683  16.504   3.681  0.00  0.00    -0.389 OA
HETATM   12  C   UNK N   1      30.346  16.046   3.773  0.00  0.00     0.182 C 
HETATM   13  C   UNK N   1      30.199  14.839   4.735  0.00  0.00     0.011 C 
HETATM   14  C   UNK N   1      28.761  14.429   4.848  0.00  0.00    -0.068 C 
HETATM   15  C   UNK N   1      27.862  15.353   5.231  0.00  0.00    -0.022 C 
HETATM   16  C   UNK N   1      26.388  15.112   5.119  0.00  0.00     0.038 C 
HETATM   17  C   UNK N   1      25.976  13.979   4.135  0.00  0.00    -0.019 C 
HETATM   18  C   UNK N   1      24.939  14.488   3.102  0.00  0.00     0.101 C 
HETATM   19  C   UNK N   1      25.336  12.906   5.023  0.00  0.00     0.017 C 
HETATM   20  C   UNK N   1      30.654  15.171   6.147  0.00  0.00     0.046 C 
HETATM   21  C   UNK N   1      32.084  15.599   6.142  0.00  0.00     0.141 C 
HETATM   22  C   UNK N   1      33.036  14.560   5.530  0.00  0.00     0.157 C 
HETATM   23  C   UNK N   1      33.421  13.181   3.425  0.00  0.00     0.020 C 
HETATM   24  C   UNK N   1      27.778  14.393   2.303  0.00  0.00     0.016 C 
HETATM   25  C   UNK N   1      23.882  14.188   0.848  0.00  0.00     0.016 C 
ENDROOT
BRANCH  21  26
HETATM   26  N   UNK N   1      32.571  16.649   7.051  0.00  0.00    -0.268 N 
HETATM   27  C   UNK N   1      31.940  17.544   7.873  0.00  0.00     0.134 A 
HETATM   28  N   UNK N   1      32.841  18.403   8.391  0.00  0.00    -0.336 N 
HETATM   29  C   UNK N   1      34.021  18.015   7.872  0.00  0.00     0.199 A 
ATOM     30  HN  UNK N   1      32.667  19.176   9.033  1.00  0.00     0.168 HD
HETATM   31  N   UNK N   1      33.856  16.963   7.054  0.00  0.00    -0.292 N 
ATOM     32  HN  UNK N   1      34.590  16.490   6.528  1.00  0.00     0.188 HD
BRANCH  27  33
HETATM   33  C   UNK N   1      30.486  17.694   8.217  0.00  0.00     0.012 A 
HETATM   34  C   UNK N   1      30.038  17.187   9.446  0.00  0.00     0.032 A 
HETATM   35  C   UNK N   1      28.695  17.310   9.813  0.00  0.00     0.088 A 
HETATM   36  N   UNK N   1      27.811  17.913   8.975  0.00  0.00    -0.375 N 
HETATM   37  C   UNK N   1      28.206  18.395   7.769  0.00  0.00     0.088 A 
ATOM     38  HN  UNK N   1      26.835  18.005   9.257  1.00  0.00     0.164 HD
HETATM   39  C   UNK N   1      29.541  18.285   7.377  0.00  0.00     0.032 A 
ENDBRANCH  27  33
ENDBRANCH  21  26
BRANCH  22  40
HETATM   40  O   UNK N   1      33.019  13.412   6.344  0.00  0.00    -0.380 OA
BRANCH  40  41
HETATM   41  C   UNK N   1      34.090  13.543   7.235  0.00  0.00     0.199 C 
BRANCH  41  42
HETATM   42  C   UNK N   1      33.721  13.176   8.686  0.00  0.00     0.048 C 
HETATM   43  C   UNK N   1      33.937  11.680   8.863  0.00  0.00     0.041 C 
BRANCH  42  44
HETATM   44  C   UNK N   1      34.610  13.998   9.667  0.00  0.00    -0.025 C 
HETATM   45  C   UNK N   1      35.833  14.565   8.961  0.00  0.00     0.017 C 
HETATM   46  C   UNK N   1      35.088  13.136  10.824  0.00  0.00     0.017 C 
HETATM   47  C   UNK N   1      33.850  15.176  10.260  0.00  0.00     0.017 C 
ENDBRANCH  42  44
BRANCH  42  48
HETATM   48  N   UNK N   1      32.313  13.437   8.946  0.00  0.00    -0.420 N 
HETATM   49  H   UNK N   1      32.024  14.333   9.343  0.00  0.00     0.150 HD
HETATM   50  H   UNK N   1      31.613  12.726   8.731  0.00  0.00     0.150 HD
ENDBRANCH  42  48
ENDBRANCH  41  42
ENDBRANCH  40  41
ENDBRANCH  22  40
BRANCH  18  51
HETATM   51  C   UNK N   1      23.956  15.493   3.651  0.00  0.00     0.145 C 
HETATM   52  O   UNK N   1      24.102  16.676   3.394  0.00  0.00    -0.650 OA
BRANCH  51  53
HETATM   53  O   UNK N   1      23.047  15.124   4.577  0.00  0.00    -0.776 OA
HETATM   54  H   UNK N   1      22.554  15.383   5.330  0.00  0.00     0.167 HD
ENDBRANCH  51  53
ENDBRANCH  18  51
BRANCH   1  55
HETATM   55  C   UNK N   1      23.464  12.342   2.578  0.00  0.00    -0.006 C 
HETATM   56  C   UNK N   1      23.718  10.942   2.012  0.00  0.00     0.011 C 
BRANCH  55  57
HETATM   57  C   UNK N   1      21.942  12.588   2.449  0.00  0.00    -0.018 C 
HETATM   58  C   UNK N   1      21.238  11.858   1.336  0.00  0.00     0.010 C 
HETATM   59  C   UNK N   1      21.168  12.441   3.752  0.00  0.00     0.010 C 
ENDBRANCH  55  57
ENDBRANCH   1  55
TORSDOF 11
ENDMDL
MODEL 3
REMARK VINA RESULT:      -8.3      6.246     12.506
REMARK  11 active torsions:
REMARK  status: ('A' for Active; 'I' for Inactive)
REMARK    1  A    between atoms: C_2  and  C_3 
REMARK    2  A    between atoms: C_6  and  C_2 
REMARK    3  A    between atoms: C_23  and  C_24 
REMARK    4  A    between atoms: C_24  and  O_26 
REMARK    5  A    between atoms: C_29  and  N_40 
REMARK    6  A    between atoms: C_30  and  O_31 
REMARK    7  A    between atoms: O_31  and  C_32 
REMARK    8  A    between atoms: C_32  and  C_33 
REMARK    9  A    between atoms: C_33  and  C_35 
REMARK   10  A    between atoms: C_33  and  N_39 
REMARK   11  A    between atoms: C_41  and  C_47 
ROOT
HETATM    1  C   UNK N   1      31.223  12.987   3.903  0.00  0.00    -0.026 C 
HETATM    2  C   UNK N   1      30.267  11.961   3.247  0.00  0.00     0.011 C 
HETATM    3  C   UNK N   1      29.045  12.590   2.561  0.00  0.00     0.011 C 
HETATM    4  C   UNK N   1      28.238  13.321   3.631  0.00  0.00    -0.028 C 
HETATM    5  C   UNK N   1      26.902  13.918   3.153  0.00  0.00     0.024 C 
HETATM    6  C   UNK N   1      26.067  13.006   2.230  0.00  0.00     0.010 C 
HETATM    7  C   UNK N   1      24.566  13.245   2.378  0.00  0.00     0.007 C 
HETATM    8  C   UNK N   1      24.297  12.831   3.808  0.00  0.00     0.013 C 
HETATM    9  C   UNK N   1      22.889  12.402   4.241  0.00  0.00     0.010 C 
HETATM   10  C   UNK N   1      23.117  11.694   5.598  0.00  0.00     0.179 C 
HETATM   11  O   UNK N   1      23.679  12.552   6.578  0.00  0.00    -0.389 OA
HETATM   12  C   UNK N   1      24.944  13.018   6.142  0.00  0.00     0.182 C 
HETATM   13  C   UNK N   1      24.852  13.832   4.824  0.00  0.00     0.011 C 
HETATM   14  C   UNK N   1      26.202  14.356   4.436  0.00  0.00    -0.068 C 
HETATM   15  C   UNK N   1      26.873  15.111   5.322  0.00  0.00    -0.022 C 
HETATM   16  C   UNK N   1      28.319  15.455   5.130  0.00  0.00     0.038 C 
HETATM   17  C   UNK N   1      29.092  14.534   4.142  0.00  0.00    -0.019 C 
HETATM   18  C   UNK N   1      30.369  13.957   4.801  0.00  0.00     0.101 C 
HETATM   19  C   UNK N   1      29.481  15.453   2.979  0.00  0.00     0.017 C 
HETATM   20  C   UNK N   1      23.952  15.049   4.963  0.00  0.00     0.046 C 
HETATM   21  C   UNK N   1      22.574  14.631   5.356  0.00  0.00     0.141 C 
HETATM   22  C   UNK N   1      21.933  13.630   4.383  0.00  0.00     0.157 C 
HETATM   23  C   UNK N   1      22.323  11.370   3.278  0.00  0.00     0.020 C 
HETATM   24  C   UNK N   1      27.944  12.279   4.747  0.00  0.00     0.016 C 
HETATM   25  C   UNK N   1      32.104  12.147   4.816  0.00  0.00     0.016 C 
ENDROOT
BRANCH  21  26
HETATM   26  N   UNK N   1      21.760  15.447   6.270  0.00  0.00    -0.268 N 
HETATM   27  C   UNK N   1      21.154  16.670   6.149  0.00  0.00     0.134 A 
HETATM   28  N   UNK N   1      20.644  17.048   7.338  0.00  0.00    -0.336 N 
HETATM   29  C   UNK N   1      20.948  16.040   8.177  0.00  0.00     0.199 A 
ATOM     30  HN  UNK N   1      20.140  17.908   7.555  1.00  0.00     0.168 HD
HETATM   31  N   UNK N   1      21.632  15.079   7.534  0.00  0.00    -0.292 N 
ATOM     32  HN  UNK N   1      21.989  14.217   7.947  1.00  0.00     0.188 HD
BRANCH  27  33
HETATM   33  C   UNK N   1      21.025  17.580   4.961  0.00  0.00     0.012 A 
HETATM   34  C   UNK N   1      19.927  17.404   4.105  0.00  0.00     0.032 A 
HETATM   35  C   UNK N   1      19.761  18.232   2.991  0.00  0.00     0.088 A 
HETATM   36  N   UNK N   1      20.670  19.207   2.723  0.00  0.00    -0.375 N 
HETATM   37  C   UNK N   1      21.755  19.390   3.518  0.00  0.00     0.088 A 
ATOM     38  HN  UNK N   1      20.533  19.811   1.913  1.00  0.00     0.164 HD
HETATM   39  C   UNK N   1      21.946  18.577   4.637  0.00  0.00     0.032 A 
ENDBRANCH  27  33
ENDBRANCH  21  26
BRANCH  22  40
HETATM   40  O   UNK N   1      21.761  14.269   3.141  0.00  0.00    -0.380 OA
BRANCH  40  41
HETATM   41  C   UNK N   1      20.384  14.284   2.891  0.00  0.00     0.199 C 
BRANCH  41  42
HETATM   42  C   UNK N   1      20.037  14.121   1.398  0.00  0.00     0.048 C 
HETATM   43  C   UNK N   1      21.341  14.000   0.622  0.00  0.00     0.041 C 
BRANCH  42  44
HETATM   44  C   UNK N   1      19.146  12.856   1.212  0.00  0.00    -0.025 C 
HETATM   45  C   UNK N   1      17.907  13.171   0.386  0.00  0.00     0.017 C 
HETATM   46  C   UNK N   1      18.694  12.304   2.554  0.00  0.00     0.017 C 
HETATM   47  C   UNK N   1      19.894  11.744   0.490  0.00  0.00     0.017 C 
ENDBRANCH  42  44
BRANCH  42  48
HETATM   48  N   UNK N   1      19.347  15.299   0.893  0.00  0.00    -0.420 N 
HETATM   49  H   UNK N   1      18.487  15.195   0.352  0.00  0.00     0.150 HD
HETATM   50  H   UNK N   1      19.722  16.230   1.079  0.00  0.00     0.150 HD
ENDBRANCH  42  48
ENDBRANCH  41  42
ENDBRANCH  40  41
ENDBRANCH  22  40
BRANCH  18  51
HETATM   51  C   UNK N   1      31.062  14.906   5.749  0.00  0.00     0.145 C 
HETATM   52  O   UNK N   1      31.232  14.574   6.910  0.00  0.00    -0.650 OA
BRANCH  51  53
HETATM   53  O   UNK N   1      31.311  16.179   5.381  0.00  0.00    -0.776 OA
HETATM   54  H   UNK N   1      30.972  17.050   5.310  0.00  0.00     0.167 HD
ENDBRANCH  51  53
ENDBRANCH  18  51
BRANCH   1  55
HETATM   55  C   UNK N   1      32.065  13.697   2.774  0.00  0.00    -0.006 C 
HETATM   56  C   UNK N   1      32.429  12.772   1.609  0.00  0.00     0.011 C 
BRANCH  55  57
HETATM   57  C   UNK N   1      33.369  14.434   3.161  0.00  0.00    -0.018 C 
HETATM   58  C   UNK N   1      34.655  13.811   2.688  0.00  0.00     0.010 C 
HETATM   59  C   UNK N   1      33.360  15.927   2.858  0.00  0.00     0.010 C 
ENDBRANCH  55  57
ENDBRANCH   1  55
TORSDOF 11
ENDMDL
MODEL 4
REMARK VINA RESULT:      -8.2      7.936     13.462
REMARK  11 active torsions:
REMARK  status: ('A' for Active; 'I' for Inactive)
REMARK    1  A    between atoms: C_2  and  C_3 
REMARK    2  A    between atoms: C_6  and  C_2 
REMARK    3  A    between atoms: C_23  and  C_24 
REMARK    4  A    between atoms: C_24  and  O_26 
REMARK    5  A    between atoms: C_29  and  N_40 
REMARK    6  A    between atoms: C_30  and  O_31 
REMARK    7  A    between atoms: O_31  and  C_32 
REMARK    8  A    between atoms: C_32  and  C_33 
REMARK    9  A    between atoms: C_33  and  C_35 
REMARK   10  A    between atoms: C_33  and  N_39 
REMARK   11  A    between atoms: C_41  and  C_47 
ROOT
HETATM    1  C   UNK N   1      36.922  11.602  11.675  0.00  0.00    -0.026 C 
HETATM    2  C   UNK N   1      37.727  10.393  12.210  0.00  0.00     0.011 C 
HETATM    3  C   UNK N   1      36.870   9.328  12.909  0.00  0.00     0.011 C 
HETATM    4  C   UNK N   1      36.208   9.984  14.118  0.00  0.00    -0.028 C 
HETATM    5  C   UNK N   1      35.398   9.036  15.020  0.00  0.00     0.024 C 
HETATM    6  C   UNK N   1      36.067   7.677  15.314  0.00  0.00     0.010 C 
HETATM    7  C   UNK N   1      35.679   7.120  16.682  0.00  0.00     0.007 C 
HETATM    8  C   UNK N   1      36.256   8.140  17.639  0.00  0.00     0.013 C 
HETATM    9  C   UNK N   1      36.576   7.751  19.088  0.00  0.00     0.010 C 
HETATM   10  C   UNK N   1      37.489   8.896  19.587  0.00  0.00     0.179 C 
HETATM   11  O   UNK N   1      36.849  10.162  19.560  0.00  0.00    -0.389 OA
HETATM   12  C   UNK N   1      36.477  10.485  18.231  0.00  0.00     0.182 C 
HETATM   13  C   UNK N   1      35.480   9.458  17.631  0.00  0.00     0.011 C 
HETATM   14  C   UNK N   1      35.067   9.874  16.251  0.00  0.00    -0.068 C 
HETATM   15  C   UNK N   1      34.528  11.094  16.086  0.00  0.00    -0.022 C 
HETATM   16  C   UNK N   1      34.331  11.692  14.726  0.00  0.00     0.038 C 
HETATM   17  C   UNK N   1      35.186  11.054  13.594  0.00  0.00    -0.019 C 
HETATM   18  C   UNK N   1      35.995  12.133  12.831  0.00  0.00     0.101 C 
HETATM   19  C   UNK N   1      34.164  10.412  12.649  0.00  0.00     0.017 C 
HETATM   20  C   UNK N   1      34.199   9.361  18.443  0.00  0.00     0.046 C 
HETATM   21  C   UNK N   1      34.505   8.955  19.846  0.00  0.00     0.141 C 
HETATM   22  C   UNK N   1      35.277   7.631  19.950  0.00  0.00     0.157 C 
HETATM   23  C   UNK N   1      37.388   6.467  19.133  0.00  0.00     0.020 C 
HETATM   24  C   UNK N   1      37.355  10.610  14.961  0.00  0.00     0.016 C 
HETATM   25  C   UNK N   1      37.979  12.660  11.391  0.00  0.00     0.016 C 
ENDROOT
BRANCH  21  26
HETATM   26  N   UNK N   1      33.736   9.490  20.981  0.00  0.00    -0.268 N 
HETATM   27  C   UNK N   1      32.644   9.037  21.671  0.00  0.00     0.134 A 
HETATM   28  N   UNK N   1      32.229   9.979  22.542  0.00  0.00    -0.336 N 
HETATM   29  C   UNK N   1      33.084  11.004  22.369  0.00  0.00     0.199 A 
ATOM     30  HN  UNK N   1      31.441   9.927  23.188  1.00  0.00     0.168 HD
HETATM   31  N   UNK N   1      33.987  10.713  21.419  0.00  0.00    -0.292 N 
ATOM     32  HN  UNK N   1      34.734  11.326  21.091  1.00  0.00     0.188 HD
BRANCH  27  33
HETATM   33  C   UNK N   1      31.893   7.740  21.566  0.00  0.00     0.012 A 
HETATM   34  C   UNK N   1      31.931   6.860  22.658  0.00  0.00     0.032 A 
HETATM   35  C   UNK N   1      31.242   5.645  22.609  0.00  0.00     0.088 A 
HETATM   36  N   UNK N   1      30.540   5.302  21.497  0.00  0.00    -0.375 N 
HETATM   37  C   UNK N   1      30.501   6.120  20.414  0.00  0.00     0.088 A 
ATOM     38  HN  UNK N   1      30.034   4.417  21.476  1.00  0.00     0.164 HD
HETATM   39  C   UNK N   1      31.180   7.339  20.436  0.00  0.00     0.032 A 
ENDBRANCH  27  33
ENDBRANCH  21  26
BRANCH  22  40
HETATM   40  O   UNK N   1      34.454   6.600  19.462  0.00  0.00    -0.380 OA
BRANCH  40  41
HETATM   41  C   UNK N   1      34.614   5.518  20.335  0.00  0.00     0.199 C 
BRANCH  41  42
HETATM   42  C   UNK N   1      34.060   4.195  19.771  0.00  0.00     0.048 C 
HETATM   43  C   UNK N   1      33.191   4.525  18.565  0.00  0.00     0.041 C 
BRANCH  42  44
HETATM   44  C   UNK N   1      35.246   3.265  19.379  0.00  0.00    -0.025 C 
HETATM   45  C   UNK N   1      34.818   1.805  19.355  0.00  0.00     0.017 C 
HETATM   46  C   UNK N   1      36.399   3.405  20.361  0.00  0.00     0.017 C 
HETATM   47  C   UNK N   1      35.785   3.596  17.994  0.00  0.00     0.017 C 
ENDBRANCH  42  44
BRANCH  42  48
HETATM   48  N   UNK N   1      33.204   3.532  20.745  0.00  0.00    -0.420 N 
HETATM   49  H   UNK N   1      33.084   2.519  20.714  0.00  0.00     0.150 HD
HETATM   50  H   UNK N   1      32.724   4.080  21.460  0.00  0.00     0.150 HD
ENDBRANCH  42  48
ENDBRANCH  41  42
ENDBRANCH  40  41
ENDBRANCH  22  40
BRANCH  18  51
HETATM   51  C   UNK N   1      35.277  13.451  12.672  0.00  0.00     0.145 C 
HETATM   52  O   UNK N   1      35.601  14.398  13.369  0.00  0.00    -0.650 OA
BRANCH  51  53
HETATM   53  O   UNK N   1      34.160  13.534  11.920  0.00  0.00    -0.776 OA
HETATM   54  H   UNK N   1      33.805  13.712  11.072  0.00  0.00     0.167 HD
ENDBRANCH  51  53
ENDBRANCH  18  51
BRANCH   1  55
HETATM   55  C   UNK N   1      36.162  11.172  10.362  0.00  0.00    -0.006 C 
HETATM   56  C   UNK N   1      36.764   9.937   9.684  0.00  0.00     0.011 C 
BRANCH  55  57
HETATM   57  C   UNK N   1      35.949  12.215   9.240  0.00  0.00    -0.018 C 
HETATM   58  C   UNK N   1      36.846  12.097   8.037  0.00  0.00     0.010 C 
HETATM   59  C   UNK N   1      34.500  12.385   8.806  0.00  0.00     0.010 C 
ENDBRANCH  55  57
ENDBRANCH   1  55
TORSDOF 11
ENDMDL
MODEL 5
REMARK VINA RESULT:      -8.2      8.348     13.560
REMARK  11 active torsions:
REMARK  status: ('A' for Active; 'I' for Inactive)
REMARK    1  A    between atoms: C_2  and  C_3 
REMARK    2  A    between atoms: C_6  and  C_2 
REMARK    3  A    between atoms: C_23  and  C_24 
REMARK    4  A    between atoms: C_24  and  O_26 
REMARK    5  A    between atoms: C_29  and  N_40 
REMARK    6  A    between atoms: C_30  and  O_31 
REMARK    7  A    between atoms: O_31  and  C_32 
REMARK    8  A    between atoms: C_32  and  C_33 
REMARK    9  A    between atoms: C_33  and  C_35 
REMARK   10  A    between atoms: C_33  and  N_39 
REMARK   11  A    between atoms: C_41  and  C_47 
ROOT
HETATM    1  C   UNK N   1      36.820  11.473  11.746  0.00  0.00    -0.026 C 
HETATM    2  C   UNK N   1      37.548  10.183  12.193  0.00  0.00     0.011 C 
HETATM    3  C   UNK N   1      36.647   9.171  12.914  0.00  0.00     0.011 C 
HETATM    4  C   UNK N   1      36.120   9.839  14.182  0.00  0.00    -0.028 C 
HETATM    5  C   UNK N   1      35.288   8.933  15.106  0.00  0.00     0.024 C 
HETATM    6  C   UNK N   1      35.853   7.512  15.317  0.00  0.00     0.010 C 
HETATM    7  C   UNK N   1      35.502   6.943  16.690  0.00  0.00     0.007 C 
HETATM    8  C   UNK N   1      36.224   7.878  17.638  0.00  0.00     0.013 C 
HETATM    9  C   UNK N   1      36.597   7.413  19.051  0.00  0.00     0.010 C 
HETATM   10  C   UNK N   1      37.636   8.459  19.524  0.00  0.00     0.179 C 
HETATM   11  O   UNK N   1      37.108   9.774  19.574  0.00  0.00    -0.389 OA
HETATM   12  C   UNK N   1      36.684  10.173  18.282  0.00  0.00     0.182 C 
HETATM   13  C   UNK N   1      35.567   9.257  17.718  0.00  0.00     0.011 C 
HETATM   14  C   UNK N   1      35.107   9.753  16.380  0.00  0.00    -0.068 C 
HETATM   15  C   UNK N   1      34.667  11.019  16.285  0.00  0.00    -0.022 C 
HETATM   16  C   UNK N   1      34.439  11.678  14.959  0.00  0.00     0.038 C 
HETATM   17  C   UNK N   1      35.165  11.009  13.756  0.00  0.00    -0.019 C 
HETATM   18  C   UNK N   1      36.016  12.041  12.974  0.00  0.00     0.101 C 
HETATM   19  C   UNK N   1      34.035  10.489  12.860  0.00  0.00     0.017 C 
HETATM   20  C   UNK N   1      34.334   9.240  18.607  0.00  0.00     0.046 C 
HETATM   21  C   UNK N   1      34.689   8.762  19.976  0.00  0.00     0.141 C 
HETATM   22  C   UNK N   1      35.349   7.375  19.991  0.00  0.00     0.157 C 
HETATM   23  C   UNK N   1      37.296   6.064  19.007  0.00  0.00     0.020 C 
HETATM   24  C   UNK N   1      37.367  10.336  14.967  0.00  0.00     0.016 C 
HETATM   25  C   UNK N   1      37.946  12.447  11.425  0.00  0.00     0.016 C 
ENDROOT
BRANCH  21  26
HETATM   26  N   UNK N   1      34.041   9.321  21.172  0.00  0.00    -0.268 N 
HETATM   27  C   UNK N   1      34.383   9.348  22.498  0.00  0.00     0.134 A 
HETATM   28  N   UNK N   1      33.368   9.860  23.223  0.00  0.00    -0.336 N 
HETATM   29  C   UNK N   1      32.411  10.141  22.319  0.00  0.00     0.199 A 
ATOM     30  HN  UNK N   1      33.332  10.001  24.232  1.00  0.00     0.168 HD
HETATM   31  N   UNK N   1      32.814   9.805  21.082  0.00  0.00    -0.292 N 
ATOM     32  HN  UNK N   1      32.270   9.905  20.225  1.00  0.00     0.188 HD
BRANCH  27  33
HETATM   33  C   UNK N   1      35.634   8.888  23.192  0.00  0.00     0.012 A 
HETATM   34  C   UNK N   1      35.571   7.721  23.968  0.00  0.00     0.032 A 
HETATM   35  C   UNK N   1      36.712   7.251  24.626  0.00  0.00     0.088 A 
HETATM   36  N   UNK N   1      37.886   7.928  24.527  0.00  0.00    -0.375 N 
HETATM   37  C   UNK N   1      37.976   9.072  23.803  0.00  0.00     0.088 A 
ATOM     38  HN  UNK N   1      38.713   7.569  25.005  1.00  0.00     0.164 HD
HETATM   39  C   UNK N   1      36.853   9.565  23.136  0.00  0.00     0.032 A 
ENDBRANCH  27  33
ENDBRANCH  21  26
BRANCH  22  40
HETATM   40  O   UNK N   1      34.410   6.434  19.527  0.00  0.00    -0.380 OA
BRANCH  40  41
HETATM   41  C   UNK N   1      33.914   5.778  20.659  0.00  0.00     0.199 C 
BRANCH  41  42
HETATM   42  C   UNK N   1      32.550   5.102  20.421  0.00  0.00     0.048 C 
HETATM   43  C   UNK N   1      32.668   3.642  20.835  0.00  0.00     0.041 C 
BRANCH  42  44
HETATM   44  C   UNK N   1      31.457   5.841  21.249  0.00  0.00    -0.025 C 
HETATM   45  C   UNK N   1      30.829   6.973  20.449  0.00  0.00     0.017 C 
HETATM   46  C   UNK N   1      32.041   6.428  22.524  0.00  0.00     0.017 C 
HETATM   47  C   UNK N   1      30.330   4.901  21.655  0.00  0.00     0.017 C 
ENDBRANCH  42  44
BRANCH  42  48
HETATM   48  N   UNK N   1      32.203   5.117  19.006  0.00  0.00    -0.420 N 
HETATM   49  H   UNK N   1      32.111   4.239  18.494  0.00  0.00     0.150 HD
HETATM   50  H   UNK N   1      32.050   6.005  18.527  0.00  0.00     0.150 HD
ENDBRANCH  42  48
ENDBRANCH  41  42
ENDBRANCH  40  41
ENDBRANCH  22  40
BRANCH  18  51
HETATM   51  C   UNK N   1      35.407  13.420  12.900  0.00  0.00     0.145 C 
HETATM   52  O   UNK N   1      35.880  14.321  13.571  0.00  0.00    -0.650 OA
BRANCH  51  53
HETATM   53  O   UNK N   1      34.235  13.615  12.261  0.00  0.00    -0.776 OA
HETATM   54  H   UNK N   1      33.380  13.997  12.301  0.00  0.00     0.167 HD
ENDBRANCH  51  53
ENDBRANCH  18  51
BRANCH   1  55
HETATM   55  C   UNK N   1      35.947  11.154  10.472  0.00  0.00    -0.006 C 
HETATM   56  C   UNK N   1      36.435   9.934   9.686  0.00  0.00     0.011 C 
BRANCH  55  57
HETATM   57  C   UNK N   1      35.705  12.269   9.427  0.00  0.00    -0.018 C 
HETATM   58  C   UNK N   1      36.515  12.186   8.161  0.00  0.00     0.010 C 
HETATM   59  C   UNK N   1      34.239  12.521   9.104  0.00  0.00     0.010 C 
ENDBRANCH  55  57
ENDBRANCH   1  55
TORSDOF 11
ENDMDL
MODEL 6
REMARK VINA RESULT:      -8.1      6.090     11.840
REMARK  11 active torsions:
REMARK  status: ('A' for Active; 'I' for Inactive)
REMARK    1  A    between atoms: C_2  and  C_3 
REMARK    2  A    between atoms: C_6  and  C_2 
REMARK    3  A    between atoms: C_23  and  C_24 
REMARK    4  A    between atoms: C_24  and  O_26 
REMARK    5  A    between atoms: C_29  and  N_40 
REMARK    6  A    between atoms: C_30  and  O_31 
REMARK    7  A    between atoms: O_31  and  C_32 
REMARK    8  A    between atoms: C_32  and  C_33 
REMARK    9  A    between atoms: C_33  and  C_35 
REMARK   10  A    between atoms: C_33  and  N_39 
REMARK   11  A    between atoms: C_41  and  C_47 
ROOT
HETATM    1  C   UNK N   1      31.476  12.771   3.733  0.00  0.00    -0.026 C 
HETATM    2  C   UNK N   1      30.508  11.847   2.956  0.00  0.00     0.011 C 
HETATM    3  C   UNK N   1      29.266  12.562   2.403  0.00  0.00     0.011 C 
HETATM    4  C   UNK N   1      28.484  13.119   3.590  0.00  0.00    -0.028 C 
HETATM    5  C   UNK N   1      27.134  13.771   3.241  0.00  0.00     0.024 C 
HETATM    6  C   UNK N   1      26.279  13.000   2.213  0.00  0.00     0.010 C 
HETATM    7  C   UNK N   1      24.781  13.203   2.434  0.00  0.00     0.007 C 
HETATM    8  C   UNK N   1      24.551  12.578   3.793  0.00  0.00     0.013 C 
HETATM    9  C   UNK N   1      23.157  12.078   4.192  0.00  0.00     0.010 C 
HETATM   10  C   UNK N   1      23.423  11.177   5.422  0.00  0.00     0.179 C 
HETATM   11  O   UNK N   1      24.008  11.884   6.504  0.00  0.00    -0.389 OA
HETATM   12  C   UNK N   1      25.259  12.419   6.110  0.00  0.00     0.182 C 
HETATM   13  C   UNK N   1      25.129  13.420   4.932  0.00  0.00     0.011 C 
HETATM   14  C   UNK N   1      26.466  14.007   4.592  0.00  0.00    -0.068 C 
HETATM   15  C   UNK N   1      27.157  14.626   5.564  0.00  0.00    -0.022 C 
HETATM   16  C   UNK N   1      28.596  15.006   5.389  0.00  0.00     0.038 C 
HETATM   17  C   UNK N   1      29.346  14.249   4.255  0.00  0.00    -0.019 C 
HETATM   18  C   UNK N   1      30.643  13.590   4.788  0.00  0.00     0.101 C 
HETATM   19  C   UNK N   1      29.701  15.334   3.232  0.00  0.00     0.017 C 
HETATM   20  C   UNK N   1      24.228  14.595   5.274  0.00  0.00     0.046 C 
HETATM   21  C   UNK N   1      22.862  14.113   5.636  0.00  0.00     0.141 C 
HETATM   22  C   UNK N   1      22.200  13.263   4.540  0.00  0.00     0.157 C 
HETATM   23  C   UNK N   1      22.569  11.197   3.100  0.00  0.00     0.020 C 
HETATM   24  C   UNK N   1      28.223  11.920   4.545  0.00  0.00     0.016 C 
HETATM   25  C   UNK N   1      32.385  11.811   4.488  0.00  0.00     0.016 C 
ENDROOT
BRANCH  21  26
HETATM   26  N   UNK N   1      22.069  14.778   6.681  0.00  0.00    -0.268 N 
HETATM   27  C   UNK N   1      21.909  14.553   8.023  0.00  0.00     0.134 A 
HETATM   28  N   UNK N   1      20.946  15.360   8.511  0.00  0.00    -0.336 N 
HETATM   29  C   UNK N   1      20.528  16.074   7.449  0.00  0.00     0.199 A 
ATOM     30  HN  UNK N   1      20.608  15.416   9.472  1.00  0.00     0.168 HD
HETATM   31  N   UNK N   1      21.199  15.714   6.343  0.00  0.00    -0.292 N 
ATOM     32  HN  UNK N   1      21.062  16.095   5.406  1.00  0.00     0.188 HD
BRANCH  27  33
HETATM   33  C   UNK N   1      22.595  13.577   8.936  0.00  0.00     0.012 A 
HETATM   34  C   UNK N   1      23.970  13.735   9.165  0.00  0.00     0.032 A 
HETATM   35  C   UNK N   1      24.649  12.856  10.013  0.00  0.00     0.088 A 
HETATM   36  N   UNK N   1      23.984  11.834  10.613  0.00  0.00    -0.375 N 
HETATM   37  C   UNK N   1      22.658  11.638  10.395  0.00  0.00     0.088 A 
ATOM     38  HN  UNK N   1      24.488  11.204  11.237  1.00  0.00     0.164 HD
HETATM   39  C   UNK N   1      21.955  12.501   9.553  0.00  0.00     0.032 A 
ENDBRANCH  27  33
ENDBRANCH  21  26
BRANCH  22  40
HETATM   40  O   UNK N   1      21.993  14.079   3.413  0.00  0.00    -0.380 OA
BRANCH  40  41
HETATM   41  C   UNK N   1      20.609  14.128   3.207  0.00  0.00     0.199 C 
BRANCH  41  42
HETATM   42  C   UNK N   1      20.221  14.303   1.726  0.00  0.00     0.048 C 
HETATM   43  C   UNK N   1      21.504  14.387   0.910  0.00  0.00     0.041 C 
BRANCH  42  44
HETATM   44  C   UNK N   1      19.340  13.099   1.278  0.00  0.00    -0.025 C 
HETATM   45  C   UNK N   1      20.166  12.058   0.535  0.00  0.00     0.017 C 
HETATM   46  C   UNK N   1      18.217  13.556   0.361  0.00  0.00     0.017 C 
HETATM   47  C   UNK N   1      18.701  12.398   2.468  0.00  0.00     0.017 C 
ENDBRANCH  42  44
BRANCH  42  48
HETATM   48  N   UNK N   1      19.504  15.554   1.521  0.00  0.00    -0.420 N 
HETATM   49  H   UNK N   1      19.711  16.364   2.107  0.00  0.00     0.150 HD
HETATM   50  H   UNK N   1      18.794  15.622   0.791  0.00  0.00     0.150 HD
ENDBRANCH  42  48
ENDBRANCH  41  42
ENDBRANCH  40  41
ENDBRANCH  22  40
BRANCH  18  51
HETATM   51  C   UNK N   1      31.357  14.392   5.849  0.00  0.00     0.145 C 
HETATM   52  O   UNK N   1      31.595  13.878   6.929  0.00  0.00    -0.650 OA
BRANCH  51  53
HETATM   53  O   UNK N   1      31.552  15.717   5.688  0.00  0.00    -0.776 OA
HETATM   54  H   UNK N   1      31.216  16.515   5.331  0.00  0.00     0.167 HD
ENDBRANCH  51  53
ENDBRANCH  18  51
BRANCH   1  55
HETATM   55  C   UNK N   1      32.286  13.648   2.702  0.00  0.00    -0.006 C 
HETATM   56  C   UNK N   1      32.786  12.860   1.488  0.00  0.00     0.011 C 
BRANCH  55  57
HETATM   57  C   UNK N   1      33.493  14.475   3.203  0.00  0.00    -0.018 C 
HETATM   58  C   UNK N   1      34.858  13.946   2.854  0.00  0.00     0.010 C 
HETATM   59  C   UNK N   1      33.407  15.964   2.896  0.00  0.00     0.010 C 
ENDBRANCH  55  57
ENDBRANCH   1  55
TORSDOF 11
ENDMDL
MODEL 7
REMARK VINA RESULT:      -8.0      4.062     10.200
REMARK  11 active torsions:
REMARK  status: ('A' for Active; 'I' for Inactive)
REMARK    1  A    between atoms: C_2  and  C_3 
REMARK    2  A    between atoms: C_6  and  C_2 
REMARK    3  A    between atoms: C_23  and  C_24 
REMARK    4  A    between atoms: C_24  and  O_26 
REMARK    5  A    between atoms: C_29  and  N_40 
REMARK    6  A    between atoms: C_30  and  O_31 
REMARK    7  A    between atoms: O_31  and  C_32 
REMARK    8  A    between atoms: C_32  and  C_33 
REMARK    9  A    between atoms: C_33  and  C_35 
REMARK   10  A    between atoms: C_33  and  N_39 
REMARK   11  A    between atoms: C_41  and  C_47 
ROOT
HETATM    1  C   UNK N   1      36.158  10.481  11.992  0.00  0.00    -0.026 C 
HETATM    2  C   UNK N   1      35.825   9.502  10.840  0.00  0.00     0.011 C 
HETATM    3  C   UNK N   1      36.379   9.928   9.473  0.00  0.00     0.011 C 
HETATM    4  C   UNK N   1      35.740  11.266   9.110  0.00  0.00    -0.028 C 
HETATM    5  C   UNK N   1      36.084  11.800   7.708  0.00  0.00     0.024 C 
HETATM    6  C   UNK N   1      36.056  10.748   6.579  0.00  0.00     0.010 C 
HETATM    7  C   UNK N   1      35.665  11.350   5.231  0.00  0.00     0.007 C 
HETATM    8  C   UNK N   1      34.245  11.816   5.468  0.00  0.00     0.013 C 
HETATM    9  C   UNK N   1      33.280  11.996   4.289  0.00  0.00     0.010 C 
HETATM   10  C   UNK N   1      31.886  12.073   4.958  0.00  0.00     0.179 C 
HETATM   11  O   UNK N   1      31.765  13.170   5.850  0.00  0.00    -0.389 OA
HETATM   12  C   UNK N   1      32.714  13.049   6.895  0.00  0.00     0.182 C 
HETATM   13  C   UNK N   1      34.174  13.051   6.369  0.00  0.00     0.011 C 
HETATM   14  C   UNK N   1      35.143  12.984   7.512  0.00  0.00    -0.068 C 
HETATM   15  C   UNK N   1      35.065  13.924   8.470  0.00  0.00    -0.022 C 
HETATM   16  C   UNK N   1      35.805  13.791   9.766  0.00  0.00     0.038 C 
HETATM   17  C   UNK N   1      36.264  12.347  10.120  0.00  0.00    -0.019 C 
HETATM   18  C   UNK N   1      35.775  11.937  11.532  0.00  0.00     0.101 C 
HETATM   19  C   UNK N   1      37.795  12.410  10.102  0.00  0.00     0.017 C 
HETATM   20  C   UNK N   1      34.508  14.323   5.607  0.00  0.00     0.046 C 
HETATM   21  C   UNK N   1      33.588  14.485   4.443  0.00  0.00     0.141 C 
HETATM   22  C   UNK N   1      33.602  13.291   3.476  0.00  0.00     0.157 C 
HETATM   23  C   UNK N   1      33.289  10.766   3.395  0.00  0.00     0.020 C 
HETATM   24  C   UNK N   1      34.202  11.056   9.197  0.00  0.00     0.016 C 
HETATM   25  C   UNK N   1      35.214  10.075  13.114  0.00  0.00     0.016 C 
ENDROOT
BRANCH  21  26
HETATM   26  N   UNK N   1      33.117  15.813   4.021  0.00  0.00    -0.268 N 
HETATM   27  C   UNK N   1      32.660  16.908   4.705  0.00  0.00     0.134 A 
HETATM   28  N   UNK N   1      32.207  17.835   3.838  0.00  0.00    -0.336 N 
HETATM   29  C   UNK N   1      32.396  17.287   2.623  0.00  0.00     0.199 A 
ATOM     30  HN  UNK N   1      31.809  18.749   4.054  1.00  0.00     0.168 HD
HETATM   31  N   UNK N   1      32.935  16.062   2.734  0.00  0.00    -0.292 N 
ATOM     32  HN  UNK N   1      33.164  15.433   1.964  1.00  0.00     0.188 HD
BRANCH  27  33
HETATM   33  C   UNK N   1      32.580  17.170   6.183  0.00  0.00     0.012 A 
HETATM   34  C   UNK N   1      31.368  16.905   6.839  0.00  0.00     0.032 A 
HETATM   35  C   UNK N   1      31.248  17.127   8.214  0.00  0.00     0.088 A 
HETATM   36  N   UNK N   1      32.302  17.611   8.922  0.00  0.00    -0.375 N 
HETATM   37  C   UNK N   1      33.482  17.899   8.315  0.00  0.00     0.088 A 
ATOM     38  HN  UNK N   1      32.205  17.760   9.927  1.00  0.00     0.164 HD
HETATM   39  C   UNK N   1      33.629  17.688   6.943  0.00  0.00     0.032 A 
ENDBRANCH  27  33
ENDBRANCH  21  26
BRANCH  22  40
HETATM   40  O   UNK N   1      34.882  13.206   2.898  0.00  0.00    -0.380 OA
BRANCH  40  41
HETATM   41  C   UNK N   1      34.737  13.579   1.557  0.00  0.00     0.199 C 
BRANCH  41  42
HETATM   42  C   UNK N   1      35.612  12.749   0.597  0.00  0.00     0.048 C 
HETATM   43  C   UNK N   1      36.301  11.662   1.410  0.00  0.00     0.041 C 
BRANCH  42  44
HETATM   44  C   UNK N   1      34.715  12.139  -0.521  0.00  0.00    -0.025 C 
HETATM   45  C   UNK N   1      33.249  12.135  -0.111  0.00  0.00     0.017 C 
HETATM   46  C   UNK N   1      35.124  10.708  -0.831  0.00  0.00     0.017 C 
HETATM   47  C   UNK N   1      34.815  12.933  -1.816  0.00  0.00     0.017 C 
ENDBRANCH  42  44
BRANCH  42  48
HETATM   48  N   UNK N   1      36.660  13.570   0.008  0.00  0.00    -0.420 N 
HETATM   49  H   UNK N   1      36.415  14.397  -0.539  0.00  0.00     0.150 HD
HETATM   50  H   UNK N   1      37.641  13.320   0.141  0.00  0.00     0.150 HD
ENDBRANCH  42  48
ENDBRANCH  41  42
ENDBRANCH  40  41
ENDBRANCH  22  40
BRANCH  18  51
HETATM   51  C   UNK N   1      35.765  13.063  12.537  0.00  0.00     0.145 C 
HETATM   52  O   UNK N   1      34.699  13.480  12.959  0.00  0.00    -0.650 OA
BRANCH  51  53
HETATM   53  O   UNK N   1      36.898  13.740  12.817  0.00  0.00    -0.776 OA
HETATM   54  H   UNK N   1      37.270  14.545  13.119  0.00  0.00     0.167 HD
ENDBRANCH  51  53
ENDBRANCH  18  51
BRANCH   1  55
HETATM   55  C   UNK N   1      37.668  10.292  12.405  0.00  0.00    -0.006 C 
HETATM   56  C   UNK N   1      38.373   9.164  11.645  0.00  0.00     0.011 C 
BRANCH  55  57
HETATM   57  C   UNK N   1      38.020  10.089  13.898  0.00  0.00    -0.018 C 
HETATM   58  C   UNK N   1      39.023   9.012  14.209  0.00  0.00     0.010 C 
HETATM   59  C   UNK N   1      38.371  11.371  14.641  0.00  0.00     0.010 C 
ENDBRANCH  55  57
ENDBRANCH   1  55
TORSDOF 11
ENDMDL
MODEL 8
REMARK VINA RESULT:      -7.8      8.029     13.443
REMARK  11 active torsions:
REMARK  status: ('A' for Active; 'I' for Inactive)
REMARK    1  A    between atoms: C_2  and  C_3 
REMARK    2  A    between atoms: C_6  and  C_2 
REMARK    3  A    between atoms: C_23  and  C_24 
REMARK    4  A    between atoms: C_24  and  O_26 
REMARK    5  A    between atoms: C_29  and  N_40 
REMARK    6  A    between atoms: C_30  and  O_31 
REMARK    7  A    between atoms: O_31  and  C_32 
REMARK    8  A    between atoms: C_32  and  C_33 
REMARK    9  A    between atoms: C_33  and  C_35 
REMARK   10  A    between atoms: C_33  and  N_39 
REMARK   11  A    between atoms: C_41  and  C_47 
ROOT
HETATM    1  C   UNK N   1      24.804   6.865   4.914  0.00  0.00    -0.026 C 
HETATM    2  C   UNK N   1      25.933   7.669   4.225  0.00  0.00     0.011 C 
HETATM    3  C   UNK N   1      26.151   9.072   4.811  0.00  0.00     0.011 C 
HETATM    4  C   UNK N   1      24.861   9.865   4.609  0.00  0.00    -0.028 C 
HETATM    5  C   UNK N   1      24.926  11.344   5.027  0.00  0.00     0.024 C 
HETATM    6  C   UNK N   1      26.210  12.090   4.606  0.00  0.00     0.010 C 
HETATM    7  C   UNK N   1      25.964  13.576   4.353  0.00  0.00     0.007 C 
HETATM    8  C   UNK N   1      25.022  13.566   3.169  0.00  0.00     0.013 C 
HETATM    9  C   UNK N   1      24.920  14.788   2.247  0.00  0.00     0.010 C 
HETATM   10  C   UNK N   1      24.201  14.246   0.989  0.00  0.00     0.179 C 
HETATM   11  O   UNK N   1      22.903  13.746   1.269  0.00  0.00    -0.389 OA
HETATM   12  C   UNK N   1      22.989  12.670   2.187  0.00  0.00     0.182 C 
HETATM   13  C   UNK N   1      23.614  13.098   3.542  0.00  0.00     0.011 C 
HETATM   14  C   UNK N   1      23.627  11.945   4.500  0.00  0.00    -0.068 C 
HETATM   15  C   UNK N   1      22.464  11.331   4.776  0.00  0.00    -0.022 C 
HETATM   16  C   UNK N   1      22.416  10.023   5.506  0.00  0.00     0.038 C 
HETATM   17  C   UNK N   1      23.746   9.216   5.503  0.00  0.00    -0.019 C 
HETATM   18  C   UNK N   1      23.520   7.772   4.987  0.00  0.00     0.101 C 
HETATM   19  C   UNK N   1      24.181   9.177   6.972  0.00  0.00     0.017 C 
HETATM   20  C   UNK N   1      22.816  14.200   4.219  0.00  0.00     0.046 C 
HETATM   21  C   UNK N   1      22.740  15.401   3.336  0.00  0.00     0.141 C 
HETATM   22  C   UNK N   1      24.114  15.947   2.918  0.00  0.00     0.157 C 
HETATM   23  C   UNK N   1      26.302  15.254   1.818  0.00  0.00     0.020 C 
HETATM   24  C   UNK N   1      24.534   9.792   3.091  0.00  0.00     0.016 C 
HETATM   25  C   UNK N   1      24.521   5.719   3.952  0.00  0.00     0.016 C 
ENDROOT
BRANCH  21  26
HETATM   26  N   UNK N   1      21.530  16.237   3.287  0.00  0.00    -0.268 N 
HETATM   27  C   UNK N   1      20.273  16.041   2.781  0.00  0.00     0.134 A 
HETATM   28  N   UNK N   1      19.564  17.184   2.858  0.00  0.00    -0.336 N 
HETATM   29  C   UNK N   1      20.407  18.072   3.418  0.00  0.00     0.199 A 
ATOM     30  HN  UNK N   1      18.601  17.342   2.559  1.00  0.00     0.168 HD
HETATM   31  N   UNK N   1      21.598  17.503   3.666  0.00  0.00    -0.292 N 
ATOM     32  HN  UNK N   1      22.411  17.964   4.074  1.00  0.00     0.188 HD
BRANCH  27  33
HETATM   33  C   UNK N   1      19.648  14.818   2.172  0.00  0.00     0.012 A 
HETATM   34  C   UNK N   1      19.353  13.734   3.013  0.00  0.00     0.032 A 
HETATM   35  C   UNK N   1      18.764  12.578   2.492  0.00  0.00     0.088 A 
HETATM   36  N   UNK N   1      18.484  12.492   1.165  0.00  0.00    -0.375 N 
HETATM   37  C   UNK N   1      18.777  13.513   0.320  0.00  0.00     0.088 A 
ATOM     38  HN  UNK N   1      18.046  11.647   0.798  1.00  0.00     0.164 HD
HETATM   39  C   UNK N   1      19.366  14.679   0.812  0.00  0.00     0.032 A 
ENDBRANCH  27  33
ENDBRANCH  21  26
BRANCH  22  40
HETATM   40  O   UNK N   1      24.776  16.406   4.072  0.00  0.00    -0.380 OA
BRANCH  40  41
HETATM   41  C   UNK N   1      25.196  17.712   3.794  0.00  0.00     0.199 C 
BRANCH  41  42
HETATM   42  C   UNK N   1      26.447  18.129   4.591  0.00  0.00     0.048 C 
HETATM   43  C   UNK N   1      27.646  17.396   4.004  0.00  0.00     0.041 C 
BRANCH  42  44
HETATM   44  C   UNK N   1      26.626  19.674   4.498  0.00  0.00    -0.025 C 
HETATM   45  C   UNK N   1      25.971  20.230   3.242  0.00  0.00     0.017 C 
HETATM   46  C   UNK N   1      28.098  20.053   4.473  0.00  0.00     0.017 C 
HETATM   47  C   UNK N   1      25.992  20.384   5.686  0.00  0.00     0.017 C 
ENDBRANCH  42  44
BRANCH  42  48
HETATM   48  N   UNK N   1      26.338  17.719   5.984  0.00  0.00    -0.420 N 
HETATM   49  H   UNK N   1      25.423  17.499   6.381  0.00  0.00     0.150 HD
HETATM   50  H   UNK N   1      27.175  17.651   6.564  0.00  0.00     0.150 HD
ENDBRANCH  42  48
ENDBRANCH  41  42
ENDBRANCH  40  41
ENDBRANCH  22  40
BRANCH  18  51
HETATM   51  C   UNK N   1      22.196   7.169   5.389  0.00  0.00     0.145 C 
HETATM   52  O   UNK N   1      21.337   6.993   4.542  0.00  0.00    -0.650 OA
BRANCH  51  53
HETATM   53  O   UNK N   1      21.885   7.011   6.692  0.00  0.00    -0.776 OA
HETATM   54  H   UNK N   1      22.211   6.866   7.558  0.00  0.00     0.167 HD
ENDBRANCH  51  53
ENDBRANCH  18  51
BRANCH   1  55
HETATM   55  C   UNK N   1      25.325   6.339   6.307  0.00  0.00    -0.006 C 
HETATM   56  C   UNK N   1      26.742   5.760   6.251  0.00  0.00     0.011 C 
BRANCH  55  57
HETATM   57  C   UNK N   1      24.472   5.314   7.090  0.00  0.00    -0.018 C 
HETATM   58  C   UNK N   1      24.893   3.872   6.983  0.00  0.00     0.010 C 
HETATM   59  C   UNK N   1      24.221   5.686   8.545  0.00  0.00     0.010 C 
ENDBRANCH  55  57
ENDBRANCH   1  55
TORSDOF 11
ENDMDL
MODEL 9
REMARK VINA RESULT:      -7.8      3.468      6.013
REMARK  11 active torsions:
REMARK  status: ('A' for Active; 'I' for Inactive)
REMARK    1  A    between atoms: C_2  and  C_3 
REMARK    2  A    between atoms: C_6  and  C_2 
REMARK    3  A    between atoms: C_23  and  C_24 
REMARK    4  A    between atoms: C_24  and  O_26 
REMARK    5  A    between atoms: C_29  and  N_40 
REMARK    6  A    between atoms: C_30  and  O_31 
REMARK    7  A    between atoms: O_31  and  C_32 
REMARK    8  A    between atoms: C_32  and  C_33 
REMARK    9  A    between atoms: C_33  and  C_35 
REMARK   10  A    between atoms: C_33  and  N_39 
REMARK   11  A    between atoms: C_41  and  C_47 
ROOT
HETATM    1  C   UNK N   1      23.804  13.903   2.593  0.00  0.00    -0.026 C 
HETATM    2  C   UNK N   1      24.988  13.406   1.729  0.00  0.00     0.011 C 
HETATM    3  C   UNK N   1      26.129  12.767   2.535  0.00  0.00     0.011 C 
HETATM    4  C   UNK N   1      26.688  13.834   3.473  0.00  0.00    -0.028 C 
HETATM    5  C   UNK N   1      27.927  13.414   4.284  0.00  0.00     0.024 C 
HETATM    6  C   UNK N   1      28.996  12.632   3.491  0.00  0.00     0.010 C 
HETATM    7  C   UNK N   1      30.408  12.875   4.022  0.00  0.00     0.007 C 
HETATM    8  C   UNK N   1      30.619  14.350   3.759  0.00  0.00     0.013 C 
HETATM    9  C   UNK N   1      32.037  14.921   3.634  0.00  0.00     0.010 C 
HETATM   10  C   UNK N   1      31.824  16.309   2.984  0.00  0.00     0.179 C 
HETATM   11  O   UNK N   1      31.026  17.172   3.779  0.00  0.00    -0.389 OA
HETATM   12  C   UNK N   1      29.741  16.605   3.966  0.00  0.00     0.182 C 
HETATM   13  C   UNK N   1      29.799  15.238   4.697  0.00  0.00     0.011 C 
HETATM   14  C   UNK N   1      28.416  14.707   4.927  0.00  0.00    -0.068 C 
HETATM   15  C   UNK N   1      27.540  15.477   5.595  0.00  0.00    -0.022 C 
HETATM   16  C   UNK N   1      26.079  15.149   5.643  0.00  0.00     0.038 C 
HETATM   17  C   UNK N   1      25.582  14.181   4.531  0.00  0.00    -0.019 C 
HETATM   18  C   UNK N   1      24.379  14.785   3.763  0.00  0.00     0.101 C 
HETATM   19  C   UNK N   1      25.135  12.922   5.283  0.00  0.00     0.017 C 
HETATM   20  C   UNK N   1      30.442  15.349   6.070  0.00  0.00     0.046 C 
HETATM   21  C   UNK N   1      31.833  15.877   5.949  0.00  0.00     0.141 C 
HETATM   22  C   UNK N   1      32.733  15.038   5.029  0.00  0.00     0.157 C 
HETATM   23  C   UNK N   1      32.869  14.089   2.671  0.00  0.00     0.020 C 
HETATM   24  C   UNK N   1      27.068  15.049   2.580  0.00  0.00     0.016 C 
HETATM   25  C   UNK N   1      23.015  14.811   1.659  0.00  0.00     0.016 C 
ENDROOT
BRANCH  21  26
HETATM   26  N   UNK N   1      32.396  16.783   6.962  0.00  0.00    -0.268 N 
HETATM   27  C   UNK N   1      31.835  17.608   7.900  0.00  0.00     0.134 A 
HETATM   28  N   UNK N   1      32.793  18.348   8.493  0.00  0.00    -0.336 N 
HETATM   29  C   UNK N   1      33.939  17.959   7.902  0.00  0.00     0.199 A 
ATOM     30  HN  UNK N   1      32.676  19.048   9.225  1.00  0.00     0.168 HD
HETATM   31  N   UNK N   1      33.698  17.022   6.970  0.00  0.00    -0.292 N 
ATOM     32  HN  UNK N   1      34.393  16.575   6.374  1.00  0.00     0.188 HD
BRANCH  27  33
HETATM   33  C   UNK N   1      30.398  17.797   8.296  0.00  0.00     0.012 A 
HETATM   34  C   UNK N   1      29.950  17.191   9.479  0.00  0.00     0.032 A 
HETATM   35  C   UNK N   1      28.623  17.346   9.892  0.00  0.00     0.088 A 
HETATM   36  N   UNK N   1      27.755  18.075   9.143  0.00  0.00    -0.375 N 
HETATM   37  C   UNK N   1      28.150  18.656   7.981  0.00  0.00     0.088 A 
ATOM     38  HN  UNK N   1      26.792  18.188   9.459  1.00  0.00     0.164 HD
HETATM   39  C   UNK N   1      29.468  18.518   7.545  0.00  0.00     0.032 A 
ENDBRANCH  27  33
ENDBRANCH  21  26
BRANCH  22  40
HETATM   40  O   UNK N   1      32.894  13.766   5.609  0.00  0.00    -0.380 OA
BRANCH  40  41
HETATM   41  C   UNK N   1      34.223  13.694   6.043  0.00  0.00     0.199 C 
BRANCH  41  42
HETATM   42  C   UNK N   1      34.762  12.253   6.112  0.00  0.00     0.048 C 
HETATM   43  C   UNK N   1      33.570  11.306   6.160  0.00  0.00     0.041 C 
BRANCH  42  44
HETATM   44  C   UNK N   1      35.656  11.976   4.867  0.00  0.00    -0.025 C 
HETATM   45  C   UNK N   1      34.885  11.226   3.790  0.00  0.00     0.017 C 
HETATM   46  C   UNK N   1      36.875  11.148   5.241  0.00  0.00     0.017 C 
HETATM   47  C   UNK N   1      36.159  13.269   4.239  0.00  0.00     0.017 C 
ENDBRANCH  42  44
BRANCH  42  48
HETATM   48  N   UNK N   1      35.525  12.040   7.334  0.00  0.00    -0.420 N 
HETATM   49  H   UNK N   1      36.110  11.209   7.433  0.00  0.00     0.150 HD
HETATM   50  H   UNK N   1      35.476  12.722   8.092  0.00  0.00     0.150 HD
ENDBRANCH  42  48
ENDBRANCH  41  42
ENDBRANCH  40  41
ENDBRANCH  22  40
BRANCH  18  51
HETATM   51  C   UNK N   1      23.440  15.599   4.620  0.00  0.00     0.145 C 
HETATM   52  O   UNK N   1      22.740  15.035   5.444  0.00  0.00    -0.650 OA
BRANCH  51  53
HETATM   53  O   UNK N   1      23.224  16.902   4.348  0.00  0.00    -0.776 OA
HETATM   54  H   UNK N   1      22.728  17.669   4.557  0.00  0.00     0.167 HD
ENDBRANCH  51  53
ENDBRANCH  18  51
BRANCH   1  55
HETATM   55  C   UNK N   1      22.950  12.661   3.056  0.00  0.00    -0.006 C 
HETATM   56  C   UNK N   1      23.184  11.407   2.207  0.00  0.00     0.011 C 
BRANCH  55  57
HETATM   57  C   UNK N   1      21.416  12.810   3.186  0.00  0.00    -0.018 C 
HETATM   58  C   UNK N   1      20.588  12.203   2.085  0.00  0.00     0.010 C 
HETATM   59  C   UNK N   1      20.859  12.416   4.547  0.00  0.00     0.010 C 
ENDBRANCH  55  57
ENDBRANCH   1  55
TORSDOF 11
ENDMDL
