MODEL 1
REMARK VINA RESULT:      -7.8      0.000      0.000
REMARK  7 active torsions:
REMARK  status: ('A' for Active; 'I' for Inactive)
REMARK    1  A    between atoms: C_2  and  S_8 
REMARK    2  A    between atoms: C_11  and  S_8 
REMARK    3  A    between atoms: C_11  and  C_22 
REMARK    4  A    between atoms: C_14  and  C_17 
REMARK    5  A    between atoms: C_17  and  C_18 
REMARK    6  A    between atoms: C_18  and  C_19 
REMARK    7  A    between atoms: C_19  and  O_21 
ROOT
HETATM    1  C   UNK N   1      27.162  24.529  -6.466  0.00  0.00     0.098 C 
HETATM    2  C   UNK N   1      26.398  24.736  -5.125  0.00  0.00     0.031 C 
HETATM    3  C   UNK N   1      25.101  25.521  -5.312  0.00  0.00     0.007 C 
HETATM    4  C   UNK N   1      25.398  26.954  -5.792  0.00  0.00    -0.014 C 
HETATM    5  C   UNK N   1      26.740  27.066  -6.527  0.00  0.00     0.007 C 
HETATM    6  C   UNK N   1      26.980  25.804  -7.349  0.00  0.00     0.031 C 
ENDROOT
BRANCH   1   7
HETATM    7  S   UNK N   1      28.960  24.294  -5.879  0.00  0.00     0.188 S 
HETATM    8  O   UNK N   1      28.482  22.844  -5.873  0.00  0.00    -0.221 OA
HETATM    9  O   UNK N   1      28.456  24.701  -4.484  0.00  0.00    -0.221 OA
BRANCH   7  10
HETATM   10  C   UNK N   1      30.236  23.337  -4.974  0.00  0.00     0.060 A 
HETATM   11  C   UNK N   1      31.624  23.567  -5.165  0.00  0.00     0.025 A 
HETATM   12  C   UNK N   1      32.574  22.881  -4.418  0.00  0.00     0.025 A 
HETATM   13  C   UNK N   1      32.164  21.949  -3.468  0.00  0.00     0.034 A 
HETATM   14  C   UNK N   1      30.801  21.697  -3.272  0.00  0.00     0.025 A 
HETATM   15 Cl   UNK N   1      33.367  21.105  -2.519  0.00  0.00    -0.084 Cl
HETATM   16  C   UNK N   1      29.840  22.392  -4.019  0.00  0.00     0.025 A 
ENDBRANCH   7  10
ENDBRANCH   1   7
BRANCH   1  17
HETATM   17  C   UNK N   1      26.549  23.315  -7.241  0.00  0.00     0.007 A 
HETATM   18  C   UNK N   1      26.976  22.922  -8.545  0.00  0.00     0.124 A 
HETATM   19  C   UNK N   1      26.416  21.800  -9.162  0.00  0.00     0.046 A 
HETATM   20  F   UNK N   1      27.903  23.612  -9.248  0.00  0.00    -0.205 F 
HETATM   21  C   UNK N   1      25.425  21.058  -8.525  0.00  0.00     0.045 A 
HETATM   22  C   UNK N   1      24.977  21.438  -7.264  0.00  0.00     0.117 A 
HETATM   23  C   UNK N   1      25.535  22.549  -6.630  0.00  0.00     0.054 A 
HETATM   24  F   UNK N   1      24.000  20.728  -6.653  0.00  0.00    -0.206 F 
ENDBRANCH   1  17
BRANCH   4  25
HETATM   25  C   UNK N   1      25.380  27.948  -4.637  0.00  0.00     0.015 C 
BRANCH  25  26
HETATM   26  C   UNK N   1      26.669  28.759  -4.546  0.00  0.00     0.110 C 
BRANCH  26  27
HETATM   27  C   UNK N   1      26.632  29.726  -3.405  0.00  0.00     0.139 C 
HETATM   28  O   UNK N   1      27.201  29.456  -2.362  0.00  0.00    -0.650 OA
BRANCH  27  29
HETATM   29  O   UNK N   1      25.976  30.897  -3.530  0.00  0.00    -0.776 OA
HETATM   30  H   UNK N   1      25.208  31.314  -3.195  0.00  0.00     0.167 HD
ENDBRANCH  27  29
ENDBRANCH  26  27
ENDBRANCH  25  26
ENDBRANCH   4  25
TORSDOF 7
ENDMDL
MODEL 2
REMARK VINA RESULT:      -7.6      2.841      6.065
REMARK  7 active torsions:
REMARK  status: ('A' for Active; 'I' for Inactive)
REMARK    1  A    between atoms: C_2  and  S_8 
REMARK    2  A    between atoms: C_11  and  S_8 
REMARK    3  A    between atoms: C_11  and  C_22 
REMARK    4  A    between atoms: C_14  and  C_17 
REMARK    5  A    between atoms: C_17  and  C_18 
REMARK    6  A    between atoms: C_18  and  C_19 
REMARK    7  A    between atoms: C_19  and  O_21 
ROOT
HETATM    1  C   UNK N   1      27.372  26.406  -5.070  0.00  0.00     0.098 C 
HETATM    2  C   UNK N   1      27.848  26.142  -6.528  0.00  0.00     0.031 C 
HETATM    3  C   UNK N   1      26.693  26.155  -7.527  0.00  0.00     0.007 C 
HETATM    4  C   UNK N   1      25.716  24.999  -7.243  0.00  0.00    -0.014 C 
HETATM    5  C   UNK N   1      25.759  24.533  -5.782  0.00  0.00     0.007 C 
HETATM    6  C   UNK N   1      25.977  25.734  -4.868  0.00  0.00     0.031 C 
ENDROOT
BRANCH   1   7
HETATM    7  S   UNK N   1      28.741  25.576  -4.036  0.00  0.00     0.188 S 
HETATM    8  O   UNK N   1      29.114  25.075  -5.430  0.00  0.00    -0.221 OA
HETATM    9  O   UNK N   1      27.694  24.505  -3.686  0.00  0.00    -0.221 OA
BRANCH   7  10
HETATM   10  C   UNK N   1      29.972  24.239  -3.790  0.00  0.00     0.060 A 
HETATM   11  C   UNK N   1      31.243  24.262  -4.423  0.00  0.00     0.025 A 
HETATM   12  C   UNK N   1      32.188  23.275  -4.168  0.00  0.00     0.025 A 
HETATM   13  C   UNK N   1      31.888  22.244  -3.281  0.00  0.00     0.034 A 
HETATM   14  C   UNK N   1      30.638  22.196  -2.656  0.00  0.00     0.025 A 
HETATM   15 Cl   UNK N   1      33.093  21.019  -2.952  0.00  0.00    -0.084 Cl
HETATM   16  C   UNK N   1      29.683  23.192  -2.905  0.00  0.00     0.025 A 
ENDBRANCH   7  10
ENDBRANCH   1   7
BRANCH   1  17
HETATM   17  C   UNK N   1      27.203  27.945  -4.840  0.00  0.00     0.007 A 
HETATM   18  C   UNK N   1      26.331  28.499  -3.856  0.00  0.00     0.124 A 
HETATM   19  C   UNK N   1      26.261  29.883  -3.674  0.00  0.00     0.046 A 
HETATM   20  F   UNK N   1      25.525  27.736  -3.082  0.00  0.00    -0.205 F 
HETATM   21  C   UNK N   1      27.026  30.743  -4.457  0.00  0.00     0.045 A 
HETATM   22  C   UNK N   1      27.864  30.224  -5.439  0.00  0.00     0.117 A 
HETATM   23  C   UNK N   1      27.954  28.845  -5.625  0.00  0.00     0.054 A 
HETATM   24  F   UNK N   1      28.593  31.062  -6.214  0.00  0.00    -0.206 F 
ENDBRANCH   1  17
BRANCH   4  25
HETATM   25  C   UNK N   1      25.979  23.804  -8.153  0.00  0.00     0.015 C 
BRANCH  25  26
HETATM   26  C   UNK N   1      26.084  22.494  -7.379  0.00  0.00     0.110 C 
BRANCH  26  27
HETATM   27  C   UNK N   1      25.090  21.487  -7.864  0.00  0.00     0.139 C 
HETATM   28  O   UNK N   1      25.445  20.342  -8.084  0.00  0.00    -0.650 OA
BRANCH  27  29
HETATM   29  O   UNK N   1      23.803  21.840  -8.051  0.00  0.00    -0.776 OA
HETATM   30  H   UNK N   1      23.066  21.573  -8.562  0.00  0.00     0.167 HD
ENDBRANCH  27  29
ENDBRANCH  26  27
ENDBRANCH  25  26
ENDBRANCH   4  25
TORSDOF 7
ENDMDL
MODEL 3
REMARK VINA RESULT:      -7.5     21.082     24.931
REMARK  7 active torsions:
REMARK  status: ('A' for Active; 'I' for Inactive)
REMARK    1  A    between atoms: C_2  and  S_8 
REMARK    2  A    between atoms: C_11  and  S_8 
REMARK    3  A    between atoms: C_11  and  C_22 
REMARK    4  A    between atoms: C_14  and  C_17 
REMARK    5  A    between atoms: C_17  and  C_18 
REMARK    6  A    between atoms: C_18  and  C_19 
REMARK    7  A    between atoms: C_19  and  O_21 
ROOT
HETATM    1  C   UNK N   1      35.615  12.103  14.811  0.00  0.00     0.098 C 
HETATM    2  C   UNK N   1      34.317  11.427  14.280  0.00  0.00     0.031 C 
HETATM    3  C   UNK N   1      34.296   9.923  14.545  0.00  0.00     0.007 C 
HETATM    4  C   UNK N   1      35.423   9.219  13.766  0.00  0.00    -0.014 C 
HETATM    5  C   UNK N   1      36.597  10.155  13.449  0.00  0.00     0.007 C 
HETATM    6  C   UNK N   1      36.811  11.119  14.610  0.00  0.00     0.031 C 
ENDROOT
BRANCH   1   7
HETATM    7  S   UNK N   1      35.747  13.653  13.710  0.00  0.00     0.188 S 
HETATM    8  O   UNK N   1      34.590  12.932  13.023  0.00  0.00    -0.221 OA
HETATM    9  O   UNK N   1      36.909  12.934  13.003  0.00  0.00    -0.221 OA
BRANCH   7  10
HETATM   10  C   UNK N   1      35.495  14.502  12.104  0.00  0.00     0.060 A 
HETATM   11  C   UNK N   1      34.974  13.824  10.970  0.00  0.00     0.025 A 
HETATM   12  C   UNK N   1      34.723  14.502   9.783  0.00  0.00     0.025 A 
HETATM   13  C   UNK N   1      34.989  15.866   9.697  0.00  0.00     0.034 A 
HETATM   14  C   UNK N   1      35.514  16.551  10.798  0.00  0.00     0.025 A 
HETATM   15 Cl   UNK N   1      34.651  16.713   8.204  0.00  0.00    -0.084 Cl
HETATM   16  C   UNK N   1      35.762  15.873  12.000  0.00  0.00     0.025 A 
ENDBRANCH   7  10
ENDBRANCH   1   7
BRANCH   1  17
HETATM   17  C   UNK N   1      35.475  12.384  16.344  0.00  0.00     0.007 A 
HETATM   18  C   UNK N   1      35.555  11.363  17.338  0.00  0.00     0.124 A 
HETATM   19  C   UNK N   1      35.466  11.689  18.694  0.00  0.00     0.046 A 
HETATM   20  F   UNK N   1      35.692  10.053  17.029  0.00  0.00    -0.205 F 
HETATM   21  C   UNK N   1      35.282  13.009  19.097  0.00  0.00     0.045 A 
HETATM   22  C   UNK N   1      35.177  14.016  18.143  0.00  0.00     0.117 A 
HETATM   23  C   UNK N   1      35.276  13.708  16.786  0.00  0.00     0.054 A 
HETATM   24  F   UNK N   1      34.978  15.297  18.535  0.00  0.00    -0.206 F 
ENDBRANCH   1  17
BRANCH   4  25
HETATM   25  C   UNK N   1      34.911   8.606  12.468  0.00  0.00     0.015 C 
BRANCH  25  26
HETATM   26  C   UNK N   1      35.449   9.323  11.233  0.00  0.00     0.110 C 
BRANCH  26  27
HETATM   27  C   UNK N   1      34.370  10.070  10.516  0.00  0.00     0.139 C 
HETATM   28  O   UNK N   1      34.405  10.171   9.302  0.00  0.00    -0.650 OA
BRANCH  27  29
HETATM   29  O   UNK N   1      33.357  10.628  11.208  0.00  0.00    -0.776 OA
HETATM   30  H   UNK N   1      32.432  10.750  11.129  0.00  0.00     0.167 HD
ENDBRANCH  27  29
ENDBRANCH  26  27
ENDBRANCH  25  26
ENDBRANCH   4  25
TORSDOF 7
ENDMDL
MODEL 4
REMARK VINA RESULT:      -7.5     18.045     21.515
REMARK  7 active torsions:
REMARK  status: ('A' for Active; 'I' for Inactive)
REMARK    1  A    between atoms: C_2  and  S_8 
REMARK    2  A    between atoms: C_11  and  S_8 
REMARK    3  A    between atoms: C_11  and  C_22 
REMARK    4  A    between atoms: C_14  and  C_17 
REMARK    5  A    between atoms: C_17  and  C_18 
REMARK    6  A    between atoms: C_18  and  C_19 
REMARK    7  A    between atoms: C_19  and  O_21 
ROOT
HETATM    1  C   UNK N   1      35.724  13.305  11.232  0.00  0.00     0.098 C 
HETATM    2  C   UNK N   1      35.702  14.853  11.059  0.00  0.00     0.031 C 
HETATM    3  C   UNK N   1      34.286  15.397  10.885  0.00  0.00     0.007 C 
HETATM    4  C   UNK N   1      33.660  14.871   9.579  0.00  0.00    -0.014 C 
HETATM    5  C   UNK N   1      34.276  13.543   9.120  0.00  0.00     0.007 C 
HETATM    6  C   UNK N   1      34.607  12.685  10.336  0.00  0.00     0.031 C 
ENDROOT
BRANCH   1   7
HETATM    7  S   UNK N   1      37.477  12.853  10.638  0.00  0.00     0.188 S 
HETATM    8  O   UNK N   1      37.145  13.981   9.665  0.00  0.00    -0.221 OA
HETATM    9  O   UNK N   1      36.814  11.695   9.872  0.00  0.00    -0.221 OA
BRANCH   7  10
HETATM   10  C   UNK N   1      38.755  12.791   9.325  0.00  0.00     0.060 A 
HETATM   11  C   UNK N   1      38.839  13.781   8.310  0.00  0.00     0.025 A 
HETATM   12  C   UNK N   1      39.858  13.755   7.366  0.00  0.00     0.025 A 
HETATM   13  C   UNK N   1      40.812  12.742   7.407  0.00  0.00     0.034 A 
HETATM   14  C   UNK N   1      40.742  11.749   8.390  0.00  0.00     0.025 A 
HETATM   15 Cl   UNK N   1      42.103  12.730   6.225  0.00  0.00    -0.084 Cl
HETATM   16  C   UNK N   1      39.719  11.775   9.349  0.00  0.00     0.025 A 
ENDBRANCH   7  10
ENDBRANCH   1   7
BRANCH   1  17
HETATM   17  C   UNK N   1      35.408  12.936  12.720  0.00  0.00     0.007 A 
HETATM   18  C   UNK N   1      35.933  13.656  13.835  0.00  0.00     0.124 A 
HETATM   19  C   UNK N   1      35.574  13.299  15.138  0.00  0.00     0.046 A 
HETATM   20  F   UNK N   1      36.806  14.680  13.696  0.00  0.00    -0.205 F 
HETATM   21  C   UNK N   1      34.714  12.230  15.371  0.00  0.00     0.045 A 
HETATM   22  C   UNK N   1      34.210  11.500  14.300  0.00  0.00     0.117 A 
HETATM   23  C   UNK N   1      34.549  11.851  12.993  0.00  0.00     0.054 A 
HETATM   24  F   UNK N   1      33.388  10.448  14.528  0.00  0.00    -0.206 F 
ENDBRANCH   1  17
BRANCH   4  25
HETATM   25  C   UNK N   1      33.774  15.889   8.451  0.00  0.00     0.015 C 
BRANCH  25  26
HETATM   26  C   UNK N   1      33.788  17.327   8.962  0.00  0.00     0.110 C 
BRANCH  26  27
HETATM   27  C   UNK N   1      34.551  18.230   8.046  0.00  0.00     0.139 C 
HETATM   28  O   UNK N   1      34.495  18.059   6.840  0.00  0.00    -0.650 OA
BRANCH  27  29
HETATM   29  O   UNK N   1      35.295  19.234   8.549  0.00  0.00    -0.776 OA
HETATM   30  H   UNK N   1      35.462  19.643   9.375  0.00  0.00     0.167 HD
ENDBRANCH  27  29
ENDBRANCH  26  27
ENDBRANCH  25  26
ENDBRANCH   4  25
TORSDOF 7
ENDMDL
MODEL 5
REMARK VINA RESULT:      -7.3     13.927     15.834
REMARK  7 active torsions:
REMARK  status: ('A' for Active; 'I' for Inactive)
REMARK    1  A    between atoms: C_2  and  S_8 
REMARK    2  A    between atoms: C_11  and  S_8 
REMARK    3  A    between atoms: C_11  and  C_22 
REMARK    4  A    between atoms: C_14  and  C_17 
REMARK    5  A    between atoms: C_17  and  C_18 
REMARK    6  A    between atoms: C_18  and  C_19 
REMARK    7  A    between atoms: C_19  and  O_21 
ROOT
HETATM    1  C   UNK N   1      21.815  16.840   4.384  0.00  0.00     0.098 C 
HETATM    2  C   UNK N   1      22.248  15.630   3.504  0.00  0.00     0.031 C 
HETATM    3  C   UNK N   1      21.528  15.606   2.157  0.00  0.00     0.007 C 
HETATM    4  C   UNK N   1      20.015  15.395   2.354  0.00  0.00    -0.014 C 
HETATM    5  C   UNK N   1      19.527  15.861   3.732  0.00  0.00     0.007 C 
HETATM    6  C   UNK N   1      20.294  17.110   4.151  0.00  0.00     0.031 C 
ENDROOT
BRANCH   1   7
HETATM    7  S   UNK N   1      22.187  16.216   6.146  0.00  0.00     0.188 S 
HETATM    8  O   UNK N   1      21.657  14.932   5.512  0.00  0.00    -0.221 OA
HETATM    9  O   UNK N   1      20.839  16.839   6.548  0.00  0.00    -0.221 OA
BRANCH   7  10
HETATM   10  C   UNK N   1      21.887  15.047   7.526  0.00  0.00     0.060 A 
HETATM   11  C   UNK N   1      22.751  13.949   7.782  0.00  0.00     0.025 A 
HETATM   12  C   UNK N   1      22.546  13.116   8.876  0.00  0.00     0.025 A 
HETATM   13  C   UNK N   1      21.477  13.354   9.735  0.00  0.00     0.034 A 
HETATM   14  C   UNK N   1      20.606  14.422   9.494  0.00  0.00     0.025 A 
HETATM   15 Cl   UNK N   1      21.240  12.311  11.120  0.00  0.00    -0.084 Cl
HETATM   16  C   UNK N   1      20.812  15.269   8.396  0.00  0.00     0.025 A 
ENDBRANCH   7  10
ENDBRANCH   1   7
BRANCH   1  17
HETATM   17  C   UNK N   1      22.603  18.119   3.949  0.00  0.00     0.007 A 
HETATM   18  C   UNK N   1      24.021  18.242   4.059  0.00  0.00     0.124 A 
HETATM   19  C   UNK N   1      24.667  19.397   3.610  0.00  0.00     0.046 A 
HETATM   20  F   UNK N   1      24.795  17.281   4.615  0.00  0.00    -0.205 F 
HETATM   21  C   UNK N   1      23.940  20.451   3.064  0.00  0.00     0.045 A 
HETATM   22  C   UNK N   1      22.555  20.362   2.969  0.00  0.00     0.117 A 
HETATM   23  C   UNK N   1      21.897  19.211   3.402  0.00  0.00     0.054 A 
HETATM   24  F   UNK N   1      21.847  21.396   2.455  0.00  0.00    -0.206 F 
ENDBRANCH   1  17
BRANCH   4  25
HETATM   25  C   UNK N   1      19.621  13.936   2.155  0.00  0.00     0.015 C 
BRANCH  25  26
HETATM   26  C   UNK N   1      19.382  13.593   0.687  0.00  0.00     0.110 C 
BRANCH  26  27
HETATM   27  C   UNK N   1      18.046  14.077   0.218  0.00  0.00     0.139 C 
HETATM   28  O   UNK N   1      17.058  13.383   0.381  0.00  0.00    -0.650 OA
BRANCH  27  29
HETATM   29  O   UNK N   1      17.933  15.280  -0.378  0.00  0.00    -0.776 OA
HETATM   30  H   UNK N   1      18.236  16.158  -0.258  0.00  0.00     0.167 HD
ENDBRANCH  27  29
ENDBRANCH  26  27
ENDBRANCH  25  26
ENDBRANCH   4  25
TORSDOF 7
ENDMDL
MODEL 6
REMARK VINA RESULT:      -7.3     22.382     25.823
REMARK  7 active torsions:
REMARK  status: ('A' for Active; 'I' for Inactive)
REMARK    1  A    between atoms: C_2  and  S_8 
REMARK    2  A    between atoms: C_11  and  S_8 
REMARK    3  A    between atoms: C_11  and  C_22 
REMARK    4  A    between atoms: C_14  and  C_17 
REMARK    5  A    between atoms: C_17  and  C_18 
REMARK    6  A    between atoms: C_18  and  C_19 
REMARK    7  A    between atoms: C_19  and  O_21 
ROOT
HETATM    1  C   UNK N   1      36.059  11.678  15.244  0.00  0.00     0.098 C 
HETATM    2  C   UNK N   1      36.866  12.823  14.564  0.00  0.00     0.031 C 
HETATM    3  C   UNK N   1      35.961  13.927  14.020  0.00  0.00     0.007 C 
HETATM    4  C   UNK N   1      35.064  13.386  12.891  0.00  0.00    -0.014 C 
HETATM    5  C   UNK N   1      34.833  11.872  12.992  0.00  0.00     0.007 C 
HETATM    6  C   UNK N   1      34.727  11.468  14.458  0.00  0.00     0.031 C 
ENDROOT
BRANCH   1   7
HETATM    7  S   UNK N   1      37.246  10.195  15.088  0.00  0.00     0.188 S 
HETATM    8  O   UNK N   1      37.874  11.151  14.077  0.00  0.00    -0.221 OA
HETATM    9  O   UNK N   1      36.184   9.566  14.170  0.00  0.00    -0.221 OA
BRANCH   7  10
HETATM   10  C   UNK N   1      38.450   9.203  14.123  0.00  0.00     0.060 A 
HETATM   11  C   UNK N   1      38.231   8.875  12.759  0.00  0.00     0.025 A 
HETATM   12  C   UNK N   1      39.188   8.184  12.026  0.00  0.00     0.025 A 
HETATM   13  C   UNK N   1      40.380   7.800  12.635  0.00  0.00     0.034 A 
HETATM   14  C   UNK N   1      40.611   8.103  13.981  0.00  0.00     0.025 A 
HETATM   15 Cl   UNK N   1      41.587   6.948  11.697  0.00  0.00    -0.084 Cl
HETATM   16  C   UNK N   1      39.651   8.805  14.723  0.00  0.00     0.025 A 
ENDBRANCH   7  10
ENDBRANCH   1   7
BRANCH   1  17
HETATM   17  C   UNK N   1      35.694  12.088  16.709  0.00  0.00     0.007 A 
HETATM   18  C   UNK N   1      35.561  11.150  17.776  0.00  0.00     0.124 A 
HETATM   19  C   UNK N   1      35.275  11.589  19.072  0.00  0.00     0.046 A 
HETATM   20  F   UNK N   1      35.675   9.815  17.591  0.00  0.00    -0.205 F 
HETATM   21  C   UNK N   1      35.101  12.944  19.341  0.00  0.00     0.045 A 
HETATM   22  C   UNK N   1      35.202  13.874  18.311  0.00  0.00     0.117 A 
HETATM   23  C   UNK N   1      35.498  13.452  17.014  0.00  0.00     0.054 A 
HETATM   24  F   UNK N   1      35.013  15.189  18.570  0.00  0.00    -0.206 F 
ENDBRANCH   1  17
BRANCH   4  25
HETATM   25  C   UNK N   1      35.635  13.710  11.515  0.00  0.00     0.015 C 
BRANCH  25  26
HETATM   26  C   UNK N   1      34.906  14.868  10.840  0.00  0.00     0.110 C 
BRANCH  26  27
HETATM   27  C   UNK N   1      35.755  16.099  10.788  0.00  0.00     0.139 C 
HETATM   28  O   UNK N   1      35.231  17.191  10.656  0.00  0.00    -0.650 OA
BRANCH  27  29
HETATM   29  O   UNK N   1      37.095  16.003  10.892  0.00  0.00    -0.776 OA
HETATM   30  H   UNK N   1      37.759  16.086  11.547  0.00  0.00     0.167 HD
ENDBRANCH  27  29
ENDBRANCH  26  27
ENDBRANCH  25  26
ENDBRANCH   4  25
TORSDOF 7
ENDMDL
MODEL 7
REMARK VINA RESULT:      -7.3     14.381     17.126
REMARK  7 active torsions:
REMARK  status: ('A' for Active; 'I' for Inactive)
REMARK    1  A    between atoms: C_2  and  S_8 
REMARK    2  A    between atoms: C_11  and  S_8 
REMARK    3  A    between atoms: C_11  and  C_22 
REMARK    4  A    between atoms: C_14  and  C_17 
REMARK    5  A    between atoms: C_17  and  C_18 
REMARK    6  A    between atoms: C_18  and  C_19 
REMARK    7  A    between atoms: C_19  and  O_21 
ROOT
HETATM    1  C   UNK N   1      33.621  15.902   6.849  0.00  0.00     0.098 C 
HETATM    2  C   UNK N   1      32.307  15.307   7.435  0.00  0.00     0.031 C 
HETATM    3  C   UNK N   1      31.097  16.200   7.170  0.00  0.00     0.007 C 
HETATM    4  C   UNK N   1      31.248  17.549   7.898  0.00  0.00    -0.014 C 
HETATM    5  C   UNK N   1      32.714  17.917   8.165  0.00  0.00     0.007 C 
HETATM    6  C   UNK N   1      33.578  17.456   6.997  0.00  0.00     0.031 C 
ENDROOT
BRANCH   1   7
HETATM    7  S   UNK N   1      34.958  15.098   7.945  0.00  0.00     0.188 S 
HETATM    8  O   UNK N   1      33.697  14.568   8.624  0.00  0.00    -0.221 OA
HETATM    9  O   UNK N   1      35.045  16.454   8.665  0.00  0.00    -0.221 OA
BRANCH   7  10
HETATM   10  C   UNK N   1      35.498  14.383   9.544  0.00  0.00     0.060 A 
HETATM   11  C   UNK N   1      36.821  13.908   9.746  0.00  0.00     0.025 A 
HETATM   12  C   UNK N   1      37.231  13.435  10.987  0.00  0.00     0.025 A 
HETATM   13  C   UNK N   1      36.333  13.420  12.052  0.00  0.00     0.034 A 
HETATM   14  C   UNK N   1      35.022  13.871  11.871  0.00  0.00     0.025 A 
HETATM   15 Cl   UNK N   1      36.866  12.841  13.614  0.00  0.00    -0.084 Cl
HETATM   16  C   UNK N   1      34.605  14.355  10.624  0.00  0.00     0.025 A 
ENDBRANCH   7  10
ENDBRANCH   1   7
BRANCH   1  17
HETATM   17  C   UNK N   1      33.718  15.566   5.324  0.00  0.00     0.007 A 
HETATM   18  C   UNK N   1      33.185  16.406   4.300  0.00  0.00     0.124 A 
HETATM   19  C   UNK N   1      33.346  16.067   2.954  0.00  0.00     0.046 A 
HETATM   20  F   UNK N   1      32.490  17.534   4.572  0.00  0.00    -0.205 F 
HETATM   21  C   UNK N   1      34.012  14.901   2.589  0.00  0.00     0.045 A 
HETATM   22  C   UNK N   1      34.519  14.056   3.571  0.00  0.00     0.117 A 
HETATM   23  C   UNK N   1      34.377  14.386   4.919  0.00  0.00     0.054 A 
HETATM   24  F   UNK N   1      35.150  12.912   3.215  0.00  0.00    -0.206 F 
ENDBRANCH   1  17
BRANCH   4  25
HETATM   25  C   UNK N   1      30.484  17.564   9.217  0.00  0.00     0.015 C 
BRANCH  25  26
HETATM   26  C   UNK N   1      29.646  18.828   9.389  0.00  0.00     0.110 C 
BRANCH  26  27
HETATM   27  C   UNK N   1      28.295  18.682   8.763  0.00  0.00     0.139 C 
HETATM   28  O   UNK N   1      28.066  19.204   7.686  0.00  0.00    -0.650 OA
BRANCH  27  29
HETATM   29  O   UNK N   1      27.333  17.972   9.384  0.00  0.00    -0.776 OA
HETATM   30  H   UNK N   1      27.249  17.185   9.884  0.00  0.00     0.167 HD
ENDBRANCH  27  29
ENDBRANCH  26  27
ENDBRANCH  25  26
ENDBRANCH   4  25
TORSDOF 7
ENDMDL
MODEL 8
REMARK VINA RESULT:      -7.3     11.858     14.448
REMARK  7 active torsions:
REMARK  status: ('A' for Active; 'I' for Inactive)
REMARK    1  A    between atoms: C_2  and  S_8 
REMARK    2  A    between atoms: C_11  and  S_8 
REMARK    3  A    between atoms: C_11  and  C_22 
REMARK    4  A    between atoms: C_14  and  C_17 
REMARK    5  A    between atoms: C_17  and  C_18 
REMARK    6  A    between atoms: C_18  and  C_19 
REMARK    7  A    between atoms: C_19  and  O_21 
ROOT
HETATM    1  C   UNK N   1      28.490  17.690   5.892  0.00  0.00     0.098 C 
HETATM    2  C   UNK N   1      27.910  18.222   4.549  0.00  0.00     0.031 C 
HETATM    3  C   UNK N   1      28.162  19.717   4.360  0.00  0.00     0.007 C 
HETATM    4  C   UNK N   1      27.416  20.532   5.434  0.00  0.00    -0.014 C 
HETATM    5  C   UNK N   1      27.146  19.724   6.710  0.00  0.00     0.007 C 
HETATM    6  C   UNK N   1      28.321  18.793   6.984  0.00  0.00     0.031 C 
ENDROOT
BRANCH   1   7
HETATM    7  S   UNK N   1      27.408  16.157   6.224  0.00  0.00     0.188 S 
HETATM    8  O   UNK N   1      26.375  17.084   5.589  0.00  0.00    -0.221 OA
HETATM    9  O   UNK N   1      27.303  16.665   7.673  0.00  0.00    -0.221 OA
BRANCH   7  10
HETATM   10  C   UNK N   1      25.771  15.391   6.533  0.00  0.00     0.060 A 
HETATM   11  C   UNK N   1      25.600  14.335   7.468  0.00  0.00     0.025 A 
HETATM   12  C   UNK N   1      24.339  13.816   7.740  0.00  0.00     0.025 A 
HETATM   13  C   UNK N   1      23.224  14.332   7.085  0.00  0.00     0.034 A 
HETATM   14  C   UNK N   1      23.371  15.363   6.151  0.00  0.00     0.025 A 
HETATM   15 Cl   UNK N   1      21.640  13.684   7.449  0.00  0.00    -0.084 Cl
HETATM   16  C   UNK N   1      24.640  15.894   5.878  0.00  0.00     0.025 A 
ENDBRANCH   7  10
ENDBRANCH   1   7
BRANCH   1  17
HETATM   17  C   UNK N   1      30.020  17.404   5.730  0.00  0.00     0.007 A 
HETATM   18  C   UNK N   1      30.855  16.968   6.803  0.00  0.00     0.124 A 
HETATM   19  C   UNK N   1      32.205  16.688   6.578  0.00  0.00     0.046 A 
HETATM   20  F   UNK N   1      30.401  16.832   8.070  0.00  0.00    -0.205 F 
HETATM   21  C   UNK N   1      32.762  16.843   5.312  0.00  0.00     0.045 A 
HETATM   22  C   UNK N   1      31.973  17.290   4.257  0.00  0.00     0.117 A 
HETATM   23  C   UNK N   1      30.620  17.562   4.463  0.00  0.00     0.054 A 
HETATM   24  F   UNK N   1      32.520  17.459   3.030  0.00  0.00    -0.206 F 
ENDBRANCH   1  17
BRANCH   4  25
HETATM   25  C   UNK N   1      26.096  21.082   4.905  0.00  0.00     0.015 C 
BRANCH  25  26
HETATM   26  C   UNK N   1      25.306  20.042   4.115  0.00  0.00     0.110 C 
BRANCH  26  27
HETATM   27  C   UNK N   1      24.628  20.651   2.928  0.00  0.00     0.139 C 
HETATM   28  O   UNK N   1      25.238  20.779   1.881  0.00  0.00    -0.650 OA
BRANCH  27  29
HETATM   29  O   UNK N   1      23.344  21.052   3.013  0.00  0.00    -0.776 OA
HETATM   30  H   UNK N   1      22.519  20.717   3.302  0.00  0.00     0.167 HD
ENDBRANCH  27  29
ENDBRANCH  26  27
ENDBRANCH  25  26
ENDBRANCH   4  25
TORSDOF 7
ENDMDL
MODEL 9
REMARK VINA RESULT:      -7.1     12.309     15.018
REMARK  7 active torsions:
REMARK  status: ('A' for Active; 'I' for Inactive)
REMARK    1  A    between atoms: C_2  and  S_8 
REMARK    2  A    between atoms: C_11  and  S_8 
REMARK    3  A    between atoms: C_11  and  C_22 
REMARK    4  A    between atoms: C_14  and  C_17 
REMARK    5  A    between atoms: C_17  and  C_18 
REMARK    6  A    between atoms: C_18  and  C_19 
REMARK    7  A    between atoms: C_19  and  O_21 
ROOT
HETATM    1  C   UNK N   1      29.347  17.571   5.898  0.00  0.00     0.098 C 
HETATM    2  C   UNK N   1      30.185  17.472   4.589  0.00  0.00     0.031 C 
HETATM    3  C   UNK N   1      29.439  16.738   3.477  0.00  0.00     0.007 C 
HETATM    4  C   UNK N   1      29.191  15.269   3.867  0.00  0.00    -0.014 C 
HETATM    5  C   UNK N   1      29.167  15.056   5.387  0.00  0.00     0.007 C 
HETATM    6  C   UNK N   1      28.516  16.259   6.061  0.00  0.00     0.031 C 
ENDROOT
BRANCH   1   7
HETATM    7  S   UNK N   1      30.694  17.756   7.232  0.00  0.00     0.188 S 
HETATM    8  O   UNK N   1      31.470  16.979   6.171  0.00  0.00    -0.221 OA
HETATM    9  O   UNK N   1      30.025  16.564   7.937  0.00  0.00    -0.221 OA
BRANCH   7  10
HETATM   10  C   UNK N   1      32.234  17.177   8.043  0.00  0.00     0.060 A 
HETATM   11  C   UNK N   1      33.395  17.992   8.121  0.00  0.00     0.025 A 
HETATM   12  C   UNK N   1      34.528  17.563   8.801  0.00  0.00     0.025 A 
HETATM   13  C   UNK N   1      34.533  16.313   9.413  0.00  0.00     0.034 A 
HETATM   14  C   UNK N   1      33.405  15.488   9.339  0.00  0.00     0.025 A 
HETATM   15 Cl   UNK N   1      35.958  15.790  10.284  0.00  0.00    -0.084 Cl
HETATM   16  C   UNK N   1      32.258  15.919   8.659  0.00  0.00     0.025 A 
ENDBRANCH   7  10
ENDBRANCH   1   7
BRANCH   1  17
HETATM   17  C   UNK N   1      28.343  18.766   5.793  0.00  0.00     0.007 A 
HETATM   18  C   UNK N   1      27.817  19.450   6.931  0.00  0.00     0.124 A 
HETATM   19  C   UNK N   1      26.958  20.540   6.764  0.00  0.00     0.046 A 
HETATM   20  F   UNK N   1      28.095  19.075   8.200  0.00  0.00    -0.205 F 
HETATM   21  C   UNK N   1      26.588  20.966   5.492  0.00  0.00     0.045 A 
HETATM   22  C   UNK N   1      27.069  20.298   4.370  0.00  0.00     0.117 A 
HETATM   23  C   UNK N   1      27.937  19.216   4.519  0.00  0.00     0.054 A 
HETATM   24  F   UNK N   1      26.693  20.700   3.133  0.00  0.00    -0.206 F 
ENDBRANCH   1  17
BRANCH   4  25
HETATM   25  C   UNK N   1      30.233  14.341   3.252  0.00  0.00     0.015 C 
BRANCH  25  26
HETATM   26  C   UNK N   1      31.471  14.190   4.131  0.00  0.00     0.110 C 
BRANCH  26  27
HETATM   27  C   UNK N   1      32.663  14.857   3.522  0.00  0.00     0.139 C 
HETATM   28  O   UNK N   1      33.040  14.528   2.411  0.00  0.00    -0.650 OA
BRANCH  27  29
HETATM   29  O   UNK N   1      33.318  15.823   4.196  0.00  0.00    -0.776 OA
HETATM   30  H   UNK N   1      34.146  15.955   4.611  0.00  0.00     0.167 HD
ENDBRANCH  27  29
ENDBRANCH  26  27
ENDBRANCH  25  26
ENDBRANCH   4  25
TORSDOF 7
ENDMDL
