MODEL 1
REMARK VINA RESULT:      -8.3      0.000      0.000
REMARK  5 active torsions:
REMARK  status: ('A' for Active; 'I' for Inactive)
REMARK    1  A    between atoms: C_7  and  C_24 
REMARK    2  A    between atoms: C_8  and  C_17 
REMARK    3  A    between atoms: N_9  and  C_12 
REMARK    4  A    between atoms: C_12  and  C_13 
REMARK       I    between atoms: C_24  and  N_26 
REMARK    5  A    between atoms: N_26  and  C_27 
ROOT
HETATM    1  C   UNK N   1      24.245  14.871   5.720  0.00  0.00     0.036 C 
HETATM    2  C   UNK N   1      25.426  14.859   6.472  0.00  0.00     0.032 C 
HETATM    3  C   UNK N   1      25.474  14.169   7.676  0.00  0.00     0.046 C 
HETATM    4  C   UNK N   1      24.326  13.541   8.158  0.00  0.00     0.137 C 
HETATM    5  C   UNK N   1      23.109  13.691   7.467  0.00  0.00     0.085 C 
HETATM    6  C   UNK N   1      23.089  14.299   6.220  0.00  0.00     0.055 C 
HETATM    7  C   UNK N   1      21.856  13.303   8.042  0.00  0.00     0.102 C 
HETATM    8  N   UNK N   1      20.821  13.007   8.463  0.00  0.00    -0.191 NA
HETATM    9  F   UNK N   1      24.404  12.816   9.298  0.00  0.00    -0.204 F 
ENDROOT
BRANCH   1  10
HETATM   10  N   UNK N   1      24.303  15.287   4.385  0.00  0.00    -0.326 N 
HETATM   11  C   UNK N   1      24.554  16.561   4.067  0.00  0.00     0.233 C 
HETATM   12  O   UNK N   1      25.178  16.792   3.038  0.00  0.00    -0.272 OA
HETATM   13  H   UNK N   1      24.155  14.629   3.668  0.00  0.00     0.169 HD
BRANCH  11  14
HETATM   14  C   UNK N   1      24.137  17.691   5.005  0.00  0.00     0.139 C 
HETATM   15  C   UNK N   1      25.182  18.723   4.819  0.00  0.00    -0.027 A 
HETATM   16  C   UNK N   1      24.975  19.746   3.886  0.00  0.00     0.039 A 
HETATM   17  C   UNK N   1      26.474  18.407   5.262  0.00  0.00     0.009 A 
HETATM   18  C   UNK N   1      26.096  20.374   3.325  0.00  0.00     0.017 A 
HETATM   19  C   UNK N   1      23.623  20.017   3.327  0.00  0.00     0.255 C 
HETATM   20  C   UNK N   1      27.388  20.008   3.718  0.00  0.00     0.001 A 
HETATM   21  C   UNK N   1      27.574  19.059   4.723  0.00  0.00     0.001 A 
HETATM   22  N   UNK N   1      22.548  19.237   3.657  0.00  0.00    -0.329 N 
HETATM   23  O   UNK N   1      23.503  20.890   2.479  0.00  0.00    -0.267 OA
HETATM   24  C   UNK N   1      22.691  18.190   4.689  0.00  0.00     0.140 C 
BRANCH  22  25
HETATM   25  C   UNK N   1      21.482  19.150   2.674  0.00  0.00     0.244 C 
BRANCH  25  26
HETATM   26  C   UNK N   1      20.149  19.912   2.656  0.00  0.00     0.403 C 
HETATM   27  F   UNK N   1      18.909  19.288   2.730  0.00  0.00    -0.169 F 
HETATM   28  F   UNK N   1      20.169  20.744   1.554  0.00  0.00    -0.169 F 
HETATM   29  F   UNK N   1      20.264  20.673   3.795  0.00  0.00    -0.169 F 
ENDBRANCH  25  26
ENDBRANCH  22  25
BRANCH  24  30
HETATM   30  C   UNK N   1      21.511  17.270   5.044  0.00  0.00    -0.019 A 
HETATM   31  C   UNK N   1      21.043  17.298   6.360  0.00  0.00     0.012 A 
HETATM   32  C   UNK N   1      19.924  16.555   6.738  0.00  0.00     0.018 A 
HETATM   33  C   UNK N   1      19.250  15.799   5.781  0.00  0.00     0.087 A 
HETATM   34  N   UNK N   1      19.698  15.778   4.497  0.00  0.00    -0.375 N 
HETATM   35  C   UNK N   1      20.803  16.482   4.114  0.00  0.00     0.096 A 
ATOM     36  HN  UNK N   1      19.195  15.223   3.803  1.00  0.00     0.164 HD
ENDBRANCH  24  30
ENDBRANCH  11  14
ENDBRANCH   1  10
TORSDOF 5
ENDMDL
MODEL 2
REMARK VINA RESULT:      -7.9      2.694      7.933
REMARK  5 active torsions:
REMARK  status: ('A' for Active; 'I' for Inactive)
REMARK    1  A    between atoms: C_7  and  C_24 
REMARK    2  A    between atoms: C_8  and  C_17 
REMARK    3  A    between atoms: N_9  and  C_12 
REMARK    4  A    between atoms: C_12  and  C_13 
REMARK       I    between atoms: C_24  and  N_26 
REMARK    5  A    between atoms: N_26  and  C_27 
ROOT
HETATM    1  C   UNK N   1      21.569  17.068   4.456  0.00  0.00     0.036 C 
HETATM    2  C   UNK N   1      20.760  18.199   4.291  0.00  0.00     0.032 C 
HETATM    3  C   UNK N   1      21.304  19.374   3.791  0.00  0.00     0.046 C 
HETATM    4  C   UNK N   1      22.669  19.437   3.511  0.00  0.00     0.137 C 
HETATM    5  C   UNK N   1      23.496  18.342   3.825  0.00  0.00     0.085 C 
HETATM    6  C   UNK N   1      22.933  17.142   4.233  0.00  0.00     0.055 C 
HETATM    7  C   UNK N   1      24.924  18.440   3.812  0.00  0.00     0.102 C 
HETATM    8  N   UNK N   1      26.080  18.470   3.817  0.00  0.00    -0.191 NA
HETATM    9  F   UNK N   1      23.174  20.566   2.960  0.00  0.00    -0.204 F 
ENDROOT
BRANCH   1  10
HETATM   10  N   UNK N   1      20.955  15.826   4.650  0.00  0.00    -0.326 N 
HETATM   11  C   UNK N   1      20.715  15.356   5.878  0.00  0.00     0.233 C 
HETATM   12  O   UNK N   1      19.720  14.663   6.052  0.00  0.00    -0.272 OA
HETATM   13  H   UNK N   1      20.695  15.288   3.867  0.00  0.00     0.169 HD
BRANCH  11  14
HETATM   14  C   UNK N   1      21.621  15.739   7.045  0.00  0.00     0.139 C 
HETATM   15  C   UNK N   1      20.685  16.142   8.118  0.00  0.00    -0.027 A 
HETATM   16  C   UNK N   1      20.276  15.192   9.061  0.00  0.00     0.039 A 
HETATM   17  C   UNK N   1      19.937  17.308   7.904  0.00  0.00     0.009 A 
HETATM   18  C   UNK N   1      19.047  15.382   9.710  0.00  0.00     0.017 A 
HETATM   19  C   UNK N   1      20.999  13.901   9.219  0.00  0.00     0.255 C 
HETATM   20  C   UNK N   1      18.268  16.514   9.444  0.00  0.00     0.001 A 
HETATM   21  C   UNK N   1      18.738  17.501   8.577  0.00  0.00     0.001 A 
HETATM   22  N   UNK N   1      22.049  13.571   8.406  0.00  0.00    -0.329 N 
HETATM   23  O   UNK N   1      20.573  13.085  10.024  0.00  0.00    -0.267 OA
HETATM   24  C   UNK N   1      22.569  14.562   7.441  0.00  0.00     0.140 C 
BRANCH  22  25
HETATM   25  C   UNK N   1      22.286  12.154   8.194  0.00  0.00     0.244 C 
BRANCH  25  26
HETATM   26  C   UNK N   1      23.345  11.262   8.858  0.00  0.00     0.403 C 
HETATM   27  F   UNK N   1      23.788  10.063   8.312  0.00  0.00    -0.169 F 
HETATM   28  F   UNK N   1      22.937  11.042  10.158  0.00  0.00    -0.169 F 
HETATM   29  F   UNK N   1      24.432  12.105   8.865  0.00  0.00    -0.169 F 
ENDBRANCH  25  26
ENDBRANCH  22  25
BRANCH  24  30
HETATM   30  C   UNK N   1      23.716  14.199   6.485  0.00  0.00    -0.019 A 
HETATM   31  C   UNK N   1      24.999  14.643   6.816  0.00  0.00     0.012 A 
HETATM   32  C   UNK N   1      26.104  14.284   6.043  0.00  0.00     0.018 A 
HETATM   33  C   UNK N   1      25.925  13.447   4.944  0.00  0.00     0.087 A 
HETATM   34  N   UNK N   1      24.679  13.005   4.624  0.00  0.00    -0.375 N 
HETATM   35  C   UNK N   1      23.585  13.363   5.357  0.00  0.00     0.096 A 
ATOM     36  HN  UNK N   1      24.560  12.391   3.817  1.00  0.00     0.164 HD
ENDBRANCH  24  30
ENDBRANCH  11  14
ENDBRANCH   1  10
TORSDOF 5
ENDMDL
MODEL 3
REMARK VINA RESULT:      -7.8      3.670      6.591
REMARK  5 active torsions:
REMARK  status: ('A' for Active; 'I' for Inactive)
REMARK    1  A    between atoms: C_7  and  C_24 
REMARK    2  A    between atoms: C_8  and  C_17 
REMARK    3  A    between atoms: N_9  and  C_12 
REMARK    4  A    between atoms: C_12  and  C_13 
REMARK       I    between atoms: C_24  and  N_26 
REMARK    5  A    between atoms: N_26  and  C_27 
ROOT
HETATM    1  C   UNK N   1      22.403  16.525   4.325  0.00  0.00     0.036 C 
HETATM    2  C   UNK N   1      21.798  15.644   3.419  0.00  0.00     0.032 C 
HETATM    3  C   UNK N   1      20.956  16.136   2.432  0.00  0.00     0.046 C 
HETATM    4  C   UNK N   1      20.670  17.500   2.385  0.00  0.00     0.137 C 
HETATM    5  C   UNK N   1      21.163  18.350   3.393  0.00  0.00     0.085 C 
HETATM    6  C   UNK N   1      22.079  17.870   4.318  0.00  0.00     0.055 C 
HETATM    7  C   UNK N   1      20.693  19.692   3.553  0.00  0.00     0.102 C 
HETATM    8  N   UNK N   1      20.345  20.782   3.722  0.00  0.00    -0.191 NA
HETATM    9  F   UNK N   1      19.902  17.976   1.377  0.00  0.00    -0.204 F 
ENDROOT
BRANCH   1  10
HETATM   10  N   UNK N   1      23.479  16.065   5.092  0.00  0.00    -0.326 N 
HETATM   11  C   UNK N   1      24.727  16.483   4.857  0.00  0.00     0.233 C 
HETATM   12  O   UNK N   1      25.494  16.588   5.807  0.00  0.00    -0.272 OA
HETATM   13  H   UNK N   1      23.313  15.421   5.819  0.00  0.00     0.169 HD
BRANCH  11  14
HETATM   14  C   UNK N   1      25.156  16.890   3.450  0.00  0.00     0.139 C 
HETATM   15  C   UNK N   1      26.024  18.070   3.660  0.00  0.00    -0.027 A 
HETATM   16  C   UNK N   1      27.408  17.890   3.769  0.00  0.00     0.039 A 
HETATM   17  C   UNK N   1      25.411  19.231   4.150  0.00  0.00     0.009 A 
HETATM   18  C   UNK N   1      28.152  18.847   4.475  0.00  0.00     0.017 A 
HETATM   19  C   UNK N   1      28.055  16.616   3.353  0.00  0.00     0.255 C 
HETATM   20  C   UNK N   1      27.526  19.972   5.024  0.00  0.00     0.001 A 
HETATM   21  C   UNK N   1      26.164  20.188   4.818  0.00  0.00     0.001 A 
HETATM   22  N   UNK N   1      27.314  15.555   2.909  0.00  0.00    -0.329 N 
HETATM   23  O   UNK N   1      29.261  16.491   3.514  0.00  0.00    -0.267 OA
HETATM   24  C   UNK N   1      25.859  15.711   2.705  0.00  0.00     0.140 C 
BRANCH  22  25
HETATM   25  C   UNK N   1      27.885  14.235   3.110  0.00  0.00     0.244 C 
BRANCH  25  26
HETATM   26  C   UNK N   1      28.342  13.229   2.042  0.00  0.00     0.403 C 
HETATM   27  F   UNK N   1      27.473  12.376   1.372  0.00  0.00    -0.169 F 
HETATM   28  F   UNK N   1      29.367  12.486   2.593  0.00  0.00    -0.169 F 
HETATM   29  F   UNK N   1      28.861  14.075   1.090  0.00  0.00    -0.169 F 
ENDBRANCH  25  26
ENDBRANCH  22  25
BRANCH  24  30
HETATM   30  C   UNK N   1      24.998  14.521   2.252  0.00  0.00    -0.019 A 
HETATM   31  C   UNK N   1      24.523  14.531   0.938  0.00  0.00     0.012 A 
HETATM   32  C   UNK N   1      23.805  13.448   0.427  0.00  0.00     0.018 A 
HETATM   33  C   UNK N   1      23.588  12.332   1.232  0.00  0.00     0.087 A 
HETATM   34  N   UNK N   1      24.058  12.315   2.508  0.00  0.00    -0.375 N 
HETATM   35  C   UNK N   1      24.743  13.374   3.031  0.00  0.00     0.096 A 
ATOM     36  HN  UNK N   1      23.895  11.491   3.089  1.00  0.00     0.164 HD
ENDBRANCH  24  30
ENDBRANCH  11  14
ENDBRANCH   1  10
TORSDOF 5
ENDMDL
MODEL 4
REMARK VINA RESULT:      -7.7      3.608      6.620
REMARK  5 active torsions:
REMARK  status: ('A' for Active; 'I' for Inactive)
REMARK    1  A    between atoms: C_7  and  C_24 
REMARK    2  A    between atoms: C_8  and  C_17 
REMARK    3  A    between atoms: N_9  and  C_12 
REMARK    4  A    between atoms: C_12  and  C_13 
REMARK       I    between atoms: C_24  and  N_26 
REMARK    5  A    between atoms: N_26  and  C_27 
ROOT
HETATM    1  C   UNK N   1      22.295  17.458   4.162  0.00  0.00     0.036 C 
HETATM    2  C   UNK N   1      21.878  18.692   4.678  0.00  0.00     0.032 C 
HETATM    3  C   UNK N   1      20.794  19.349   4.113  0.00  0.00     0.046 C 
HETATM    4  C   UNK N   1      20.162  18.804   2.996  0.00  0.00     0.137 C 
HETATM    5  C   UNK N   1      20.687  17.643   2.397  0.00  0.00     0.085 C 
HETATM    6  C   UNK N   1      21.708  16.941   3.020  0.00  0.00     0.055 C 
HETATM    7  C   UNK N   1      20.254  17.190   1.110  0.00  0.00     0.102 C 
HETATM    8  N   UNK N   1      19.938  16.785   0.074  0.00  0.00    -0.191 NA
HETATM    9  F   UNK N   1      19.065  19.419   2.497  0.00  0.00    -0.204 F 
ENDROOT
BRANCH   1  10
HETATM   10  N   UNK N   1      23.163  16.669   4.925  0.00  0.00    -0.326 N 
HETATM   11  C   UNK N   1      24.485  16.707   4.730  0.00  0.00     0.233 C 
HETATM   12  O   UNK N   1      25.220  16.542   5.696  0.00  0.00    -0.272 OA
HETATM   13  H   UNK N   1      22.792  16.076   5.618  0.00  0.00     0.169 HD
BRANCH  11  14
HETATM   14  C   UNK N   1      25.056  17.023   3.351  0.00  0.00     0.139 C 
HETATM   15  C   UNK N   1      26.041  18.099   3.601  0.00  0.00    -0.027 A 
HETATM   16  C   UNK N   1      27.383  17.762   3.813  0.00  0.00     0.039 A 
HETATM   17  C   UNK N   1      25.536  19.336   4.023  0.00  0.00     0.009 A 
HETATM   18  C   UNK N   1      28.183  18.644   4.553  0.00  0.00     0.017 A 
HETATM   19  C   UNK N   1      27.902  16.410   3.469  0.00  0.00     0.255 C 
HETATM   20  C   UNK N   1      27.659  19.849   5.034  0.00  0.00     0.001 A 
HETATM   21  C   UNK N   1      26.349  20.217   4.726  0.00  0.00     0.001 A 
HETATM   22  N   UNK N   1      27.074  15.431   2.992  0.00  0.00    -0.329 N 
HETATM   23  O   UNK N   1      29.071  16.150   3.719  0.00  0.00    -0.267 OA
HETATM   24  C   UNK N   1      25.666  15.750   2.681  0.00  0.00     0.140 C 
BRANCH  22  25
HETATM   25  C   UNK N   1      27.469  14.059   3.259  0.00  0.00     0.244 C 
BRANCH  25  26
HETATM   26  C   UNK N   1      27.858  12.973   2.245  0.00  0.00     0.403 C 
HETATM   27  F   UNK N   1      26.929  12.241   1.513  0.00  0.00    -0.169 F 
HETATM   28  F   UNK N   1      28.712  12.100   2.888  0.00  0.00    -0.169 F 
HETATM   29  F   UNK N   1      28.573  13.710   1.331  0.00  0.00    -0.169 F 
ENDBRANCH  25  26
ENDBRANCH  22  25
BRANCH  24  30
HETATM   30  C   UNK N   1      24.703  14.656   2.188  0.00  0.00    -0.019 A 
HETATM   31  C   UNK N   1      24.482  14.563   0.812  0.00  0.00     0.012 A 
HETATM   32  C   UNK N   1      23.687  13.545   0.281  0.00  0.00     0.018 A 
HETATM   33  C   UNK N   1      23.135  12.594   1.136  0.00  0.00     0.087 A 
HETATM   34  N   UNK N   1      23.357  12.676   2.476  0.00  0.00    -0.375 N 
HETATM   35  C   UNK N   1      24.114  13.677   3.014  0.00  0.00     0.096 A 
ATOM     36  HN  UNK N   1      22.950  11.973   3.093  1.00  0.00     0.164 HD
ENDBRANCH  24  30
ENDBRANCH  11  14
ENDBRANCH   1  10
TORSDOF 5
ENDMDL
MODEL 5
REMARK VINA RESULT:      -7.6      3.188      5.364
REMARK  5 active torsions:
REMARK  status: ('A' for Active; 'I' for Inactive)
REMARK    1  A    between atoms: C_7  and  C_24 
REMARK    2  A    between atoms: C_8  and  C_17 
REMARK    3  A    between atoms: N_9  and  C_12 
REMARK    4  A    between atoms: C_12  and  C_13 
REMARK       I    between atoms: C_24  and  N_26 
REMARK    5  A    between atoms: N_26  and  C_27 
ROOT
HETATM    1  C   UNK N   1      21.926  14.871   5.504  0.00  0.00     0.036 C 
HETATM    2  C   UNK N   1      22.990  14.102   5.019  0.00  0.00     0.032 C 
HETATM    3  C   UNK N   1      22.747  13.065   4.128  0.00  0.00     0.046 C 
HETATM    4  C   UNK N   1      21.435  12.758   3.769  0.00  0.00     0.137 C 
HETATM    5  C   UNK N   1      20.367  13.440   4.383  0.00  0.00     0.085 C 
HETATM    6  C   UNK N   1      20.619  14.535   5.196  0.00  0.00     0.055 C 
HETATM    7  C   UNK N   1      19.012  12.996   4.261  0.00  0.00     0.102 C 
HETATM    8  N   UNK N   1      17.903  12.676   4.193  0.00  0.00    -0.191 NA
HETATM    9  F   UNK N   1      21.216  11.790   2.848  0.00  0.00    -0.204 F 
ENDROOT
BRANCH   1  10
HETATM   10  N   UNK N   1      22.209  16.089   6.132  0.00  0.00    -0.326 N 
HETATM   11  C   UNK N   1      22.308  17.223   5.430  0.00  0.00     0.233 C 
HETATM   12  O   UNK N   1      21.952  18.268   5.960  0.00  0.00    -0.272 OA
HETATM   13  H   UNK N   1      22.337  16.111   7.108  0.00  0.00     0.169 HD
BRANCH  11  14
HETATM   14  C   UNK N   1      22.784  17.198   3.980  0.00  0.00     0.139 C 
HETATM   15  C   UNK N   1      21.774  17.997   3.251  0.00  0.00    -0.027 A 
HETATM   16  C   UNK N   1      21.999  19.363   3.048  0.00  0.00     0.039 A 
HETATM   17  C   UNK N   1      20.481  17.462   3.167  0.00  0.00     0.009 A 
HETATM   18  C   UNK N   1      20.891  20.202   2.866  0.00  0.00     0.017 A 
HETATM   19  C   UNK N   1      23.349  19.959   3.242  0.00  0.00     0.255 C 
HETATM   20  C   UNK N   1      19.594  19.676   2.852  0.00  0.00     0.001 A 
HETATM   21  C   UNK N   1      19.394  18.300   2.953  0.00  0.00     0.001 A 
HETATM   22  N   UNK N   1      24.401  19.206   3.686  0.00  0.00    -0.329 N 
HETATM   23  O   UNK N   1      23.483  21.167   3.100  0.00  0.00    -0.267 OA
HETATM   24  C   UNK N   1      24.241  17.746   3.849  0.00  0.00     0.140 C 
BRANCH  22  25
HETATM   25  C   UNK N   1      25.444  19.910   4.413  0.00  0.00     0.244 C 
BRANCH  25  26
HETATM   26  C   UNK N   1      26.829  20.335   3.904  0.00  0.00     0.403 C 
HETATM   27  F   UNK N   1      27.034  20.974   2.687  0.00  0.00    -0.169 F 
HETATM   28  F   UNK N   1      27.648  19.227   3.974  0.00  0.00    -0.169 F 
HETATM   29  F   UNK N   1      27.203  21.232   4.877  0.00  0.00    -0.169 F 
ENDBRANCH  25  26
ENDBRANCH  22  25
BRANCH  24  30
HETATM   30  C   UNK N   1      25.393  16.885   4.390  0.00  0.00    -0.019 A 
HETATM   31  C   UNK N   1      26.208  16.237   3.459  0.00  0.00     0.012 A 
HETATM   32  C   UNK N   1      27.324  15.505   3.869  0.00  0.00     0.018 A 
HETATM   33  C   UNK N   1      27.643  15.448   5.224  0.00  0.00     0.087 A 
HETATM   34  N   UNK N   1      26.857  16.086   6.132  0.00  0.00    -0.375 N 
HETATM   35  C   UNK N   1      25.751  16.789   5.751  0.00  0.00     0.096 A 
ATOM     36  HN  UNK N   1      27.101  16.040   7.122  1.00  0.00     0.164 HD
ENDBRANCH  24  30
ENDBRANCH  11  14
ENDBRANCH   1  10
TORSDOF 5
ENDMDL
MODEL 6
REMARK VINA RESULT:      -7.6     13.356     14.802
REMARK  5 active torsions:
REMARK  status: ('A' for Active; 'I' for Inactive)
REMARK    1  A    between atoms: C_7  and  C_24 
REMARK    2  A    between atoms: C_8  and  C_17 
REMARK    3  A    between atoms: N_9  and  C_12 
REMARK    4  A    between atoms: C_12  and  C_13 
REMARK       I    between atoms: C_24  and  N_26 
REMARK    5  A    between atoms: N_26  and  C_27 
ROOT
HETATM    1  C   UNK N   1      31.228  22.794  -5.220  0.00  0.00     0.036 C 
HETATM    2  C   UNK N   1      30.940  23.148  -3.896  0.00  0.00     0.032 C 
HETATM    3  C   UNK N   1      31.620  22.536  -2.851  0.00  0.00     0.046 C 
HETATM    4  C   UNK N   1      32.544  21.528  -3.126  0.00  0.00     0.137 C 
HETATM    5  C   UNK N   1      32.710  21.078  -4.449  0.00  0.00     0.085 C 
HETATM    6  C   UNK N   1      32.101  21.757  -5.495  0.00  0.00     0.055 C 
HETATM    7  C   UNK N   1      33.433  19.882  -4.760  0.00  0.00     0.102 C 
HETATM    8  N   UNK N   1      34.007  18.925  -5.061  0.00  0.00    -0.191 NA
HETATM    9  F   UNK N   1      33.249  20.988  -2.104  0.00  0.00    -0.204 F 
ENDROOT
BRANCH   1  10
HETATM   10  N   UNK N   1      30.781  23.628  -6.250  0.00  0.00    -0.326 N 
HETATM   11  C   UNK N   1      29.477  23.858  -6.439  0.00  0.00     0.233 C 
HETATM   12  O   UNK N   1      29.135  24.956  -6.863  0.00  0.00    -0.272 OA
HETATM   13  H   UNK N   1      31.439  24.053  -6.847  0.00  0.00     0.169 HD
BRANCH  11  14
HETATM   14  C   UNK N   1      28.441  22.803  -6.062  0.00  0.00     0.139 C 
HETATM   15  C   UNK N   1      27.349  23.574  -5.427  0.00  0.00    -0.027 A 
HETATM   16  C   UNK N   1      26.271  24.004  -6.210  0.00  0.00     0.039 A 
HETATM   17  C   UNK N   1      27.634  24.187  -4.199  0.00  0.00     0.009 A 
HETATM   18  C   UNK N   1      25.550  25.131  -5.790  0.00  0.00     0.017 A 
HETATM   19  C   UNK N   1      26.025  23.435  -7.562  0.00  0.00     0.255 C 
HETATM   20  C   UNK N   1      25.880  25.785  -4.598  0.00  0.00     0.001 A 
HETATM   21  C   UNK N   1      26.891  25.282  -3.779  0.00  0.00     0.001 A 
HETATM   22  N   UNK N   1      26.879  22.518  -8.113  0.00  0.00    -0.329 N 
HETATM   23  O   UNK N   1      25.099  23.879  -8.226  0.00  0.00    -0.267 OA
HETATM   24  C   UNK N   1      27.991  21.975  -7.308  0.00  0.00     0.140 C 
BRANCH  22  25
HETATM   25  C   UNK N   1      26.944  22.481  -9.564  0.00  0.00     0.244 C 
BRANCH  25  26
HETATM   26  C   UNK N   1      26.340  21.434 -10.511  0.00  0.00     0.403 C 
HETATM   27  F   UNK N   1      25.735  21.755 -11.721  0.00  0.00    -0.169 F 
HETATM   28  F   UNK N   1      25.472  20.661  -9.766  0.00  0.00    -0.169 F 
HETATM   29  F   UNK N   1      27.452  20.688 -10.823  0.00  0.00    -0.169 F 
ENDBRANCH  25  26
ENDBRANCH  22  25
BRANCH  24  30
HETATM   30  C   UNK N   1      28.991  20.980  -7.919  0.00  0.00    -0.019 A 
HETATM   31  C   UNK N   1      28.786  19.621  -7.667  0.00  0.00     0.012 A 
HETATM   32  C   UNK N   1      29.601  18.652  -8.254  0.00  0.00     0.018 A 
HETATM   33  C   UNK N   1      30.612  19.048  -9.127  0.00  0.00     0.087 A 
HETATM   34  N   UNK N   1      30.808  20.369  -9.381  0.00  0.00    -0.375 N 
HETATM   35  C   UNK N   1      30.034  21.331  -8.799  0.00  0.00     0.096 A 
ATOM     36  HN  UNK N   1      31.551  20.648 -10.024  1.00  0.00     0.164 HD
ENDBRANCH  24  30
ENDBRANCH  11  14
ENDBRANCH   1  10
TORSDOF 5
ENDMDL
MODEL 7
REMARK VINA RESULT:      -7.5      4.895      6.738
REMARK  5 active torsions:
REMARK  status: ('A' for Active; 'I' for Inactive)
REMARK    1  A    between atoms: C_7  and  C_24 
REMARK    2  A    between atoms: C_8  and  C_17 
REMARK    3  A    between atoms: N_9  and  C_12 
REMARK    4  A    between atoms: C_12  and  C_13 
REMARK       I    between atoms: C_24  and  N_26 
REMARK    5  A    between atoms: N_26  and  C_27 
ROOT
HETATM    1  C   UNK N   1      28.932  15.468   2.903  0.00  0.00     0.036 C 
HETATM    2  C   UNK N   1      29.886  14.454   2.757  0.00  0.00     0.032 C 
HETATM    3  C   UNK N   1      29.531  13.249   2.165  0.00  0.00     0.046 C 
HETATM    4  C   UNK N   1      28.209  13.035   1.775  0.00  0.00     0.137 C 
HETATM    5  C   UNK N   1      27.231  14.004   2.067  0.00  0.00     0.085 C 
HETATM    6  C   UNK N   1      27.608  15.241   2.570  0.00  0.00     0.055 C 
HETATM    7  C   UNK N   1      25.831  13.734   1.937  0.00  0.00     0.102 C 
HETATM    8  N   UNK N   1      24.691  13.564   1.848  0.00  0.00    -0.191 NA
HETATM    9  F   UNK N   1      27.891  11.883   1.138  0.00  0.00    -0.204 F 
ENDROOT
BRANCH   1  10
HETATM   10  N   UNK N   1      29.370  16.764   3.198  0.00  0.00    -0.326 N 
HETATM   11  C   UNK N   1      29.705  17.116   4.443  0.00  0.00     0.233 C 
HETATM   12  O   UNK N   1      30.597  17.942   4.594  0.00  0.00    -0.272 OA
HETATM   13  H   UNK N   1      29.431  17.429   2.473  0.00  0.00     0.169 HD
BRANCH  11  14
HETATM   14  C   UNK N   1      29.041  16.447   5.643  0.00  0.00     0.139 C 
HETATM   15  C   UNK N   1      30.123  16.342   6.647  0.00  0.00    -0.027 A 
HETATM   16  C   UNK N   1      30.272  17.355   7.601  0.00  0.00     0.039 A 
HETATM   17  C   UNK N   1      31.184  15.475   6.350  0.00  0.00     0.009 A 
HETATM   18  C   UNK N   1      31.536  17.553   8.174  0.00  0.00     0.017 A 
HETATM   19  C   UNK N   1      29.191  18.348   7.845  0.00  0.00     0.255 C 
HETATM   20  C   UNK N   1      32.613  16.730   7.824  0.00  0.00     0.001 A 
HETATM   21  C   UNK N   1      32.423  15.660   6.950  0.00  0.00     0.001 A 
HETATM   22  N   UNK N   1      28.041  18.344   7.103  0.00  0.00    -0.329 N 
HETATM   23  O   UNK N   1      29.389  19.244   8.654  0.00  0.00    -0.267 OA
HETATM   24  C   UNK N   1      27.799  17.256   6.133  0.00  0.00     0.140 C 
BRANCH  22  25
HETATM   25  C   UNK N   1      27.357  19.617   6.956  0.00  0.00     0.244 C 
BRANCH  25  26
HETATM   26  C   UNK N   1      27.658  20.742   5.955  0.00  0.00     0.403 C 
HETATM   27  F   UNK N   1      28.406  20.558   4.798  0.00  0.00    -0.169 F 
HETATM   28  F   UNK N   1      28.190  21.796   6.671  0.00  0.00    -0.169 F 
HETATM   29  F   UNK N   1      26.389  21.075   5.543  0.00  0.00    -0.169 F 
ENDBRANCH  25  26
ENDBRANCH  22  25
BRANCH  24  30
HETATM   30  C   UNK N   1      26.537  17.254   5.255  0.00  0.00    -0.019 A 
HETATM   31  C   UNK N   1      25.519  16.357   5.588  0.00  0.00     0.012 A 
HETATM   32  C   UNK N   1      24.311  16.353   4.890  0.00  0.00     0.018 A 
HETATM   33  C   UNK N   1      24.109  17.277   3.867  0.00  0.00     0.087 A 
HETATM   34  N   UNK N   1      25.094  18.159   3.547  0.00  0.00    -0.375 N 
HETATM   35  C   UNK N   1      26.290  18.163   4.205  0.00  0.00     0.096 A 
ATOM     36  HN  UNK N   1      24.935  18.833   2.798  1.00  0.00     0.164 HD
ENDBRANCH  24  30
ENDBRANCH  11  14
ENDBRANCH   1  10
TORSDOF 5
ENDMDL
MODEL 8
REMARK VINA RESULT:      -7.4      7.092      9.602
REMARK  5 active torsions:
REMARK  status: ('A' for Active; 'I' for Inactive)
REMARK    1  A    between atoms: C_7  and  C_24 
REMARK    2  A    between atoms: C_8  and  C_17 
REMARK    3  A    between atoms: N_9  and  C_12 
REMARK    4  A    between atoms: C_12  and  C_13 
REMARK       I    between atoms: C_24  and  N_26 
REMARK    5  A    between atoms: N_26  and  C_27 
ROOT
HETATM    1  C   UNK N   1      34.002  16.015   6.396  0.00  0.00     0.036 C 
HETATM    2  C   UNK N   1      34.139  14.627   6.265  0.00  0.00     0.032 C 
HETATM    3  C   UNK N   1      34.437  13.851   7.376  0.00  0.00     0.046 C 
HETATM    4  C   UNK N   1      34.657  14.467   8.608  0.00  0.00     0.137 C 
HETATM    5  C   UNK N   1      34.667  15.872   8.693  0.00  0.00     0.085 C 
HETATM    6  C   UNK N   1      34.275  16.635   7.602  0.00  0.00     0.055 C 
HETATM    7  C   UNK N   1      35.144  16.561   9.853  0.00  0.00     0.102 C 
HETATM    8  N   UNK N   1      35.521  17.162  10.766  0.00  0.00    -0.191 NA
HETATM    9  F   UNK N   1      34.879  13.695   9.698  0.00  0.00    -0.204 F 
ENDROOT
BRANCH   1  10
HETATM   10  N   UNK N   1      33.397  16.731   5.358  0.00  0.00    -0.326 N 
HETATM   11  C   UNK N   1      32.069  16.866   5.292  0.00  0.00     0.233 C 
HETATM   12  O   UNK N   1      31.611  17.901   4.823  0.00  0.00    -0.272 OA
HETATM   13  H   UNK N   1      33.961  17.143   4.663  0.00  0.00     0.169 HD
BRANCH  11  14
HETATM   14  C   UNK N   1      31.151  15.785   5.857  0.00  0.00     0.139 C 
HETATM   15  C   UNK N   1      30.297  16.503   6.829  0.00  0.00    -0.027 A 
HETATM   16  C   UNK N   1      29.056  17.000   6.414  0.00  0.00     0.039 A 
HETATM   17  C   UNK N   1      30.926  17.012   7.974  0.00  0.00     0.009 A 
HETATM   18  C   UNK N   1      28.508  18.090   7.105  0.00  0.00     0.017 A 
HETATM   19  C   UNK N   1      28.431  16.546   5.142  0.00  0.00     0.255 C 
HETATM   20  C   UNK N   1      29.172  18.642   8.206  0.00  0.00     0.001 A 
HETATM   21  C   UNK N   1      30.357  18.070   8.670  0.00  0.00     0.001 A 
HETATM   22  N   UNK N   1      29.075  15.677   4.305  0.00  0.00    -0.329 N 
HETATM   23  O   UNK N   1      27.369  17.047   4.799  0.00  0.00    -0.267 OA
HETATM   24  C   UNK N   1      30.352  15.065   4.724  0.00  0.00     0.140 C 
BRANCH  22  25
HETATM   25  C   UNK N   1      28.735  15.760   2.895  0.00  0.00     0.244 C 
BRANCH  25  26
HETATM   26  C   UNK N   1      27.828  14.823   2.083  0.00  0.00     0.403 C 
HETATM   27  F   UNK N   1      26.694  15.253   1.405  0.00  0.00    -0.169 F 
HETATM   28  F   UNK N   1      27.487  13.770   2.908  0.00  0.00    -0.169 F 
HETATM   29  F   UNK N   1      28.705  14.375   1.123  0.00  0.00    -0.169 F 
ENDBRANCH  25  26
ENDBRANCH  22  25
BRANCH  24  30
HETATM   30  C   UNK N   1      31.118  14.122   3.782  0.00  0.00    -0.019 A 
HETATM   31  C   UNK N   1      30.680  12.798   3.698  0.00  0.00     0.012 A 
HETATM   32  C   UNK N   1      31.270  11.903   2.804  0.00  0.00     0.018 A 
HETATM   33  C   UNK N   1      32.290  12.348   1.965  0.00  0.00     0.087 A 
HETATM   34  N   UNK N   1      32.712  13.639   2.038  0.00  0.00    -0.375 N 
HETATM   35  C   UNK N   1      32.160  14.522   2.921  0.00  0.00     0.096 A 
ATOM     36  HN  UNK N   1      33.458  13.955   1.417  1.00  0.00     0.164 HD
ENDBRANCH  24  30
ENDBRANCH  11  14
ENDBRANCH   1  10
TORSDOF 5
ENDMDL
MODEL 9
REMARK VINA RESULT:      -7.4      8.752     11.505
REMARK  5 active torsions:
REMARK  status: ('A' for Active; 'I' for Inactive)
REMARK    1  A    between atoms: C_7  and  C_24 
REMARK    2  A    between atoms: C_8  and  C_17 
REMARK    3  A    between atoms: N_9  and  C_12 
REMARK    4  A    between atoms: C_12  and  C_13 
REMARK       I    between atoms: C_24  and  N_26 
REMARK    5  A    between atoms: N_26  and  C_27 
ROOT
HETATM    1  C   UNK N   1      34.880  16.195   8.989  0.00  0.00     0.036 C 
HETATM    2  C   UNK N   1      34.890  16.713  10.290  0.00  0.00     0.032 C 
HETATM    3  C   UNK N   1      35.494  15.999  11.316  0.00  0.00     0.046 C 
HETATM    4  C   UNK N   1      36.036  14.741  11.054  0.00  0.00     0.137 C 
HETATM    5  C   UNK N   1      35.883  14.169   9.777  0.00  0.00     0.085 C 
HETATM    6  C   UNK N   1      35.366  14.925   8.736  0.00  0.00     0.055 C 
HETATM    7  C   UNK N   1      36.176  12.791   9.522  0.00  0.00     0.102 C 
HETATM    8  N   UNK N   1      36.397  11.685   9.267  0.00  0.00    -0.191 NA
HETATM    9  F   UNK N   1      36.682  14.085  12.047  0.00  0.00    -0.204 F 
ENDROOT
BRANCH   1  10
HETATM   10  N   UNK N   1      34.563  17.051   7.928  0.00  0.00    -0.326 N 
HETATM   11  C   UNK N   1      33.306  17.174   7.490  0.00  0.00     0.233 C 
HETATM   12  O   UNK N   1      32.945  18.261   7.055  0.00  0.00    -0.272 OA
HETATM   13  H   UNK N   1      35.279  17.571   7.497  0.00  0.00     0.169 HD
BRANCH  11  14
HETATM   14  C   UNK N   1      32.328  16.007   7.600  0.00  0.00     0.139 C 
HETATM   15  C   UNK N   1      31.032  16.645   7.921  0.00  0.00    -0.027 A 
HETATM   16  C   UNK N   1      30.153  16.968   6.880  0.00  0.00     0.039 A 
HETATM   17  C   UNK N   1      30.922  17.268   9.172  0.00  0.00     0.009 A 
HETATM   18  C   UNK N   1      29.230  18.003   7.084  0.00  0.00     0.017 A 
HETATM   19  C   UNK N   1      30.329  16.396   5.518  0.00  0.00     0.255 C 
HETATM   20  C   UNK N   1      29.168  18.672   8.311  0.00  0.00     0.001 A 
HETATM   21  C   UNK N   1      29.981  18.269   9.371  0.00  0.00     0.001 A 
HETATM   22  N   UNK N   1      31.390  15.586   5.219  0.00  0.00    -0.329 N 
HETATM   23  O   UNK N   1      29.563  16.747   4.631  0.00  0.00    -0.267 OA
HETATM   24  C   UNK N   1      32.308  15.154   6.292  0.00  0.00     0.140 C 
BRANCH  22  25
HETATM   25  C   UNK N   1      31.831  15.577   3.835  0.00  0.00     0.244 C 
BRANCH  25  26
HETATM   26  C   UNK N   1      32.685  16.627   3.108  0.00  0.00     0.403 C 
HETATM   27  F   UNK N   1      33.782  16.308   2.316  0.00  0.00    -0.169 F 
HETATM   28  F   UNK N   1      33.065  17.565   4.046  0.00  0.00    -0.169 F 
HETATM   29  F   UNK N   1      31.753  17.187   2.266  0.00  0.00    -0.169 F 
ENDBRANCH  25  26
ENDBRANCH  22  25
BRANCH  24  30
HETATM   30  C   UNK N   1      33.534  14.282   5.974  0.00  0.00    -0.019 A 
HETATM   31  C   UNK N   1      34.599  14.885   5.301  0.00  0.00     0.012 A 
HETATM   32  C   UNK N   1      35.779  14.183   5.050  0.00  0.00     0.018 A 
HETATM   33  C   UNK N   1      35.903  12.872   5.506  0.00  0.00     0.087 A 
HETATM   34  N   UNK N   1      34.871  12.285   6.170  0.00  0.00    -0.375 N 
HETATM   35  C   UNK N   1      33.703  12.950   6.405  0.00  0.00     0.096 A 
ATOM     36  HN  UNK N   1      34.974  11.325   6.501  1.00  0.00     0.164 HD
ENDBRANCH  24  30
ENDBRANCH  11  14
ENDBRANCH   1  10
TORSDOF 5
ENDMDL
