MODEL 1
REMARK VINA RESULT:      -7.1      0.000      0.000
REMARK  4 active torsions:
REMARK  status: ('A' for Active; 'I' for Inactive)
REMARK    1  A    between atoms: C_1  and  C_17 
REMARK    2  A    between atoms: C_17  and  C_18 
REMARK    3  A    between atoms: C_17  and  C_22 
REMARK    4  A    between atoms: C_17  and  C_26 
ROOT
HETATM    1  C   UNK N   1      27.974  25.783  -5.513  0.00  0.00     0.279 C 
HETATM    2  C   UNK N   1      27.458  24.308  -5.794  0.00  0.00     0.357 C 
HETATM    3  C   UNK N   1      28.591  23.358  -6.255  0.00  0.00     0.382 C 
HETATM    4  C   UNK N   1      29.725  23.285  -5.230  0.00  0.00     0.384 C 
HETATM    5  C   UNK N   1      30.272  24.688  -4.946  0.00  0.00     0.382 C 
HETATM    6  C   UNK N   1      29.158  25.649  -4.467  0.00  0.00     0.357 C 
HETATM    7  F   UNK N   1      29.795  26.847  -4.240  0.00  0.00    -0.195 F 
HETATM    8  F   UNK N   1      28.682  25.172  -3.257  0.00  0.00    -0.195 F 
HETATM    9  F   UNK N   1      31.251  24.594  -3.970  0.00  0.00    -0.192 F 
HETATM   10  F   UNK N   1      30.867  25.199  -6.089  0.00  0.00    -0.192 F 
HETATM   11  F   UNK N   1      30.740  22.484  -5.725  0.00  0.00    -0.192 F 
HETATM   12  F   UNK N   1      29.259  22.713  -4.056  0.00  0.00    -0.192 F 
HETATM   13  F   UNK N   1      28.075  22.087  -6.446  0.00  0.00    -0.192 F 
HETATM   14  F   UNK N   1      29.092  23.794  -7.473  0.00  0.00    -0.192 F 
HETATM   15  F   UNK N   1      26.544  24.270  -6.826  0.00  0.00    -0.195 F 
HETATM   16  F   UNK N   1      26.873  23.760  -4.666  0.00  0.00    -0.195 F 
HETATM   17  F   UNK N   1      28.544  26.200  -6.707  0.00  0.00    -0.227 F 
ENDROOT
BRANCH   1  18
HETATM   18  C   UNK N   1      26.819  26.902  -5.157  0.00  0.00     0.298 C 
BRANCH  18  19
HETATM   19  C   UNK N   1      27.269  28.356  -5.617  0.00  0.00     0.416 C 
HETATM   20  F   UNK N   1      26.481  29.342  -5.048  0.00  0.00    -0.169 F 
HETATM   21  F   UNK N   1      27.171  28.503  -6.989  0.00  0.00    -0.169 F 
HETATM   22  F   UNK N   1      28.554  28.675  -5.238  0.00  0.00    -0.169 F 
ENDBRANCH  18  19
BRANCH  18  23
HETATM   23  C   UNK N   1      25.485  26.589  -5.948  0.00  0.00     0.416 C 
HETATM   24  F   UNK N   1      24.820  25.497  -5.423  0.00  0.00    -0.169 F 
HETATM   25  F   UNK N   1      24.575  27.630  -5.884  0.00  0.00    -0.169 F 
HETATM   26  F   UNK N   1      25.748  26.361  -7.289  0.00  0.00    -0.169 F 
ENDBRANCH  18  23
BRANCH  18  27
HETATM   27  C   UNK N   1      26.450  26.993  -3.629  0.00  0.00     0.416 C 
HETATM   28  F   UNK N   1      27.398  27.700  -2.915  0.00  0.00    -0.169 F 
HETATM   29  F   UNK N   1      25.246  27.657  -3.452  0.00  0.00    -0.169 F 
HETATM   30  F   UNK N   1      26.306  25.750  -3.051  0.00  0.00    -0.169 F 
ENDBRANCH  18  27
ENDBRANCH   1  18
TORSDOF 4
ENDMDL
MODEL 2
REMARK VINA RESULT:      -7.1     13.239     16.139
REMARK  4 active torsions:
REMARK  status: ('A' for Active; 'I' for Inactive)
REMARK    1  A    between atoms: C_1  and  C_17 
REMARK    2  A    between atoms: C_17  and  C_18 
REMARK    3  A    between atoms: C_17  and  C_22 
REMARK    4  A    between atoms: C_17  and  C_26 
ROOT
HETATM    1  C   UNK N   1      32.701  16.495   6.038  0.00  0.00     0.279 C 
HETATM    2  C   UNK N   1      31.137  16.770   6.028  0.00  0.00     0.357 C 
HETATM    3  C   UNK N   1      30.616  17.195   4.634  0.00  0.00     0.382 C 
HETATM    4  C   UNK N   1      30.927  16.145   3.565  0.00  0.00     0.384 C 
HETATM    5  C   UNK N   1      32.434  15.866   3.521  0.00  0.00     0.382 C 
HETATM    6  C   UNK N   1      32.972  15.423   4.902  0.00  0.00     0.357 C 
HETATM    7  F   UNK N   1      34.315  15.196   4.704  0.00  0.00    -0.195 F 
HETATM    8  F   UNK N   1      32.370  14.217   5.222  0.00  0.00    -0.195 F 
HETATM    9  F   UNK N   1      32.674  14.869   2.591  0.00  0.00    -0.192 F 
HETATM   10  F   UNK N   1      33.108  17.003   3.102  0.00  0.00    -0.192 F 
HETATM   11  F   UNK N   1      30.507  16.609   2.329  0.00  0.00    -0.192 F 
HETATM   12  F   UNK N   1      30.238  14.975   3.842  0.00  0.00    -0.192 F 
HETATM   13  F   UNK N   1      29.245  17.382   4.694  0.00  0.00    -0.192 F 
HETATM   14  F   UNK N   1      31.188  18.407   4.276  0.00  0.00    -0.192 F 
HETATM   15  F   UNK N   1      30.793  17.820   6.853  0.00  0.00    -0.195 F 
HETATM   16  F   UNK N   1      30.431  15.648   6.425  0.00  0.00    -0.195 F 
HETATM   17  F   UNK N   1      33.279  17.682   5.611  0.00  0.00    -0.227 F 
ENDROOT
BRANCH   1  18
HETATM   18  C   UNK N   1      33.375  16.177   7.507  0.00  0.00     0.298 C 
BRANCH  18  19
HETATM   19  C   UNK N   1      34.743  15.383   7.350  0.00  0.00     0.416 C 
HETATM   20  F   UNK N   1      35.511  15.448   8.501  0.00  0.00    -0.169 F 
HETATM   21  F   UNK N   1      35.511  15.901   6.323  0.00  0.00    -0.169 F 
HETATM   22  F   UNK N   1      34.569  14.036   7.123  0.00  0.00    -0.169 F 
ENDBRANCH  18  19
BRANCH  18  23
HETATM   23  C   UNK N   1      33.739  17.527   8.251  0.00  0.00     0.416 C 
HETATM   24  F   UNK N   1      34.819  18.161   7.666  0.00  0.00    -0.169 F 
HETATM   25  F   UNK N   1      32.709  18.450   8.204  0.00  0.00    -0.169 F 
HETATM   26  F   UNK N   1      34.016  17.294   9.588  0.00  0.00    -0.169 F 
ENDBRANCH  18  23
BRANCH  18  27
HETATM   27  C   UNK N   1      32.460  15.338   8.475  0.00  0.00     0.416 C 
HETATM   28  F   UNK N   1      31.916  14.239   7.838  0.00  0.00    -0.169 F 
HETATM   29  F   UNK N   1      33.192  14.852   9.547  0.00  0.00    -0.169 F 
HETATM   30  F   UNK N   1      31.432  16.089   9.004  0.00  0.00    -0.169 F 
ENDBRANCH  18  27
ENDBRANCH   1  18
TORSDOF 4
ENDMDL
MODEL 3
REMARK VINA RESULT:      -7.1      0.128      2.208
REMARK  4 active torsions:
REMARK  status: ('A' for Active; 'I' for Inactive)
REMARK    1  A    between atoms: C_1  and  C_17 
REMARK    2  A    between atoms: C_17  and  C_18 
REMARK    3  A    between atoms: C_17  and  C_22 
REMARK    4  A    between atoms: C_17  and  C_26 
ROOT
HETATM    1  C   UNK N   1      28.006  25.775  -5.498  0.00  0.00     0.279 C 
HETATM    2  C   UNK N   1      27.534  24.289  -5.799  0.00  0.00     0.357 C 
HETATM    3  C   UNK N   1      28.710  23.356  -6.179  0.00  0.00     0.382 C 
HETATM    4  C   UNK N   1      29.776  23.309  -5.082  0.00  0.00     0.384 C 
HETATM    5  C   UNK N   1      30.281  24.724  -4.775  0.00  0.00     0.382 C 
HETATM    6  C   UNK N   1      29.122  25.669  -4.377  0.00  0.00     0.357 C 
HETATM    7  F   UNK N   1      29.723  26.879  -4.119  0.00  0.00    -0.195 F 
HETATM    8  F   UNK N   1      28.578  25.193  -3.196  0.00  0.00    -0.195 F 
HETATM    9  F   UNK N   1      31.196  24.654  -3.737  0.00  0.00    -0.192 F 
HETATM   10  F   UNK N   1      30.940  25.236  -5.882  0.00  0.00    -0.192 F 
HETATM   11  F   UNK N   1      30.835  22.522  -5.504  0.00  0.00    -0.192 F 
HETATM   12  F   UNK N   1      29.246  22.738  -3.936  0.00  0.00    -0.192 F 
HETATM   13  F   UNK N   1      28.228  22.075  -6.392  0.00  0.00    -0.192 F 
HETATM   14  F   UNK N   1      29.282  23.791  -7.365  0.00  0.00    -0.192 F 
HETATM   15  F   UNK N   1      26.689  24.228  -6.887  0.00  0.00    -0.195 F 
HETATM   16  F   UNK N   1      26.887  23.739  -4.707  0.00  0.00    -0.195 F 
HETATM   17  F   UNK N   1      28.645  26.193  -6.656  0.00  0.00    -0.227 F 
ENDROOT
BRANCH   1  18
HETATM   18  C   UNK N   1      26.812  26.877  -5.226  0.00  0.00     0.298 C 
BRANCH  18  19
HETATM   19  C   UNK N   1      26.475  26.985  -3.676  0.00  0.00     0.416 C 
HETATM   20  F   UNK N   1      25.268  27.628  -3.457  0.00  0.00    -0.169 F 
HETATM   21  F   UNK N   1      27.443  27.704  -2.999  0.00  0.00    -0.169 F 
HETATM   22  F   UNK N   1      26.335  25.761  -3.061  0.00  0.00    -0.169 F 
ENDBRANCH  18  19
BRANCH  18  23
HETATM   23  C   UNK N   1      27.283  28.321  -5.671  0.00  0.00     0.416 C 
HETATM   24  F   UNK N   1      26.525  29.314  -5.078  0.00  0.00    -0.169 F 
HETATM   25  F   UNK N   1      28.587  28.591  -5.296  0.00  0.00    -0.169 F 
HETATM   26  F   UNK N   1      27.219  28.459  -7.048  0.00  0.00    -0.169 F 
ENDBRANCH  18  23
BRANCH  18  27
HETATM   27  C   UNK N   1      25.461  26.570  -5.974  0.00  0.00     0.416 C 
HETATM   28  F   UNK N   1      24.810  25.482  -5.427  0.00  0.00    -0.169 F 
HETATM   29  F   UNK N   1      24.589  27.643  -5.876  0.00  0.00    -0.169 F 
HETATM   30  F   UNK N   1      25.651  26.335  -7.319  0.00  0.00    -0.169 F 
ENDBRANCH  18  27
ENDBRANCH   1  18
TORSDOF 4
ENDMDL
MODEL 4
REMARK VINA RESULT:      -7.0     22.127     24.846
REMARK  4 active torsions:
REMARK  status: ('A' for Active; 'I' for Inactive)
REMARK    1  A    between atoms: C_1  and  C_17 
REMARK    2  A    between atoms: C_17  and  C_18 
REMARK    3  A    between atoms: C_17  and  C_22 
REMARK    4  A    between atoms: C_17  and  C_26 
ROOT
HETATM    1  C   UNK N   1      35.531  12.000  13.391  0.00  0.00     0.279 C 
HETATM    2  C   UNK N   1      36.281  11.306  12.175  0.00  0.00     0.357 C 
HETATM    3  C   UNK N   1      36.036  12.033  10.830  0.00  0.00     0.382 C 
HETATM    4  C   UNK N   1      36.470  13.500  10.889  0.00  0.00     0.384 C 
HETATM    5  C   UNK N   1      35.750  14.219  12.036  0.00  0.00     0.382 C 
HETATM    6  C   UNK N   1      35.996  13.517  13.392  0.00  0.00     0.357 C 
HETATM    7  F   UNK N   1      35.310  14.274  14.314  0.00  0.00    -0.195 F 
HETATM    8  F   UNK N   1      37.348  13.607  13.675  0.00  0.00    -0.195 F 
HETATM    9  F   UNK N   1      36.211  15.523  12.102  0.00  0.00    -0.192 F 
HETATM   10  F   UNK N   1      34.389  14.267  11.776  0.00  0.00    -0.192 F 
HETATM   11  F   UNK N   1      36.161  14.119   9.689  0.00  0.00    -0.192 F 
HETATM   12  F   UNK N   1      37.842  13.576  11.071  0.00  0.00    -0.192 F 
HETATM   13  F   UNK N   1      36.747  11.395   9.828  0.00  0.00    -0.192 F 
HETATM   14  F   UNK N   1      34.691  11.959  10.502  0.00  0.00    -0.192 F 
HETATM   15  F   UNK N   1      35.825  10.023  11.954  0.00  0.00    -0.195 F 
HETATM   16  F   UNK N   1      37.647  11.257  12.393  0.00  0.00    -0.195 F 
HETATM   17  F   UNK N   1      34.190  11.996  13.037  0.00  0.00    -0.227 F 
ENDROOT
BRANCH   1  18
HETATM   18  C   UNK N   1      35.612  11.219  14.838  0.00  0.00     0.298 C 
BRANCH  18  19
HETATM   19  C   UNK N   1      35.239  12.193  16.037  0.00  0.00     0.416 C 
HETATM   20  F   UNK N   1      34.983  11.496  17.206  0.00  0.00    -0.169 F 
HETATM   21  F   UNK N   1      34.105  12.932  15.751  0.00  0.00    -0.169 F 
HETATM   22  F   UNK N   1      36.253  13.066  16.367  0.00  0.00    -0.169 F 
ENDBRANCH  18  19
BRANCH  18  23
HETATM   23  C   UNK N   1      34.554  10.042  14.889  0.00  0.00     0.416 C 
HETATM   24  F   UNK N   1      33.261  10.518  14.991  0.00  0.00    -0.169 F 
HETATM   25  F   UNK N   1      34.566   9.271  13.740  0.00  0.00    -0.169 F 
HETATM   26  F   UNK N   1      34.813   9.192  15.952  0.00  0.00    -0.169 F 
ENDBRANCH  18  23
BRANCH  18  27
HETATM   27  C   UNK N   1      37.022  10.599  15.165  0.00  0.00     0.416 C 
HETATM   28  F   UNK N   1      38.047  11.477  14.870  0.00  0.00    -0.169 F 
HETATM   29  F   UNK N   1      37.130  10.306  16.516  0.00  0.00    -0.169 F 
HETATM   30  F   UNK N   1      37.246   9.421  14.484  0.00  0.00    -0.169 F 
ENDBRANCH  18  27
ENDBRANCH   1  18
TORSDOF 4
ENDMDL
MODEL 5
REMARK VINA RESULT:      -6.9     13.223     16.105
REMARK  4 active torsions:
REMARK  status: ('A' for Active; 'I' for Inactive)
REMARK    1  A    between atoms: C_1  and  C_17 
REMARK    2  A    between atoms: C_17  and  C_18 
REMARK    3  A    between atoms: C_17  and  C_22 
REMARK    4  A    between atoms: C_17  and  C_26 
ROOT
HETATM    1  C   UNK N   1      32.751  16.494   6.002  0.00  0.00     0.279 C 
HETATM    2  C   UNK N   1      31.188  16.779   6.002  0.00  0.00     0.357 C 
HETATM    3  C   UNK N   1      30.659  17.202   4.610  0.00  0.00     0.382 C 
HETATM    4  C   UNK N   1      30.955  16.145   3.544  0.00  0.00     0.384 C 
HETATM    5  C   UNK N   1      32.460  15.855   3.490  0.00  0.00     0.382 C 
HETATM    6  C   UNK N   1      33.006  15.414   4.869  0.00  0.00     0.357 C 
HETATM    7  F   UNK N   1      34.345  15.178   4.662  0.00  0.00    -0.195 F 
HETATM    8  F   UNK N   1      32.398  14.215   5.199  0.00  0.00    -0.195 F 
HETATM    9  F   UNK N   1      32.686  14.851   2.562  0.00  0.00    -0.192 F 
HETATM   10  F   UNK N   1      33.139  16.985   3.060  0.00  0.00    -0.192 F 
HETATM   11  F   UNK N   1      30.529  16.605   2.309  0.00  0.00    -0.192 F 
HETATM   12  F   UNK N   1      30.261  14.980   3.832  0.00  0.00    -0.192 F 
HETATM   13  F   UNK N   1      29.290  17.398   4.680  0.00  0.00    -0.192 F 
HETATM   14  F   UNK N   1      31.237  18.408   4.242  0.00  0.00    -0.192 F 
HETATM   15  F   UNK N   1      30.858  17.836   6.825  0.00  0.00    -0.195 F 
HETATM   16  F   UNK N   1      30.477  15.664   6.410  0.00  0.00    -0.195 F 
HETATM   17  F   UNK N   1      33.333  17.674   5.564  0.00  0.00    -0.227 F 
ENDROOT
BRANCH   1  18
HETATM   18  C   UNK N   1      33.433  16.178   7.467  0.00  0.00     0.298 C 
BRANCH  18  19
HETATM   19  C   UNK N   1      33.756  17.523   8.250  0.00  0.00     0.416 C 
HETATM   20  F   UNK N   1      34.872  18.162   7.736  0.00  0.00    -0.169 F 
HETATM   21  F   UNK N   1      34.013  17.278   9.587  0.00  0.00    -0.169 F 
HETATM   22  F   UNK N   1      32.749  18.459   8.167  0.00  0.00    -0.169 F 
ENDBRANCH  18  19
BRANCH  18  23
HETATM   23  C   UNK N   1      32.425  15.372   8.384  0.00  0.00     0.416 C 
HETATM   24  F   UNK N   1      31.842  14.319   7.704  0.00  0.00    -0.169 F 
HETATM   25  F   UNK N   1      33.049  14.796   9.476  0.00  0.00    -0.169 F 
HETATM   26  F   UNK N   1      31.432  16.204   8.874  0.00  0.00    -0.169 F 
ENDBRANCH  18  23
BRANCH  18  27
HETATM   27  C   UNK N   1      34.771  15.350   7.397  0.00  0.00     0.416 C 
HETATM   28  F   UNK N   1      34.531  14.014   7.139  0.00  0.00    -0.169 F 
HETATM   29  F   UNK N   1      35.583  15.811   6.373  0.00  0.00    -0.169 F 
HETATM   30  F   UNK N   1      35.506  15.446   8.560  0.00  0.00    -0.169 F 
ENDBRANCH  18  27
ENDBRANCH   1  18
TORSDOF 4
ENDMDL
MODEL 6
REMARK VINA RESULT:      -6.8     12.125     14.778
REMARK  4 active torsions:
REMARK  status: ('A' for Active; 'I' for Inactive)
REMARK    1  A    between atoms: C_1  and  C_17 
REMARK    2  A    between atoms: C_17  and  C_18 
REMARK    3  A    between atoms: C_17  and  C_22 
REMARK    4  A    between atoms: C_17  and  C_26 
ROOT
HETATM    1  C   UNK N   1      30.505  16.842   4.798  0.00  0.00     0.279 C 
HETATM    2  C   UNK N   1      29.830  16.660   6.224  0.00  0.00     0.357 C 
HETATM    3  C   UNK N   1      28.460  17.373   6.330  0.00  0.00     0.382 C 
HETATM    4  C   UNK N   1      27.477  16.879   5.266  0.00  0.00     0.384 C 
HETATM    5  C   UNK N   1      28.078  17.058   3.867  0.00  0.00     0.382 C 
HETATM    6  C   UNK N   1      29.441  16.339   3.735  0.00  0.00     0.357 C 
HETATM    7  F   UNK N   1      29.843  16.573   2.440  0.00  0.00    -0.195 F 
HETATM    8  F   UNK N   1      29.217  14.980   3.882  0.00  0.00    -0.195 F 
HETATM    9  F   UNK N   1      27.193  16.544   2.934  0.00  0.00    -0.192 F 
HETATM   10  F   UNK N   1      28.236  18.409   3.596  0.00  0.00    -0.192 F 
HETATM   11  F   UNK N   1      26.298  17.599   5.359  0.00  0.00    -0.192 F 
HETATM   12  F   UNK N   1      27.182  15.542   5.485  0.00  0.00    -0.192 F 
HETATM   13  F   UNK N   1      27.918  17.141   7.583  0.00  0.00    -0.192 F 
HETATM   14  F   UNK N   1      28.639  18.742   6.198  0.00  0.00    -0.192 F 
HETATM   15  F   UNK N   1      30.586  17.230   7.228  0.00  0.00    -0.195 F 
HETATM   16  F   UNK N   1      29.640  15.322   6.520  0.00  0.00    -0.195 F 
HETATM   17  F   UNK N   1      30.621  18.214   4.626  0.00  0.00    -0.227 F 
ENDROOT
BRANCH   1  18
HETATM   18  C   UNK N   1      32.030  16.243   4.633  0.00  0.00     0.298 C 
BRANCH  18  19
HETATM   19  C   UNK N   1      32.408  16.054   3.101  0.00  0.00     0.416 C 
HETATM   20  F   UNK N   1      33.775  15.916   2.922  0.00  0.00    -0.169 F 
HETATM   21  F   UNK N   1      32.011  17.142   2.346  0.00  0.00    -0.169 F 
HETATM   22  F   UNK N   1      31.867  14.918   2.541  0.00  0.00    -0.169 F 
ENDBRANCH  18  19
BRANCH  18  23
HETATM   23  C   UNK N   1      33.090  17.262   5.220  0.00  0.00     0.416 C 
HETATM   24  F   UNK N   1      33.282  18.344   4.381  0.00  0.00    -0.169 F 
HETATM   25  F   UNK N   1      32.686  17.808   6.425  0.00  0.00    -0.169 F 
HETATM   26  F   UNK N   1      34.306  16.636   5.443  0.00  0.00    -0.169 F 
ENDBRANCH  18  23
BRANCH  18  27
HETATM   27  C   UNK N   1      32.266  14.857   5.343  0.00  0.00     0.416 C 
HETATM   28  F   UNK N   1      31.240  13.969   5.083  0.00  0.00    -0.169 F 
HETATM   29  F   UNK N   1      33.430  14.261   4.886  0.00  0.00    -0.169 F 
HETATM   30  F   UNK N   1      32.396  14.987   6.710  0.00  0.00    -0.169 F 
ENDBRANCH  18  27
ENDBRANCH   1  18
TORSDOF 4
ENDMDL
MODEL 7
REMARK VINA RESULT:      -6.8     22.022     24.795
REMARK  4 active torsions:
REMARK  status: ('A' for Active; 'I' for Inactive)
REMARK    1  A    between atoms: C_1  and  C_17 
REMARK    2  A    between atoms: C_17  and  C_18 
REMARK    3  A    between atoms: C_17  and  C_22 
REMARK    4  A    between atoms: C_17  and  C_26 
ROOT
HETATM    1  C   UNK N   1      35.518  11.746  13.079  0.00  0.00     0.279 C 
HETATM    2  C   UNK N   1      36.343  11.241  11.818  0.00  0.00     0.357 C 
HETATM    3  C   UNK N   1      36.152  12.149  10.579  0.00  0.00     0.382 C 
HETATM    4  C   UNK N   1      36.553  13.598  10.868  0.00  0.00     0.384 C 
HETATM    5  C   UNK N   1      35.762  14.137  12.065  0.00  0.00     0.382 C 
HETATM    6  C   UNK N   1      35.952  13.252  13.320  0.00  0.00     0.357 C 
HETATM    7  F   UNK N   1      35.205  13.862  14.301  0.00  0.00    -0.195 F 
HETATM    8  F   UNK N   1      37.286  13.319  13.683  0.00  0.00    -0.195 F 
HETATM    9  F   UNK N   1      36.192  15.424  12.339  0.00  0.00    -0.192 F 
HETATM   10  F   UNK N   1      34.415  14.204  11.742  0.00  0.00    -0.192 F 
HETATM   11  F   UNK N   1      36.293  14.377   9.753  0.00  0.00    -0.192 F 
HETATM   12  F   UNK N   1      37.912  13.665  11.132  0.00  0.00    -0.192 F 
HETATM   13  F   UNK N   1      36.926  11.669   9.536  0.00  0.00    -0.192 F 
HETATM   14  F   UNK N   1      34.827  12.106  10.173  0.00  0.00    -0.192 F 
HETATM   15  F   UNK N   1      35.924   9.997  11.394  0.00  0.00    -0.195 F 
HETATM   16  F   UNK N   1      37.696  11.179  12.100  0.00  0.00    -0.195 F 
HETATM   17  F   UNK N   1      34.197  11.775  12.658  0.00  0.00    -0.227 F 
ENDROOT
BRANCH   1  18
HETATM   18  C   UNK N   1      35.541  10.767  14.403  0.00  0.00     0.298 C 
BRANCH  18  19
HETATM   19  C   UNK N   1      36.785  11.095  15.337  0.00  0.00     0.416 C 
HETATM   20  F   UNK N   1      37.020  10.085  16.254  0.00  0.00    -0.169 F 
HETATM   21  F   UNK N   1      36.579  12.256  16.060  0.00  0.00    -0.169 F 
HETATM   22  F   UNK N   1      37.969  11.220  14.645  0.00  0.00    -0.169 F 
ENDBRANCH  18  19
BRANCH  18  23
HETATM   23  C   UNK N   1      34.254  11.011  15.291  0.00  0.00     0.416 C 
HETATM   24  F   UNK N   1      34.391  10.467  16.555  0.00  0.00    -0.169 F 
HETATM   25  F   UNK N   1      34.004  12.355  15.502  0.00  0.00    -0.169 F 
HETATM   26  F   UNK N   1      33.127  10.478  14.685  0.00  0.00    -0.169 F 
ENDBRANCH  18  23
BRANCH  18  27
HETATM   27  C   UNK N   1      35.601   9.228  14.074  0.00  0.00     0.416 C 
HETATM   28  F   UNK N   1      36.867   8.840  13.678  0.00  0.00    -0.169 F 
HETATM   29  F   UNK N   1      35.289   8.473  15.193  0.00  0.00    -0.169 F 
HETATM   30  F   UNK N   1      34.706   8.869  13.090  0.00  0.00    -0.169 F 
ENDBRANCH  18  27
ENDBRANCH   1  18
TORSDOF 4
ENDMDL
MODEL 8
REMARK VINA RESULT:      -6.8     13.242     16.155
REMARK  4 active torsions:
REMARK  status: ('A' for Active; 'I' for Inactive)
REMARK    1  A    between atoms: C_1  and  C_17 
REMARK    2  A    between atoms: C_17  and  C_18 
REMARK    3  A    between atoms: C_17  and  C_22 
REMARK    4  A    between atoms: C_17  and  C_26 
ROOT
HETATM    1  C   UNK N   1      32.346  16.218   6.116  0.00  0.00     0.279 C 
HETATM    2  C   UNK N   1      33.598  17.187   6.234  0.00  0.00     0.357 C 
HETATM    3  C   UNK N   1      33.849  17.663   7.685  0.00  0.00     0.382 C 
HETATM    4  C   UNK N   1      34.058  16.487   8.642  0.00  0.00     0.384 C 
HETATM    5  C   UNK N   1      32.858  15.535   8.581  0.00  0.00     0.382 C 
HETATM    6  C   UNK N   1      32.601  15.034   7.140  0.00  0.00     0.357 C 
HETATM    7  F   UNK N   1      31.520  14.189   7.245  0.00  0.00    -0.195 F 
HETATM    8  F   UNK N   1      33.701  14.287   6.751  0.00  0.00    -0.195 F 
HETATM    9  F   UNK N   1      33.107  14.452   9.408  0.00  0.00    -0.192 F 
HETATM   10  F   UNK N   1      31.726  16.178   9.059  0.00  0.00    -0.192 F 
HETATM   11  F   UNK N   1      34.203  16.965   9.934  0.00  0.00    -0.192 F 
HETATM   12  F   UNK N   1      35.218  15.807   8.304  0.00  0.00    -0.192 F 
HETATM   13  F   UNK N   1      34.972  18.472   7.715  0.00  0.00    -0.192 F 
HETATM   14  F   UNK N   1      32.772  18.426   8.115  0.00  0.00    -0.192 F 
HETATM   15  F   UNK N   1      33.415  18.354   5.522  0.00  0.00    -0.195 F 
HETATM   16  F   UNK N   1      34.751  16.570   5.781  0.00  0.00    -0.195 F 
HETATM   17  F   UNK N   1      31.276  16.948   6.612  0.00  0.00    -0.227 F 
ENDROOT
BRANCH   1  18
HETATM   18  C   UNK N   1      31.911  15.772   4.591  0.00  0.00     0.298 C 
BRANCH  18  19
HETATM   19  C   UNK N   1      30.375  15.369   4.528  0.00  0.00     0.416 C 
HETATM   20  F   UNK N   1      30.008  14.573   5.601  0.00  0.00    -0.169 F 
HETATM   21  F   UNK N   1      30.089  14.654   3.379  0.00  0.00    -0.169 F 
HETATM   22  F   UNK N   1      29.523  16.450   4.589  0.00  0.00    -0.169 F 
ENDBRANCH  18  19
BRANCH  18  23
HETATM   23  C   UNK N   1      32.083  16.988   3.591  0.00  0.00     0.416 C 
HETATM   24  F   UNK N   1      33.396  17.138   3.187  0.00  0.00    -0.169 F 
HETATM   25  F   UNK N   1      31.363  16.816   2.423  0.00  0.00    -0.169 F 
HETATM   26  F   UNK N   1      31.646  18.168   4.170  0.00  0.00    -0.169 F 
ENDBRANCH  18  23
BRANCH  18  27
HETATM   27  C   UNK N   1      32.732  14.562   4.007  0.00  0.00     0.416 C 
HETATM   28  F   UNK N   1      32.314  13.358   4.539  0.00  0.00    -0.169 F 
HETATM   29  F   UNK N   1      32.562  14.469   2.635  0.00  0.00    -0.169 F 
HETATM   30  F   UNK N   1      34.086  14.693   4.232  0.00  0.00    -0.169 F 
ENDBRANCH  18  27
ENDBRANCH   1  18
TORSDOF 4
ENDMDL
MODEL 9
REMARK VINA RESULT:      -6.8      1.573      4.986
REMARK  4 active torsions:
REMARK  status: ('A' for Active; 'I' for Inactive)
REMARK    1  A    between atoms: C_1  and  C_17 
REMARK    2  A    between atoms: C_17  and  C_18 
REMARK    3  A    between atoms: C_17  and  C_22 
REMARK    4  A    between atoms: C_17  and  C_26 
ROOT
HETATM    1  C   UNK N   1      27.624  26.990  -4.869  0.00  0.00     0.279 C 
HETATM    2  C   UNK N   1      26.550  27.970  -4.231  0.00  0.00     0.357 C 
HETATM    3  C   UNK N   1      27.199  29.155  -3.475  0.00  0.00     0.382 C 
HETATM    4  C   UNK N   1      28.119  29.974  -4.384  0.00  0.00     0.384 C 
HETATM    5  C   UNK N   1      29.191  29.071  -5.004  0.00  0.00     0.382 C 
HETATM    6  C   UNK N   1      28.562  27.888  -5.778  0.00  0.00     0.357 C 
HETATM    7  F   UNK N   1      29.632  27.186  -6.284  0.00  0.00    -0.195 F 
HETATM    8  F   UNK N   1      27.846  28.414  -6.840  0.00  0.00    -0.195 F 
HETATM    9  F   UNK N   1      29.966  29.828  -5.867  0.00  0.00    -0.192 F 
HETATM   10  F   UNK N   1      30.025  28.584  -4.008  0.00  0.00    -0.192 F 
HETATM   11  F   UNK N   1      28.729  30.972  -3.642  0.00  0.00    -0.192 F 
HETATM   12  F   UNK N   1      27.374  30.577  -5.385  0.00  0.00    -0.192 F 
HETATM   13  F   UNK N   1      26.205  29.983  -2.980  0.00  0.00    -0.192 F 
HETATM   14  F   UNK N   1      27.922  28.674  -2.394  0.00  0.00    -0.192 F 
HETATM   15  F   UNK N   1      25.781  27.340  -3.275  0.00  0.00    -0.195 F 
HETATM   16  F   UNK N   1      25.710  28.489  -5.201  0.00  0.00    -0.195 F 
HETATM   17  F   UNK N   1      28.399  26.560  -3.801  0.00  0.00    -0.227 F 
ENDROOT
BRANCH   1  18
HETATM   18  C   UNK N   1      27.035  25.621  -5.569  0.00  0.00     0.298 C 
BRANCH  18  19
HETATM   19  C   UNK N   1      28.110  24.965  -6.540  0.00  0.00     0.416 C 
HETATM   20  F   UNK N   1      29.379  24.979  -5.985  0.00  0.00    -0.169 F 
HETATM   21  F   UNK N   1      28.188  25.648  -7.740  0.00  0.00    -0.169 F 
HETATM   22  F   UNK N   1      27.863  23.638  -6.812  0.00  0.00    -0.169 F 
ENDBRANCH  18  19
BRANCH  18  23
HETATM   23  C   UNK N   1      26.720  24.529  -4.468  0.00  0.00     0.416 C 
HETATM   24  F   UNK N   1      27.871  23.916  -4.008  0.00  0.00    -0.169 F 
HETATM   25  F   UNK N   1      26.125  25.070  -3.342  0.00  0.00    -0.169 F 
HETATM   26  F   UNK N   1      25.855  23.565  -4.961  0.00  0.00    -0.169 F 
ENDBRANCH  18  23
BRANCH  18  27
HETATM   27  C   UNK N   1      25.721  25.834  -6.411  0.00  0.00     0.416 C 
HETATM   28  F   UNK N   1      25.442  24.740  -7.208  0.00  0.00    -0.169 F 
HETATM   29  F   UNK N   1      24.626  26.005  -5.578  0.00  0.00    -0.169 F 
HETATM   30  F   UNK N   1      25.790  26.953  -7.212  0.00  0.00    -0.169 F 
ENDBRANCH  18  27
ENDBRANCH   1  18
TORSDOF 4
ENDMDL
