MODEL 1
REMARK VINA RESULT:      -8.0      0.000      0.000
REMARK  3 active torsions:
REMARK  status: ('A' for Active; 'I' for Inactive)
REMARK    1  A    between atoms: C_2  and  N_3 
REMARK    2  A    between atoms: C_9  and  C_12 
REMARK    3  A    between atoms: C_15  and  C_20 
ROOT
HETATM    1  N   UNK N   1      21.877  18.616   3.945  0.00  0.00    -0.300 N 
HETATM    2  C   UNK N   1      21.043  17.563   4.423  0.00  0.00     0.155 A 
HETATM    3  C   UNK N   1      19.811  17.303   3.823  0.00  0.00     0.146 A 
HETATM    4  N   UNK N   1      19.033  16.290   4.294  0.00  0.00    -0.347 N 
ATOM      5  HN  UNK N   1      18.139  16.094   3.845  1.00  0.00     0.167 HD
HETATM    6  C   UNK N   1      19.431  15.535   5.356  0.00  0.00     0.120 A 
HETATM    7  C   UNK N   1      20.662  15.799   5.975  0.00  0.00     0.061 A 
HETATM    8  N   UNK N   1      21.432  16.803   5.479  0.00  0.00    -0.337 N 
ATOM      9  HN  UNK N   1      22.334  16.993   5.915  1.00  0.00     0.167 HD
HETATM   10  N   UNK N   1      19.372  18.091   2.737  0.00  0.00    -0.364 N 
HETATM   11  C   UNK N   1      20.148  19.196   2.211  0.00  0.00     0.224 A 
HETATM   12  C   UNK N   1      21.477  19.403   2.902  0.00  0.00     0.243 A 
HETATM   13  O   UNK N   1      22.200  20.305   2.505  0.00  0.00    -0.271 OA
HETATM   14  H   UNK N   1      18.506  17.882   2.321  0.00  0.00     0.161 HD
ENDROOT
BRANCH   7  15
HETATM   15  C   UNK N   1      21.111  15.030   7.175  0.00  0.00     0.014 A 
HETATM   16  C   UNK N   1      21.904  13.882   7.004  0.00  0.00     0.018 A 
HETATM   17  C   UNK N   1      22.318  13.133   8.107  0.00  0.00     0.034 A 
HETATM   18  C   UNK N   1      21.933  13.532   9.389  0.00  0.00     0.078 A 
HETATM   19  N   UNK N   1      21.169  14.641   9.546  0.00  0.00    -0.356 N 
HETATM   20  C   UNK N   1      20.750  15.396   8.500  0.00  0.00     0.018 A 
ATOM     21  HN  UNK N   1      20.897  14.919  10.490  1.00  0.00     0.166 HD
HETATM   22  C   UNK N   1      19.910  16.587   8.812  0.00  0.00     0.069 C 
BRANCH  18  23
HETATM   23  C   UNK N   1      22.338  12.777  10.581  0.00  0.00     0.148 A 
HETATM   24  N   UNK N   1      23.595  12.696  11.050  0.00  0.00    -0.335 N 
HETATM   25  C   UNK N   1      23.476  11.912  12.142  0.00  0.00     0.199 A 
HETATM   26  H   UNK N   1      24.411  13.110  10.684  0.00  0.00     0.168 HD
HETATM   27  N   UNK N   1      22.192  11.538  12.319  0.00  0.00    -0.294 N 
HETATM   28  N   UNK N   1      21.483  12.078  11.344  0.00  0.00    -0.283 N 
ATOM     29  HN  UNK N   1      21.834  10.946  13.068  1.00  0.00     0.187 HD
ATOM     30  HN  UNK N   1      20.478  11.983  11.200  1.00  0.00     0.188 HD
ENDBRANCH  18  23
ENDBRANCH   7  15
BRANCH   1  31
HETATM   31  C   UNK N   1      23.175  18.843   4.555  0.00  0.00     0.129 C 
HETATM   32  C   UNK N   1      24.239  17.965   3.917  0.00  0.00     0.027 C 
ENDBRANCH   1  31
TORSDOF 3
ENDMDL
MODEL 2
REMARK VINA RESULT:      -7.5      1.702      2.307
REMARK  3 active torsions:
REMARK  status: ('A' for Active; 'I' for Inactive)
REMARK    1  A    between atoms: C_2  and  N_3 
REMARK    2  A    between atoms: C_9  and  C_12 
REMARK    3  A    between atoms: C_15  and  C_20 
ROOT
HETATM    1  N   UNK N   1      20.473  16.593   2.326  0.00  0.00    -0.300 N 
HETATM    2  C   UNK N   1      20.808  17.142   3.597  0.00  0.00     0.155 A 
HETATM    3  C   UNK N   1      20.992  18.516   3.753  0.00  0.00     0.146 A 
HETATM    4  N   UNK N   1      21.308  19.018   4.978  0.00  0.00    -0.347 N 
ATOM      5  HN  UNK N   1      21.429  20.025   5.091  1.00  0.00     0.167 HD
HETATM    6  C   UNK N   1      21.466  18.198   6.053  0.00  0.00     0.120 A 
HETATM    7  C   UNK N   1      21.298  16.813   5.903  0.00  0.00     0.061 A 
HETATM    8  N   UNK N   1      20.965  16.333   4.676  0.00  0.00    -0.337 N 
ATOM      9  HN  UNK N   1      20.828  15.329   4.561  1.00  0.00     0.167 HD
HETATM   10  N   UNK N   1      20.856  19.378   2.643  0.00  0.00    -0.364 N 
HETATM   11  C   UNK N   1      20.545  18.895   1.313  0.00  0.00     0.224 A 
HETATM   12  C   UNK N   1      20.343  17.399   1.230  0.00  0.00     0.243 A 
HETATM   13  O   UNK N   1      20.059  16.914   0.144  0.00  0.00    -0.271 OA
HETATM   14  H   UNK N   1      20.977  20.345   2.778  0.00  0.00     0.161 HD
ENDROOT
BRANCH   7  15
HETATM   15  C   UNK N   1      21.514  15.874   7.045  0.00  0.00     0.014 A 
HETATM   16  C   UNK N   1      22.531  14.907   6.962  0.00  0.00     0.018 A 
HETATM   17  C   UNK N   1      22.739  14.003   8.006  0.00  0.00     0.034 A 
HETATM   18  C   UNK N   1      21.923  14.064   9.138  0.00  0.00     0.078 A 
HETATM   19  N   UNK N   1      20.945  15.000   9.211  0.00  0.00    -0.356 N 
HETATM   20  C   UNK N   1      20.714  15.897   8.220  0.00  0.00     0.018 A 
ATOM     21  HN  UNK N   1      20.359  15.031  10.045  1.00  0.00     0.166 HD
HETATM   22  C   UNK N   1      19.604  16.869   8.426  0.00  0.00     0.069 C 
BRANCH  18  23
HETATM   23  C   UNK N   1      22.099  13.134  10.259  0.00  0.00     0.148 A 
HETATM   24  N   UNK N   1      23.271  12.867  10.862  0.00  0.00    -0.335 N 
HETATM   25  C   UNK N   1      22.939  11.975  11.819  0.00  0.00     0.199 A 
HETATM   26  H   UNK N   1      24.161  13.235  10.655  0.00  0.00     0.168 HD
HETATM   27  N   UNK N   1      21.615  11.719  11.790  0.00  0.00    -0.294 N 
HETATM   28  N   UNK N   1      21.092  12.442  10.815  0.00  0.00    -0.283 N 
ATOM     29  HN  UNK N   1      21.110  11.082  12.405  1.00  0.00     0.187 HD
ATOM     30  HN  UNK N   1      20.110  12.470  10.540  1.00  0.00     0.188 HD
ENDBRANCH  18  23
ENDBRANCH   7  15
BRANCH   1  31
HETATM   31  C   UNK N   1      20.242  15.165   2.193  0.00  0.00     0.129 C 
HETATM   32  C   UNK N   1      21.520  14.439   1.805  0.00  0.00     0.027 C 
ENDBRANCH   1  31
TORSDOF 3
ENDMDL
MODEL 3
REMARK VINA RESULT:      -7.4      7.177      8.649
REMARK  3 active torsions:
REMARK  status: ('A' for Active; 'I' for Inactive)
REMARK    1  A    between atoms: C_2  and  N_3 
REMARK    2  A    between atoms: C_9  and  C_12 
REMARK    3  A    between atoms: C_15  and  C_20 
ROOT
HETATM    1  N   UNK N   1      26.071  19.550   4.782  0.00  0.00    -0.300 N 
HETATM    2  C   UNK N   1      26.539  18.298   5.277  0.00  0.00     0.155 A 
HETATM    3  C   UNK N   1      25.759  17.148   5.154  0.00  0.00     0.146 A 
HETATM    4  N   UNK N   1      26.227  15.963   5.630  0.00  0.00    -0.347 N 
ATOM      5  HN  UNK N   1      25.660  15.122   5.528  1.00  0.00     0.167 HD
HETATM    6  C   UNK N   1      27.442  15.883   6.242  0.00  0.00     0.120 A 
HETATM    7  C   UNK N   1      28.227  17.037   6.383  0.00  0.00     0.061 A 
HETATM    8  N   UNK N   1      27.750  18.208   5.886  0.00  0.00    -0.337 N 
ATOM      9  HN  UNK N   1      28.320  19.049   5.972  1.00  0.00     0.167 HD
HETATM   10  N   UNK N   1      24.487  17.218   4.545  0.00  0.00    -0.364 N 
HETATM   11  C   UNK N   1      23.929  18.457   4.043  0.00  0.00     0.224 A 
HETATM   12  C   UNK N   1      24.841  19.653   4.196  0.00  0.00     0.243 A 
HETATM   13  O   UNK N   1      24.451  20.735   3.780  0.00  0.00    -0.271 OA
HETATM   14  H   UNK N   1      23.959  16.393   4.458  0.00  0.00     0.161 HD
ENDROOT
BRANCH   7  15
HETATM   15  C   UNK N   1      29.541  17.003   7.095  0.00  0.00     0.014 A 
HETATM   16  C   UNK N   1      30.684  16.548   6.415  0.00  0.00     0.018 A 
HETATM   17  C   UNK N   1      31.919  16.485   7.064  0.00  0.00     0.034 A 
HETATM   18  C   UNK N   1      32.010  16.875   8.402  0.00  0.00     0.078 A 
HETATM   19  N   UNK N   1      30.903  17.313   9.050  0.00  0.00    -0.356 N 
HETATM   20  C   UNK N   1      29.687  17.392   8.454  0.00  0.00     0.018 A 
ATOM     21  HN  UNK N   1      30.987  17.595  10.028  1.00  0.00     0.166 HD
HETATM   22  C   UNK N   1      28.552  17.886   9.283  0.00  0.00     0.069 C 
BRANCH  18  23
HETATM   23  C   UNK N   1      33.283  16.824   9.130  0.00  0.00     0.148 A 
HETATM   24  N   UNK N   1      33.680  15.810   9.918  0.00  0.00    -0.335 N 
HETATM   25  C   UNK N   1      34.893  16.206  10.357  0.00  0.00     0.199 A 
HETATM   26  H   UNK N   1      33.200  14.976  10.127  0.00  0.00     0.168 HD
HETATM   27  N   UNK N   1      35.211  17.414   9.849  0.00  0.00    -0.294 N 
HETATM   28  N   UNK N   1      34.204  17.800   9.084  0.00  0.00    -0.283 N 
ATOM     29  HN  UNK N   1      36.069  17.936  10.025  1.00  0.00     0.187 HD
ATOM     30  HN  UNK N   1      34.142  18.671   8.557  1.00  0.00     0.188 HD
ENDBRANCH  18  23
ENDBRANCH   7  15
BRANCH   1  31
HETATM   31  C   UNK N   1      26.917  20.728   4.880  0.00  0.00     0.129 C 
HETATM   32  C   UNK N   1      26.719  21.433   6.211  0.00  0.00     0.027 C 
ENDBRANCH   1  31
TORSDOF 3
ENDMDL
MODEL 4
REMARK VINA RESULT:      -7.4      9.269     10.963
REMARK  3 active torsions:
REMARK  status: ('A' for Active; 'I' for Inactive)
REMARK    1  A    between atoms: C_2  and  N_3 
REMARK    2  A    between atoms: C_9  and  C_12 
REMARK    3  A    between atoms: C_15  and  C_20 
ROOT
HETATM    1  N   UNK N   1      28.511  18.511   6.680  0.00  0.00    -0.300 N 
HETATM    2  C   UNK N   1      29.668  17.741   6.359  0.00  0.00     0.155 A 
HETATM    3  C   UNK N   1      29.933  17.370   5.041  0.00  0.00     0.146 A 
HETATM    4  N   UNK N   1      31.045  16.639   4.758  0.00  0.00    -0.347 N 
ATOM      5  HN  UNK N   1      31.243  16.380   3.792  1.00  0.00     0.167 HD
HETATM    6  C   UNK N   1      31.897  16.246   5.746  0.00  0.00     0.120 A 
HETATM    7  C   UNK N   1      31.630  16.602   7.077  0.00  0.00     0.061 A 
HETATM    8  N   UNK N   1      30.524  17.347   7.337  0.00  0.00    -0.337 N 
ATOM      9  HN  UNK N   1      30.330  17.621   8.300  1.00  0.00     0.167 HD
HETATM   10  N   UNK N   1      29.048  17.749   4.008  0.00  0.00    -0.364 N 
HETATM   11  C   UNK N   1      27.837  18.506   4.255  0.00  0.00     0.224 A 
HETATM   12  C   UNK N   1      27.630  18.884   5.704  0.00  0.00     0.243 A 
HETATM   13  O   UNK N   1      26.640  19.541   5.994  0.00  0.00    -0.271 OA
HETATM   14  H   UNK N   1      29.261  17.487   3.084  0.00  0.00     0.161 HD
ENDROOT
BRANCH   7  15
HETATM   15  C   UNK N   1      32.510  16.146   8.196  0.00  0.00     0.014 A 
HETATM   16  C   UNK N   1      32.293  14.884   8.775  0.00  0.00     0.018 A 
HETATM   17  C   UNK N   1      33.086  14.444   9.837  0.00  0.00     0.034 A 
HETATM   18  C   UNK N   1      34.099  15.272  10.325  0.00  0.00     0.078 A 
HETATM   19  N   UNK N   1      34.302  16.488   9.760  0.00  0.00    -0.356 N 
HETATM   20  C   UNK N   1      33.556  16.949   8.726  0.00  0.00     0.018 A 
ATOM     21  HN  UNK N   1      35.047  17.080  10.127  1.00  0.00     0.166 HD
HETATM   22  C   UNK N   1      33.881  18.306   8.202  0.00  0.00     0.069 C 
BRANCH  18  23
HETATM   23  C   UNK N   1      34.958  14.858  11.440  0.00  0.00     0.148 A 
HETATM   24  N   UNK N   1      34.808  13.725  12.148  0.00  0.00    -0.335 N 
HETATM   25  C   UNK N   1      35.814  13.777  13.047  0.00  0.00     0.199 A 
HETATM   26  H   UNK N   1      34.127  13.022  12.037  0.00  0.00     0.168 HD
HETATM   27  N   UNK N   1      36.539  14.902  12.882  0.00  0.00    -0.294 N 
HETATM   28  N   UNK N   1      36.003  15.577  11.880  0.00  0.00    -0.283 N 
ATOM     29  HN  UNK N   1      37.350  15.183  13.432  1.00  0.00     0.187 HD
ATOM     30  HN  UNK N   1      36.324  16.471  11.511  1.00  0.00     0.188 HD
ENDBRANCH  18  23
ENDBRANCH   7  15
BRANCH   1  31
HETATM   31  C   UNK N   1      28.276  18.924   8.052  0.00  0.00     0.129 C 
HETATM   32  C   UNK N   1      27.907  17.736   8.925  0.00  0.00     0.027 C 
ENDBRANCH   1  31
TORSDOF 3
ENDMDL
MODEL 5
REMARK VINA RESULT:      -7.2     10.777     12.667
REMARK  3 active torsions:
REMARK  status: ('A' for Active; 'I' for Inactive)
REMARK    1  A    between atoms: C_2  and  N_3 
REMARK    2  A    between atoms: C_9  and  C_12 
REMARK    3  A    between atoms: C_15  and  C_20 
ROOT
HETATM    1  N   UNK N   1      30.599  17.177   6.752  0.00  0.00    -0.300 N 
HETATM    2  C   UNK N   1      31.972  16.803   6.844  0.00  0.00     0.155 A 
HETATM    3  C   UNK N   1      32.792  16.825   5.716  0.00  0.00     0.146 A 
HETATM    4  N   UNK N   1      34.100  16.468   5.828  0.00  0.00    -0.347 N 
ATOM      5  HN  UNK N   1      34.700  16.497   5.004  1.00  0.00     0.167 HD
HETATM    6  C   UNK N   1      34.620  16.071   7.023  0.00  0.00     0.120 A 
HETATM    7  C   UNK N   1      33.799  16.031   8.160  0.00  0.00     0.061 A 
HETATM    8  N   UNK N   1      32.499  16.408   8.031  0.00  0.00    -0.337 N 
ATOM      9  HN  UNK N   1      31.899  16.395   8.855  1.00  0.00     0.167 HD
HETATM   10  N   UNK N   1      32.263  17.211   4.465  0.00  0.00    -0.364 N 
HETATM   11  C   UNK N   1      30.874  17.577   4.283  0.00  0.00     0.224 A 
HETATM   12  C   UNK N   1      30.055  17.546   5.554  0.00  0.00     0.243 A 
HETATM   13  O   UNK N   1      28.875  17.860   5.490  0.00  0.00    -0.271 OA
HETATM   14  H   UNK N   1      32.863  17.232   3.685  0.00  0.00     0.161 HD
ENDROOT
BRANCH   7  15
HETATM   15  C   UNK N   1      34.315  15.551   9.477  0.00  0.00     0.014 A 
HETATM   16  C   UNK N   1      35.028  16.436  10.304  0.00  0.00     0.018 A 
HETATM   17  C   UNK N   1      35.541  16.005  11.530  0.00  0.00     0.034 A 
HETATM   18  C   UNK N   1      35.343  14.681  11.929  0.00  0.00     0.078 A 
HETATM   19  N   UNK N   1      34.654  13.834  11.125  0.00  0.00    -0.356 N 
HETATM   20  C   UNK N   1      34.138  14.215   9.930  0.00  0.00     0.018 A 
ATOM     21  HN  UNK N   1      34.518  12.871  11.432  1.00  0.00     0.166 HD
HETATM   22  C   UNK N   1      33.406  13.182   9.143  0.00  0.00     0.069 C 
BRANCH  18  23
HETATM   23  C   UNK N   1      35.865  14.179  13.205  0.00  0.00     0.148 A 
HETATM   24  N   UNK N   1      35.473  13.041  13.803  0.00  0.00    -0.335 N 
HETATM   25  C   UNK N   1      36.220  13.000  14.927  0.00  0.00     0.199 A 
HETATM   26  H   UNK N   1      34.801  12.390  13.494  0.00  0.00     0.168 HD
HETATM   27  N   UNK N   1      37.029  14.076  14.998  0.00  0.00    -0.294 N 
HETATM   28  N   UNK N   1      36.806  14.812  13.923  0.00  0.00    -0.283 N 
ATOM     29  HN  UNK N   1      37.691  14.285  15.745  1.00  0.00     0.187 HD
ATOM     30  HN  UNK N   1      37.263  15.692  13.685  1.00  0.00     0.188 HD
ENDBRANCH  18  23
ENDBRANCH   7  15
BRANCH   1  31
HETATM   31  C   UNK N   1      29.772  17.189   7.947  0.00  0.00     0.129 C 
HETATM   32  C   UNK N   1      29.940  18.490   8.713  0.00  0.00     0.027 C 
ENDBRANCH   1  31
TORSDOF 3
ENDMDL
MODEL 6
REMARK VINA RESULT:      -7.2      4.857      6.851
REMARK  3 active torsions:
REMARK  status: ('A' for Active; 'I' for Inactive)
REMARK    1  A    between atoms: C_2  and  N_3 
REMARK    2  A    between atoms: C_9  and  C_12 
REMARK    3  A    between atoms: C_15  and  C_20 
ROOT
HETATM    1  N   UNK N   1      21.691  18.269   4.100  0.00  0.00    -0.300 N 
HETATM    2  C   UNK N   1      22.901  19.001   3.922  0.00  0.00     0.155 A 
HETATM    3  C   UNK N   1      22.975  20.038   2.993  0.00  0.00     0.146 A 
HETATM    4  N   UNK N   1      24.140  20.726   2.843  0.00  0.00    -0.347 N 
ATOM      5  HN  UNK N   1      24.187  21.492   2.172  1.00  0.00     0.167 HD
HETATM    6  C   UNK N   1      25.243  20.405   3.574  0.00  0.00     0.120 A 
HETATM    7  C   UNK N   1      25.183  19.353   4.501  0.00  0.00     0.061 A 
HETATM    8  N   UNK N   1      24.006  18.690   4.649  0.00  0.00    -0.337 N 
ATOM      9  HN  UNK N   1      23.949  17.933   5.329  1.00  0.00     0.167 HD
HETATM   10  N   UNK N   1      21.848  20.368   2.210  0.00  0.00    -0.364 N 
HETATM   11  C   UNK N   1      20.591  19.654   2.311  0.00  0.00     0.224 A 
HETATM   12  C   UNK N   1      20.585  18.557   3.351  0.00  0.00     0.243 A 
HETATM   13  O   UNK N   1      19.554  17.918   3.511  0.00  0.00    -0.271 OA
HETATM   14  H   UNK N   1      21.918  21.112   1.570  0.00  0.00     0.161 HD
ENDROOT
BRANCH   7  15
HETATM   15  C   UNK N   1      26.385  18.934   5.284  0.00  0.00     0.014 A 
HETATM   16  C   UNK N   1      26.924  17.651   5.090  0.00  0.00     0.018 A 
HETATM   17  C   UNK N   1      28.033  17.227   5.825  0.00  0.00     0.034 A 
HETATM   18  C   UNK N   1      28.603  18.091   6.763  0.00  0.00     0.078 A 
HETATM   19  N   UNK N   1      28.078  19.327   6.944  0.00  0.00    -0.356 N 
HETATM   20  C   UNK N   1      27.005  19.776   6.247  0.00  0.00     0.018 A 
ATOM     21  HN  UNK N   1      28.508  19.946   7.632  1.00  0.00     0.166 HD
HETATM   22  C   UNK N   1      26.525  21.155   6.548  0.00  0.00     0.069 C 
BRANCH  18  23
HETATM   23  C   UNK N   1      29.767  17.692   7.563  0.00  0.00     0.148 A 
HETATM   24  N   UNK N   1      30.598  16.679   7.262  0.00  0.00    -0.335 N 
HETATM   25  C   UNK N   1      31.499  16.699   8.268  0.00  0.00     0.199 A 
HETATM   26  H   UNK N   1      30.561  16.068   6.491  0.00  0.00     0.168 HD
HETATM   27  N   UNK N   1      31.215  17.688   9.139  0.00  0.00    -0.294 N 
HETATM   28  N   UNK N   1      30.133  18.307   8.699  0.00  0.00    -0.283 N 
ATOM     29  HN  UNK N   1      31.738  17.916   9.984  1.00  0.00     0.187 HD
ATOM     30  HN  UNK N   1      29.668  19.101   9.138  1.00  0.00     0.188 HD
ENDBRANCH  18  23
ENDBRANCH   7  15
BRANCH   1  31
HETATM   31  C   UNK N   1      21.620  17.221   5.104  0.00  0.00     0.129 C 
HETATM   32  C   UNK N   1      21.221  17.786   6.456  0.00  0.00     0.027 C 
ENDBRANCH   1  31
TORSDOF 3
ENDMDL
MODEL 7
REMARK VINA RESULT:      -7.1      5.538      7.566
REMARK  3 active torsions:
REMARK  status: ('A' for Active; 'I' for Inactive)
REMARK    1  A    between atoms: C_2  and  N_3 
REMARK    2  A    between atoms: C_9  and  C_12 
REMARK    3  A    between atoms: C_15  and  C_20 
ROOT
HETATM    1  N   UNK N   1      23.130  18.518   4.595  0.00  0.00    -0.300 N 
HETATM    2  C   UNK N   1      24.442  19.051   4.427  0.00  0.00     0.155 A 
HETATM    3  C   UNK N   1      24.678  20.090   3.527  0.00  0.00     0.146 A 
HETATM    4  N   UNK N   1      25.938  20.585   3.387  0.00  0.00    -0.347 N 
ATOM      5  HN  UNK N   1      26.105  21.354   2.737  1.00  0.00     0.167 HD
HETATM    6  C   UNK N   1      26.978  20.070   4.098  0.00  0.00     0.120 A 
HETATM    7  C   UNK N   1      26.753  19.014   4.995  0.00  0.00     0.061 A 
HETATM    8  N   UNK N   1      25.485  18.545   5.134  0.00  0.00    -0.337 N 
ATOM      9  HN  UNK N   1      25.310  17.787   5.793  1.00  0.00     0.167 HD
HETATM   10  N   UNK N   1      23.615  20.620   2.764  0.00  0.00    -0.364 N 
HETATM   11  C   UNK N   1      22.260  20.116   2.856  0.00  0.00     0.224 A 
HETATM   12  C   UNK N   1      22.082  19.003   3.864  0.00  0.00     0.243 A 
HETATM   13  O   UNK N   1      20.963  18.534   4.015  0.00  0.00    -0.271 OA
HETATM   14  H   UNK N   1      23.802  21.362   2.145  0.00  0.00     0.161 HD
ENDROOT
BRANCH   7  15
HETATM   15  C   UNK N   1      27.875  18.384   5.754  0.00  0.00     0.014 A 
HETATM   16  C   UNK N   1      28.108  18.767   7.087  0.00  0.00     0.018 A 
HETATM   17  C   UNK N   1      29.164  18.210   7.812  0.00  0.00     0.034 A 
HETATM   18  C   UNK N   1      29.994  17.268   7.199  0.00  0.00     0.078 A 
HETATM   19  N   UNK N   1      29.762  16.904   5.914  0.00  0.00    -0.356 N 
HETATM   20  C   UNK N   1      28.745  17.419   5.179  0.00  0.00     0.018 A 
ATOM     21  HN  UNK N   1      30.377  16.214   5.482  1.00  0.00     0.166 HD
HETATM   22  C   UNK N   1      28.606  16.936   3.776  0.00  0.00     0.069 C 
BRANCH  18  23
HETATM   23  C   UNK N   1      31.119  16.657   7.916  0.00  0.00     0.148 A 
HETATM   24  N   UNK N   1      31.734  15.517   7.556  0.00  0.00    -0.335 N 
HETATM   25  C   UNK N   1      32.689  15.361   8.497  0.00  0.00     0.199 A 
HETATM   26  H   UNK N   1      31.536  14.934   6.787  0.00  0.00     0.168 HD
HETATM   27  N   UNK N   1      32.646  16.372   9.388  0.00  0.00    -0.294 N 
HETATM   28  N   UNK N   1      31.665  17.180   9.025  0.00  0.00    -0.283 N 
ATOM     29  HN  UNK N   1      33.257  16.491  10.196  1.00  0.00     0.187 HD
ATOM     30  HN  UNK N   1      31.379  18.038   9.497  1.00  0.00     0.188 HD
ENDBRANCH  18  23
ENDBRANCH   7  15
BRANCH   1  31
HETATM   31  C   UNK N   1      22.896  17.466   5.568  0.00  0.00     0.129 C 
HETATM   32  C   UNK N   1      23.071  16.093   4.940  0.00  0.00     0.027 C 
ENDBRANCH   1  31
TORSDOF 3
ENDMDL
MODEL 8
REMARK VINA RESULT:      -6.9     16.516     20.565
REMARK  3 active torsions:
REMARK  status: ('A' for Active; 'I' for Inactive)
REMARK    1  A    between atoms: C_2  and  N_3 
REMARK    2  A    between atoms: C_9  and  C_12 
REMARK    3  A    between atoms: C_15  and  C_20 
ROOT
HETATM    1  N   UNK N   1      32.860   9.024  21.701  0.00  0.00    -0.300 N 
HETATM    2  C   UNK N   1      34.123   9.590  21.360  0.00  0.00     0.155 A 
HETATM    3  C   UNK N   1      35.186   9.554  22.263  0.00  0.00     0.146 A 
HETATM    4  N   UNK N   1      36.383  10.098  21.914  0.00  0.00    -0.347 N 
ATOM      5  HN  UNK N   1      37.162  10.059  22.572  1.00  0.00     0.167 HD
HETATM    6  C   UNK N   1      36.557  10.695  20.703  0.00  0.00     0.120 A 
HETATM    7  C   UNK N   1      35.490  10.749  19.794  0.00  0.00     0.061 A 
HETATM    8  N   UNK N   1      34.307  10.185  20.153  0.00  0.00    -0.337 N 
ATOM      9  HN  UNK N   1      33.529  10.208  19.494  1.00  0.00     0.167 HD
HETATM   10  N   UNK N   1      35.015   8.961  23.533  0.00  0.00    -0.364 N 
HETATM   11  C   UNK N   1      33.756   8.389  23.965  0.00  0.00     0.224 A 
HETATM   12  C   UNK N   1      32.660   8.451  22.926  0.00  0.00     0.243 A 
HETATM   13  O   UNK N   1      31.570   7.973  23.206  0.00  0.00    -0.271 OA
HETATM   14  H   UNK N   1      35.782   8.935  24.149  0.00  0.00     0.161 HD
ENDROOT
BRANCH   7  15
HETATM   15  C   UNK N   1      35.623  11.441  18.476  0.00  0.00     0.014 A 
HETATM   16  C   UNK N   1      35.256  12.793  18.365  0.00  0.00     0.018 A 
HETATM   17  C   UNK N   1      35.349  13.457  17.140  0.00  0.00     0.034 A 
HETATM   18  C   UNK N   1      35.809  12.763  16.018  0.00  0.00     0.078 A 
HETATM   19  N   UNK N   1      36.162  11.459  16.134  0.00  0.00    -0.356 N 
HETATM   20  C   UNK N   1      36.088  10.781  17.306  0.00  0.00     0.018 A 
ATOM     21  HN  UNK N   1      36.497  10.967  15.305  1.00  0.00     0.166 HD
HETATM   22  C   UNK N   1      36.503   9.350  17.293  0.00  0.00     0.069 C 
BRANCH  18  23
HETATM   23  C   UNK N   1      35.922  13.414  14.708  0.00  0.00     0.148 A 
HETATM   24  N   UNK N   1      35.203  13.085  13.620  0.00  0.00    -0.335 N 
HETATM   25  C   UNK N   1      35.645  13.944  12.677  0.00  0.00     0.199 A 
HETATM   26  H   UNK N   1      34.517  12.385  13.532  0.00  0.00     0.168 HD
HETATM   27  N   UNK N   1      36.595  14.758  13.185  0.00  0.00    -0.294 N 
HETATM   28  N   UNK N   1      36.767  14.425  14.452  0.00  0.00    -0.283 N 
ATOM     29  HN  UNK N   1      37.090  15.493  12.682  1.00  0.00     0.187 HD
ATOM     30  HN  UNK N   1      37.417  14.855  15.109  1.00  0.00     0.188 HD
ENDBRANCH  18  23
ENDBRANCH   7  15
BRANCH   1  31
HETATM   31  C   UNK N   1      31.778   9.033  20.731  0.00  0.00     0.129 C 
HETATM   32  C   UNK N   1      31.752   7.741  19.932  0.00  0.00     0.027 C 
ENDBRANCH   1  31
TORSDOF 3
ENDMDL
MODEL 9
REMARK VINA RESULT:      -6.9      5.713      9.553
REMARK  3 active torsions:
REMARK  status: ('A' for Active; 'I' for Inactive)
REMARK    1  A    between atoms: C_2  and  N_3 
REMARK    2  A    between atoms: C_9  and  C_12 
REMARK    3  A    between atoms: C_15  and  C_20 
ROOT
HETATM    1  N   UNK N   1      29.813  17.852   7.442  0.00  0.00    -0.300 N 
HETATM    2  C   UNK N   1      29.272  17.534   6.162  0.00  0.00     0.155 A 
HETATM    3  C   UNK N   1      30.016  16.801   5.237  0.00  0.00     0.146 A 
HETATM    4  N   UNK N   1      29.478  16.506   4.023  0.00  0.00    -0.347 N 
ATOM      5  HN  UNK N   1      30.019  15.959   3.354  1.00  0.00     0.167 HD
HETATM    6  C   UNK N   1      28.228  16.930   3.687  0.00  0.00     0.120 A 
HETATM    7  C   UNK N   1      27.478  17.680   4.605  0.00  0.00     0.061 A 
HETATM    8  N   UNK N   1      28.025  17.950   5.819  0.00  0.00    -0.337 N 
ATOM      9  HN  UNK N   1      27.482  18.483   6.497  1.00  0.00     0.167 HD
HETATM   10  N   UNK N   1      31.323  16.375   5.560  0.00  0.00    -0.364 N 
HETATM   11  C   UNK N   1      31.954  16.682   6.827  0.00  0.00     0.224 A 
HETATM   12  C   UNK N   1      31.078  17.462   7.781  0.00  0.00     0.243 A 
HETATM   13  O   UNK N   1      31.531  17.746   8.881  0.00  0.00    -0.271 OA
HETATM   14  H   UNK N   1      31.825  15.848   4.897  0.00  0.00     0.161 HD
ENDROOT
BRANCH   7  15
HETATM   15  C   UNK N   1      26.124  18.210   4.257  0.00  0.00     0.014 A 
HETATM   16  C   UNK N   1      26.016  19.436   3.578  0.00  0.00     0.018 A 
HETATM   17  C   UNK N   1      24.762  19.964   3.261  0.00  0.00     0.034 A 
HETATM   18  C   UNK N   1      23.611  19.264   3.628  0.00  0.00     0.078 A 
HETATM   19  N   UNK N   1      23.724  18.082   4.282  0.00  0.00    -0.356 N 
HETATM   20  C   UNK N   1      24.923  17.535   4.605  0.00  0.00     0.018 A 
ATOM     21  HN  UNK N   1      22.873  17.582   4.543  1.00  0.00     0.166 HD
HETATM   22  C   UNK N   1      24.905  16.233   5.329  0.00  0.00     0.069 C 
BRANCH  18  23
HETATM   23  C   UNK N   1      22.271  19.777   3.321  0.00  0.00     0.148 A 
HETATM   24  N   UNK N   1      21.120  19.232   3.751  0.00  0.00    -0.335 N 
HETATM   25  C   UNK N   1      20.172  20.038   3.227  0.00  0.00     0.199 A 
HETATM   26  H   UNK N   1      20.996  18.434   4.315  0.00  0.00     0.168 HD
HETATM   27  N   UNK N   1      20.738  21.030   2.510  0.00  0.00    -0.294 N 
HETATM   28  N   UNK N   1      22.048  20.866   2.569  0.00  0.00    -0.283 N 
ATOM     29  HN  UNK N   1      20.245  21.771   2.012  1.00  0.00     0.187 HD
ATOM     30  HN  UNK N   1      22.753  21.455   2.127  1.00  0.00     0.188 HD
ENDBRANCH  18  23
ENDBRANCH   7  15
BRANCH   1  31
HETATM   31  C   UNK N   1      29.006  18.579   8.407  0.00  0.00     0.129 C 
HETATM   32  C   UNK N   1      28.211  17.624   9.282  0.00  0.00     0.027 C 
ENDBRANCH   1  31
TORSDOF 3
ENDMDL
