MODEL 1
REMARK VINA RESULT:      -5.5      0.000      0.000
REMARK  0 active torsions:
REMARK  status: ('A' for Active; 'I' for Inactive)
ROOT
HETATM    1  C   UNK N   1      33.365  17.167   6.676  0.00  0.00     0.095 A 
HETATM    2  C   UNK N   1      33.730  17.186   5.316  0.00  0.00     0.026 A 
HETATM    3  C   UNK N   1      32.734  17.303   4.334  0.00  0.00     0.002 A 
HETATM    4  C   UNK N   1      31.381  17.381   4.706  0.00  0.00     0.001 A 
HETATM    5  C   UNK N   1      31.022  17.330   6.059  0.00  0.00     0.018 A 
HETATM    6  C   UNK N   1      32.034  17.220   7.013  0.00  0.00     0.056 A 
HETATM    7  C   UNK N   1      31.895  17.131   8.408  0.00  0.00     0.266 A 
HETATM    8  O   UNK N   1      30.824  17.149   8.997  0.00  0.00    -0.267 OA
HETATM    9  N   UNK N   1      33.062  17.008   9.046  0.00  0.00    -0.246 N 
HETATM   10  S   UNK N   1      34.567  16.982   8.076  0.00  0.00     0.266 S 
HETATM   11  O   UNK N   1      34.976  17.897   9.240  0.00  0.00    -0.200 OA
HETATM   12  O   UNK N   1      34.604  18.412   7.507  0.00  0.00    -0.200 OA
HETATM   13  H   UNK N   1      33.095  16.932  10.027  0.00  0.00     0.182 HD
ENDROOT
TORSDOF 0
ENDMDL
MODEL 2
REMARK VINA RESULT:      -5.4     11.198     12.367
REMARK  0 active torsions:
REMARK  status: ('A' for Active; 'I' for Inactive)
ROOT
HETATM    1  C   UNK N   1      22.676  13.333   9.731  0.00  0.00     0.095 A 
HETATM    2  C   UNK N   1      24.052  13.413   9.444  0.00  0.00     0.026 A 
HETATM    3  C   UNK N   1      24.963  12.675  10.216  0.00  0.00     0.002 A 
HETATM    4  C   UNK N   1      24.506  11.877  11.278  0.00  0.00     0.001 A 
HETATM    5  C   UNK N   1      23.139  11.825  11.577  0.00  0.00     0.018 A 
HETATM    6  C   UNK N   1      22.256  12.565  10.789  0.00  0.00     0.056 A 
HETATM    7  C   UNK N   1      20.863  12.673  10.930  0.00  0.00     0.266 A 
HETATM    8  O   UNK N   1      20.209  12.100  11.790  0.00  0.00    -0.267 OA
HETATM    9  N   UNK N   1      20.304  13.485  10.027  0.00  0.00    -0.246 N 
HETATM   10  S   UNK N   1      21.365  14.278   8.821  0.00  0.00     0.266 S 
HETATM   11  O   UNK N   1      20.177  13.851   7.944  0.00  0.00    -0.200 OA
HETATM   12  O   UNK N   1      21.854  13.078   7.989  0.00  0.00    -0.200 OA
HETATM   13  H   UNK N   1      19.333  13.644  10.025  0.00  0.00     0.182 HD
ENDROOT
TORSDOF 0
ENDMDL
MODEL 3
REMARK VINA RESULT:      -5.4      9.461     10.608
REMARK  0 active torsions:
REMARK  status: ('A' for Active; 'I' for Inactive)
ROOT
HETATM    1  C   UNK N   1      35.986  13.399  15.829  0.00  0.00     0.095 A 
HETATM    2  C   UNK N   1      35.306  12.383  16.529  0.00  0.00     0.026 A 
HETATM    3  C   UNK N   1      34.987  12.571  17.883  0.00  0.00     0.002 A 
HETATM    4  C   UNK N   1      35.361  13.756  18.539  0.00  0.00     0.001 A 
HETATM    5  C   UNK N   1      36.063  14.749  17.846  0.00  0.00     0.018 A 
HETATM    6  C   UNK N   1      36.361  14.538  16.499  0.00  0.00     0.056 A 
HETATM    7  C   UNK N   1      37.070  15.385  15.632  0.00  0.00     0.266 A 
HETATM    8  O   UNK N   1      37.531  16.472  15.952  0.00  0.00    -0.267 OA
HETATM    9  N   UNK N   1      37.211  14.882  14.402  0.00  0.00    -0.246 N 
HETATM   10  S   UNK N   1      36.502  13.275  14.052  0.00  0.00     0.266 S 
HETATM   11  O   UNK N   1      36.117  14.056  12.787  0.00  0.00    -0.200 OA
HETATM   12  O   UNK N   1      34.994  13.560  14.166  0.00  0.00    -0.200 OA
HETATM   13  H   UNK N   1      37.693  15.382  13.705  0.00  0.00     0.182 HD
ENDROOT
TORSDOF 0
ENDMDL
MODEL 4
REMARK VINA RESULT:      -5.3     15.501     16.452
REMARK  0 active torsions:
REMARK  status: ('A' for Active; 'I' for Inactive)
ROOT
HETATM    1  C   UNK N   1      26.075  26.124  -5.641  0.00  0.00     0.095 A 
HETATM    2  C   UNK N   1      25.904  26.269  -7.032  0.00  0.00     0.026 A 
HETATM    3  C   UNK N   1      25.786  25.126  -7.837  0.00  0.00     0.002 A 
HETATM    4  C   UNK N   1      25.857  23.846  -7.261  0.00  0.00     0.001 A 
HETATM    5  C   UNK N   1      26.058  23.708  -5.882  0.00  0.00     0.018 A 
HETATM    6  C   UNK N   1      26.166  24.863  -5.106  0.00  0.00     0.056 A 
HETATM    7  C   UNK N   1      26.390  24.951  -3.722  0.00  0.00     0.266 A 
HETATM    8  O   UNK N   1      26.516  23.987  -2.981  0.00  0.00    -0.267 OA
HETATM    9  N   UNK N   1      26.470  26.209  -3.281  0.00  0.00    -0.246 N 
HETATM   10  S   UNK N   1      26.281  27.542  -4.463  0.00  0.00     0.266 S 
HETATM   11  O   UNK N   1      25.442  28.062  -3.286  0.00  0.00    -0.200 OA
HETATM   12  O   UNK N   1      24.809  27.387  -4.884  0.00  0.00    -0.200 OA
HETATM   13  H   UNK N   1      26.629  26.400  -2.329  0.00  0.00     0.182 HD
ENDROOT
TORSDOF 0
ENDMDL
MODEL 5
REMARK VINA RESULT:      -5.3      8.435      9.631
REMARK  0 active torsions:
REMARK  status: ('A' for Active; 'I' for Inactive)
ROOT
HETATM    1  C   UNK N   1      35.501  12.570  14.043  0.00  0.00     0.095 A 
HETATM    2  C   UNK N   1      34.701  11.410  14.034  0.00  0.00     0.026 A 
HETATM    3  C   UNK N   1      34.376  10.786  15.248  0.00  0.00     0.002 A 
HETATM    4  C   UNK N   1      34.861  11.303  16.461  0.00  0.00     0.001 A 
HETATM    5  C   UNK N   1      35.681  12.438  16.460  0.00  0.00     0.018 A 
HETATM    6  C   UNK N   1      35.983  13.041  15.239  0.00  0.00     0.056 A 
HETATM    7  C   UNK N   1      36.798  14.163  15.012  0.00  0.00     0.266 A 
HETATM    8  O   UNK N   1      37.367  14.792  15.892  0.00  0.00    -0.267 OA
HETATM    9  N   UNK N   1      36.909  14.479  13.718  0.00  0.00    -0.246 N 
HETATM   10  S   UNK N   1      36.038  13.476  12.517  0.00  0.00     0.266 S 
HETATM   11  O   UNK N   1      35.766  14.891  11.983  0.00  0.00    -0.200 OA
HETATM   12  O   UNK N   1      34.568  13.786  12.850  0.00  0.00    -0.200 OA
HETATM   13  H   UNK N   1      37.457  15.244  13.432  0.00  0.00     0.182 HD
ENDROOT
TORSDOF 0
ENDMDL
MODEL 6
REMARK VINA RESULT:      -5.2      2.924      4.671
REMARK  0 active torsions:
REMARK  status: ('A' for Active; 'I' for Inactive)
ROOT
HETATM    1  C   UNK N   1      33.620  16.114   8.975  0.00  0.00     0.095 A 
HETATM    2  C   UNK N   1      33.502  14.948   9.757  0.00  0.00     0.026 A 
HETATM    3  C   UNK N   1      34.293  14.805  10.908  0.00  0.00     0.002 A 
HETATM    4  C   UNK N   1      35.207  15.810  11.266  0.00  0.00     0.001 A 
HETATM    5  C   UNK N   1      35.341  16.952  10.468  0.00  0.00     0.018 A 
HETATM    6  C   UNK N   1      34.538  17.070   9.333  0.00  0.00     0.056 A 
HETATM    7  C   UNK N   1      34.528  18.112   8.391  0.00  0.00     0.266 A 
HETATM    8  O   UNK N   1      35.244  19.101   8.448  0.00  0.00    -0.267 OA
HETATM    9  N   UNK N   1      33.657  17.915   7.397  0.00  0.00    -0.246 N 
HETATM   10  S   UNK N   1      32.668  16.421   7.413  0.00  0.00     0.266 S 
HETATM   11  O   UNK N   1      31.622  17.470   7.008  0.00  0.00    -0.200 OA
HETATM   12  O   UNK N   1      31.779  16.641   8.650  0.00  0.00    -0.200 OA
HETATM   13  H   UNK N   1      33.560  18.574   6.674  0.00  0.00     0.182 HD
ENDROOT
TORSDOF 0
ENDMDL
MODEL 7
REMARK VINA RESULT:      -5.1     11.437     12.739
REMARK  0 active torsions:
REMARK  status: ('A' for Active; 'I' for Inactive)
ROOT
HETATM    1  C   UNK N   1      35.128  11.124  18.068  0.00  0.00     0.095 A 
HETATM    2  C   UNK N   1      34.868  10.128  17.106  0.00  0.00     0.026 A 
HETATM    3  C   UNK N   1      34.613  10.501  15.777  0.00  0.00     0.002 A 
HETATM    4  C   UNK N   1      34.598  11.858  15.415  0.00  0.00     0.001 A 
HETATM    5  C   UNK N   1      34.826  12.844  16.382  0.00  0.00     0.018 A 
HETATM    6  C   UNK N   1      35.083  12.444  17.693  0.00  0.00     0.056 A 
HETATM    7  C   UNK N   1      35.314  13.262  18.813  0.00  0.00     0.266 A 
HETATM    8  O   UNK N   1      35.331  14.484  18.783  0.00  0.00    -0.267 OA
HETATM    9  N   UNK N   1      35.503  12.569  19.940  0.00  0.00    -0.246 N 
HETATM   10  S   UNK N   1      35.444  10.781  19.863  0.00  0.00     0.266 S 
HETATM   11  O   UNK N   1      36.658  11.003  20.779  0.00  0.00    -0.200 OA
HETATM   12  O   UNK N   1      36.688  10.458  19.015  0.00  0.00    -0.200 OA
HETATM   13  H   UNK N   1      35.670  13.031  20.792  0.00  0.00     0.182 HD
ENDROOT
TORSDOF 0
ENDMDL
MODEL 8
REMARK VINA RESULT:      -5.0     15.272     16.236
REMARK  0 active torsions:
REMARK  status: ('A' for Active; 'I' for Inactive)
ROOT
HETATM    1  C   UNK N   1      25.934  25.930  -5.316  0.00  0.00     0.095 A 
HETATM    2  C   UNK N   1      25.522  27.206  -5.747  0.00  0.00     0.026 A 
HETATM    3  C   UNK N   1      25.513  28.274  -4.837  0.00  0.00     0.002 A 
HETATM    4  C   UNK N   1      25.895  28.066  -3.500  0.00  0.00     0.001 A 
HETATM    5  C   UNK N   1      26.273  26.789  -3.071  0.00  0.00     0.018 A 
HETATM    6  C   UNK N   1      26.278  25.748  -3.999  0.00  0.00     0.056 A 
HETATM    7  C   UNK N   1      26.598  24.398  -3.776  0.00  0.00     0.266 A 
HETATM    8  O   UNK N   1      26.940  23.939  -2.695  0.00  0.00    -0.267 OA
HETATM    9  N   UNK N   1      26.481  23.641  -4.871  0.00  0.00    -0.246 N 
HETATM   10  S   UNK N   1      25.961  24.423  -6.396  0.00  0.00     0.266 S 
HETATM   11  O   UNK N   1      27.089  23.506  -6.896  0.00  0.00    -0.200 OA
HETATM   12  O   UNK N   1      27.156  25.342  -6.706  0.00  0.00    -0.200 OA
HETATM   13  H   UNK N   1      26.675  22.677  -4.840  0.00  0.00     0.182 HD
ENDROOT
TORSDOF 0
ENDMDL
MODEL 9
REMARK VINA RESULT:      -5.0      2.702      3.936
REMARK  0 active torsions:
REMARK  status: ('A' for Active; 'I' for Inactive)
ROOT
HETATM    1  C   UNK N   1      31.435  17.023   6.184  0.00  0.00     0.095 A 
HETATM    2  C   UNK N   1      30.096  16.877   6.596  0.00  0.00     0.026 A 
HETATM    3  C   UNK N   1      29.719  17.297   7.882  0.00  0.00     0.002 A 
HETATM    4  C   UNK N   1      30.676  17.840   8.756  0.00  0.00     0.001 A 
HETATM    5  C   UNK N   1      32.011  17.954   8.350  0.00  0.00     0.018 A 
HETATM    6  C   UNK N   1      32.355  17.534   7.065  0.00  0.00     0.056 A 
HETATM    7  C   UNK N   1      33.628  17.538   6.471  0.00  0.00     0.266 A 
HETATM    8  O   UNK N   1      34.645  17.936   7.021  0.00  0.00    -0.267 OA
HETATM    9  N   UNK N   1      33.631  17.044   5.230  0.00  0.00    -0.246 N 
HETATM   10  S   UNK N   1      32.081  16.480   4.532  0.00  0.00     0.266 S 
HETATM   11  O   UNK N   1      32.690  17.235   3.341  0.00  0.00    -0.200 OA
HETATM   12  O   UNK N   1      31.291  17.796   4.407  0.00  0.00    -0.200 OA
HETATM   13  H   UNK N   1      34.465  16.991   4.711  0.00  0.00     0.182 HD
ENDROOT
TORSDOF 0
ENDMDL
