MODEL 1
REMARK VINA RESULT:      -5.8      0.000      0.000
REMARK  11 active torsions:
REMARK  status: ('A' for Active; 'I' for Inactive)
REMARK    1  A    between atoms: C_5  and  C_3 
REMARK    2  A    between atoms: N_12  and  C_3 
REMARK    3  A    between atoms: C_6  and  C_4 
REMARK    4  A    between atoms: O_15  and  C_4 
REMARK    5  A    between atoms: C_10  and  C_6 
REMARK    6  A    between atoms: N_11  and  C_6 
REMARK    7  A    between atoms: O_16  and  C_7 
REMARK    8  A    between atoms: O_17  and  C_8 
REMARK    9  A    between atoms: O_18  and  C_9 
REMARK   10  A    between atoms: O_19  and  C_10 
REMARK   11  A    between atoms: N_13  and  N_12 
ROOT
HETATM    1  N   UNK N   1      34.280  12.572  10.960  0.00  0.00    -0.330 N 
HETATM    2  H   UNK N   1      33.328  12.343  10.851  0.00  0.00     0.180 HD
ENDROOT
BRANCH   1   3
HETATM    3  C   UNK N   1      35.107  11.740  11.789  0.00  0.00     0.180 C 
BRANCH   3   4
HETATM    4  C   UNK N   1      35.278  12.313  13.178  0.00  0.00    -0.003 A 
HETATM    5  C   UNK N   1      34.455  11.797  14.186  0.00  0.00     0.014 A 
HETATM    6  C   UNK N   1      34.557  12.260  15.499  0.00  0.00     0.040 A 
HETATM    7  C   UNK N   1      35.488  13.247  15.825  0.00  0.00     0.101 A 
HETATM    8  C   UNK N   1      36.321  13.778  14.835  0.00  0.00     0.133 A 
HETATM    9  C   UNK N   1      36.224  13.320  13.514  0.00  0.00     0.109 A 
BRANCH   7  10
HETATM   10  O   UNK N   1      35.583  13.683  17.093  0.00  0.00    -0.358 OA
HETATM   11  H   UNK N   1      36.008  13.155  17.739  0.00  0.00     0.217 HD
ENDBRANCH   7  10
BRANCH   8  12
HETATM   12  O   UNK N   1      37.221  14.727  15.151  0.00  0.00    -0.356 OA
HETATM   13  H   UNK N   1      37.428  14.896  16.049  0.00  0.00     0.218 HD
ENDBRANCH   8  12
BRANCH   9  14
HETATM   14  O   UNK N   1      37.047  13.850  12.589  0.00  0.00    -0.357 OA
HETATM   15  H   UNK N   1      36.794  13.858  11.687  0.00  0.00     0.217 HD
ENDBRANCH   9  14
ENDBRANCH   3   4
ENDBRANCH   1   3
BRANCH   1  16
HETATM   16  N   UNK N   1      34.778  13.676  10.317  0.00  0.00    -0.286 N 
HETATM   17  C   UNK N   1      34.182  14.809  10.446  0.00  0.00     0.154 C 
ATOM     18  HN  UNK N   1      35.616  13.600   9.740  1.00  0.00     0.188 HD
BRANCH  17  19
HETATM   19  C   UNK N   1      34.718  16.025   9.742  0.00  0.00     0.174 C 
BRANCH  19  20
HETATM   20  C   UNK N   1      35.664  16.802  10.654  0.00  0.00     0.197 C 
BRANCH  20  21
HETATM   21  O   UNK N   1      36.823  16.067  10.898  0.00  0.00    -0.398 OA
HETATM   22  H   UNK N   1      37.698  16.485  10.864  0.00  0.00     0.209 HD
ENDBRANCH  20  21
ENDBRANCH  19  20
BRANCH  19  23
HETATM   23  N   UNK N   1      33.616  16.883   9.338  0.00  0.00    -0.418 N 
HETATM   24  H   UNK N   1      33.554  17.599   8.613  0.00  0.00     0.150 HD
HETATM   25  H   UNK N   1      32.758  16.747   9.870  0.00  0.00     0.150 HD
ENDBRANCH  19  23
ENDBRANCH  17  19
BRANCH  17  26
HETATM   26  O   UNK N   1      33.071  14.904  11.212  0.00  0.00    -0.347 OA
HETATM   27  H   UNK N   1      33.098  15.128  12.121  0.00  0.00     0.219 HD
ENDBRANCH  17  26
ENDBRANCH   1  16
TORSDOF 11
ENDMDL
MODEL 2
REMARK VINA RESULT:      -5.7      4.624      8.160
REMARK  11 active torsions:
REMARK  status: ('A' for Active; 'I' for Inactive)
REMARK    1  A    between atoms: C_5  and  C_3 
REMARK    2  A    between atoms: N_12  and  C_3 
REMARK    3  A    between atoms: C_6  and  C_4 
REMARK    4  A    between atoms: O_15  and  C_4 
REMARK    5  A    between atoms: C_10  and  C_6 
REMARK    6  A    between atoms: N_11  and  C_6 
REMARK    7  A    between atoms: O_16  and  C_7 
REMARK    8  A    between atoms: O_17  and  C_8 
REMARK    9  A    between atoms: O_18  and  C_9 
REMARK   10  A    between atoms: O_19  and  C_10 
REMARK   11  A    between atoms: N_13  and  N_12 
ROOT
HETATM    1  N   UNK N   1      32.636  16.901   9.272  0.00  0.00    -0.330 N 
HETATM    2  H   UNK N   1      32.242  17.289  10.087  0.00  0.00     0.180 HD
ENDROOT
BRANCH   1   3
HETATM    3  C   UNK N   1      32.236  17.412   7.991  0.00  0.00     0.180 C 
BRANCH   3   4
HETATM    4  C   UNK N   1      30.740  17.330   7.788  0.00  0.00    -0.003 A 
HETATM    5  C   UNK N   1      30.289  16.711   6.617  0.00  0.00     0.014 A 
HETATM    6  C   UNK N   1      28.923  16.581   6.357  0.00  0.00     0.040 A 
HETATM    7  C   UNK N   1      27.986  17.069   7.269  0.00  0.00     0.101 A 
HETATM    8  C   UNK N   1      28.413  17.692   8.446  0.00  0.00     0.133 A 
HETATM    9  C   UNK N   1      29.781  17.827   8.714  0.00  0.00     0.109 A 
BRANCH   7  10
HETATM   10  O   UNK N   1      26.673  16.935   7.013  0.00  0.00    -0.358 OA
HETATM   11  H   UNK N   1      26.193  17.647   6.639  0.00  0.00     0.217 HD
ENDBRANCH   7  10
BRANCH   8  12
HETATM   12  O   UNK N   1      27.508  18.157   9.327  0.00  0.00    -0.356 OA
HETATM   13  H   UNK N   1      26.657  18.416   9.032  0.00  0.00     0.218 HD
ENDBRANCH   8  12
BRANCH   9  14
HETATM   14  O   UNK N   1      30.155  18.427   9.860  0.00  0.00    -0.357 OA
HETATM   15  H   UNK N   1      29.707  19.196  10.154  0.00  0.00     0.217 HD
ENDBRANCH   9  14
ENDBRANCH   3   4
ENDBRANCH   1   3
BRANCH   1  16
HETATM   16  N   UNK N   1      33.552  15.887   9.393  0.00  0.00    -0.286 N 
HETATM   17  C   UNK N   1      34.658  16.102  10.016  0.00  0.00     0.154 C 
ATOM     18  HN  UNK N   1      33.358  14.970   8.993  1.00  0.00     0.188 HD
BRANCH  17  19
HETATM   19  C   UNK N   1      35.671  14.998  10.151  0.00  0.00     0.174 C 
BRANCH  19  20
HETATM   20  C   UNK N   1      35.065  13.798  10.874  0.00  0.00     0.197 C 
BRANCH  20  21
HETATM   21  O   UNK N   1      34.118  14.214  11.808  0.00  0.00    -0.398 OA
HETATM   22  H   UNK N   1      34.291  14.964  12.398  0.00  0.00     0.209 HD
ENDBRANCH  20  21
ENDBRANCH  19  20
BRANCH  19  23
HETATM   23  N   UNK N   1      36.825  15.480  10.890  0.00  0.00    -0.418 N 
HETATM   24  H   UNK N   1      37.470  16.248  10.701  0.00  0.00     0.150 HD
HETATM   25  H   UNK N   1      37.027  14.962  11.744  0.00  0.00     0.150 HD
ENDBRANCH  19  23
ENDBRANCH  17  19
BRANCH  17  26
HETATM   26  O   UNK N   1      34.909  17.321  10.544  0.00  0.00    -0.347 OA
HETATM   27  H   UNK N   1      34.705  18.120  10.101  0.00  0.00     0.219 HD
ENDBRANCH  17  26
ENDBRANCH   1  16
TORSDOF 11
ENDMDL
MODEL 3
REMARK VINA RESULT:      -5.6      2.587      6.598
REMARK  11 active torsions:
REMARK  status: ('A' for Active; 'I' for Inactive)
REMARK    1  A    between atoms: C_5  and  C_3 
REMARK    2  A    between atoms: N_12  and  C_3 
REMARK    3  A    between atoms: C_6  and  C_4 
REMARK    4  A    between atoms: O_15  and  C_4 
REMARK    5  A    between atoms: C_10  and  C_6 
REMARK    6  A    between atoms: N_11  and  C_6 
REMARK    7  A    between atoms: O_16  and  C_7 
REMARK    8  A    between atoms: O_17  and  C_8 
REMARK    9  A    between atoms: O_18  and  C_9 
REMARK   10  A    between atoms: O_19  and  C_10 
REMARK   11  A    between atoms: N_13  and  N_12 
ROOT
HETATM    1  N   UNK N   1      35.350  14.728  11.405  0.00  0.00    -0.330 N 
HETATM    2  H   UNK N   1      36.113  15.249  11.065  0.00  0.00     0.180 HD
ENDROOT
BRANCH   1   3
HETATM    3  C   UNK N   1      34.173  14.601  10.593  0.00  0.00     0.180 C 
BRANCH   3   4
HETATM    4  C   UNK N   1      34.189  15.552   9.417  0.00  0.00    -0.003 A 
HETATM    5  C   UNK N   1      33.708  15.063   8.196  0.00  0.00     0.014 A 
HETATM    6  C   UNK N   1      33.676  15.878   7.063  0.00  0.00     0.040 A 
HETATM    7  C   UNK N   1      34.122  17.198   7.135  0.00  0.00     0.101 A 
HETATM    8  C   UNK N   1      34.606  17.709   8.344  0.00  0.00     0.133 A 
HETATM    9  C   UNK N   1      34.644  16.897   9.485  0.00  0.00     0.109 A 
BRANCH   7  10
HETATM   10  O   UNK N   1      34.081  17.977   6.040  0.00  0.00    -0.358 OA
HETATM   11  H   UNK N   1      34.830  18.487   5.800  0.00  0.00     0.217 HD
ENDBRANCH   7  10
BRANCH   8  12
HETATM   12  O   UNK N   1      35.032  18.983   8.412  0.00  0.00    -0.356 OA
HETATM   13  H   UNK N   1      35.621  19.245   9.093  0.00  0.00     0.218 HD
ENDBRANCH   8  12
BRANCH   9  14
HETATM   14  O   UNK N   1      35.111  17.425  10.632  0.00  0.00    -0.357 OA
HETATM   15  H   UNK N   1      35.459  18.295  10.641  0.00  0.00     0.217 HD
ENDBRANCH   9  14
ENDBRANCH   3   4
ENDBRANCH   1   3
BRANCH   1  16
HETATM   16  N   UNK N   1      35.442  14.143  12.643  0.00  0.00    -0.286 N 
HETATM   17  C   UNK N   1      36.520  13.524  12.975  0.00  0.00     0.154 C 
ATOM     18  HN  UNK N   1      34.661  14.199  13.296  1.00  0.00     0.188 HD
BRANCH  17  19
HETATM   19  C   UNK N   1      36.629  12.878  14.328  0.00  0.00     0.174 C 
BRANCH  19  20
HETATM   20  C   UNK N   1      36.814  13.932  15.416  0.00  0.00     0.197 C 
BRANCH  20  21
HETATM   21  O   UNK N   1      37.273  15.128  14.867  0.00  0.00    -0.398 OA
HETATM   22  H   UNK N   1      37.837  15.730  15.376  0.00  0.00     0.209 HD
ENDBRANCH  20  21
ENDBRANCH  19  20
BRANCH  19  23
HETATM   23  N   UNK N   1      37.756  11.960  14.343  0.00  0.00    -0.418 N 
HETATM   24  H   UNK N   1      37.796  10.944  14.253  0.00  0.00     0.150 HD
HETATM   25  H   UNK N   1      38.664  12.407  14.465  0.00  0.00     0.150 HD
ENDBRANCH  19  23
ENDBRANCH  17  19
BRANCH  17  26
HETATM   26  O   UNK N   1      37.553  13.454  12.104  0.00  0.00    -0.347 OA
HETATM   27  H   UNK N   1      37.967  14.212  11.744  0.00  0.00     0.219 HD
ENDBRANCH  17  26
ENDBRANCH   1  16
TORSDOF 11
ENDMDL
MODEL 4
REMARK VINA RESULT:      -5.5      4.402      7.729
REMARK  11 active torsions:
REMARK  status: ('A' for Active; 'I' for Inactive)
REMARK    1  A    between atoms: C_5  and  C_3 
REMARK    2  A    between atoms: N_12  and  C_3 
REMARK    3  A    between atoms: C_6  and  C_4 
REMARK    4  A    between atoms: O_15  and  C_4 
REMARK    5  A    between atoms: C_10  and  C_6 
REMARK    6  A    between atoms: N_11  and  C_6 
REMARK    7  A    between atoms: O_16  and  C_7 
REMARK    8  A    between atoms: O_17  and  C_8 
REMARK    9  A    between atoms: O_18  and  C_9 
REMARK   10  A    between atoms: O_19  and  C_10 
REMARK   11  A    between atoms: N_13  and  N_12 
ROOT
HETATM    1  N   UNK N   1      32.229  15.165   7.058  0.00  0.00    -0.330 N 
HETATM    2  H   UNK N   1      31.675  14.367   6.900  0.00  0.00     0.180 HD
ENDROOT
BRANCH   1   3
HETATM    3  C   UNK N   1      31.853  16.408   6.445  0.00  0.00     0.180 C 
BRANCH   3   4
HETATM    4  C   UNK N   1      30.720  17.086   7.183  0.00  0.00    -0.003 A 
HETATM    5  C   UNK N   1      29.519  17.261   6.485  0.00  0.00     0.014 A 
HETATM    6  C   UNK N   1      28.419  17.866   7.095  0.00  0.00     0.040 A 
HETATM    7  C   UNK N   1      28.503  18.304   8.417  0.00  0.00     0.101 A 
HETATM    8  C   UNK N   1      29.692  18.140   9.135  0.00  0.00     0.133 A 
HETATM    9  C   UNK N   1      30.802  17.536   8.529  0.00  0.00     0.109 A 
BRANCH   7  10
HETATM   10  O   UNK N   1      27.437  18.880   8.999  0.00  0.00    -0.358 OA
HETATM   11  H   UNK N   1      26.755  19.246   8.470  0.00  0.00     0.217 HD
ENDBRANCH   7  10
BRANCH   8  12
HETATM   12  O   UNK N   1      29.771  18.559  10.411  0.00  0.00    -0.356 OA
HETATM   13  H   UNK N   1      29.389  18.047  11.097  0.00  0.00     0.218 HD
ENDBRANCH   8  12
BRANCH   9  14
HETATM   14  O   UNK N   1      31.928  17.390   9.253  0.00  0.00    -0.357 OA
HETATM   15  H   UNK N   1      31.916  17.552  10.176  0.00  0.00     0.217 HD
ENDBRANCH   9  14
ENDBRANCH   3   4
ENDBRANCH   1   3
BRANCH   1  16
HETATM   16  N   UNK N   1      33.338  15.060   7.857  0.00  0.00    -0.286 N 
HETATM   17  C   UNK N   1      33.379  14.153   8.770  0.00  0.00     0.154 C 
ATOM     18  HN  UNK N   1      34.126  15.695   7.730  1.00  0.00     0.188 HD
BRANCH  17  19
HETATM   19  C   UNK N   1      34.590  14.031   9.654  0.00  0.00     0.174 C 
BRANCH  19  20
HETATM   20  C   UNK N   1      34.370  14.766  10.973  0.00  0.00     0.197 C 
BRANCH  20  21
HETATM   21  O   UNK N   1      33.029  15.116  11.122  0.00  0.00    -0.398 OA
HETATM   22  H   UNK N   1      32.769  15.905  11.623  0.00  0.00     0.209 HD
ENDBRANCH  20  21
ENDBRANCH  19  20
BRANCH  19  23
HETATM   23  N   UNK N   1      35.750  14.585   8.975  0.00  0.00    -0.418 N 
HETATM   24  H   UNK N   1      35.879  14.893   8.011  0.00  0.00     0.150 HD
HETATM   25  H   UNK N   1      36.577  14.682   9.563  0.00  0.00     0.150 HD
ENDBRANCH  19  23
ENDBRANCH  17  19
BRANCH  17  26
HETATM   26  O   UNK N   1      32.332  13.313   8.934  0.00  0.00    -0.347 OA
HETATM   27  H   UNK N   1      31.873  13.224   9.746  0.00  0.00     0.219 HD
ENDBRANCH  17  26
ENDBRANCH   1  16
TORSDOF 11
ENDMDL
MODEL 5
REMARK VINA RESULT:      -5.5      3.708      7.874
REMARK  11 active torsions:
REMARK  status: ('A' for Active; 'I' for Inactive)
REMARK    1  A    between atoms: C_5  and  C_3 
REMARK    2  A    between atoms: N_12  and  C_3 
REMARK    3  A    between atoms: C_6  and  C_4 
REMARK    4  A    between atoms: O_15  and  C_4 
REMARK    5  A    between atoms: C_10  and  C_6 
REMARK    6  A    between atoms: N_11  and  C_6 
REMARK    7  A    between atoms: O_16  and  C_7 
REMARK    8  A    between atoms: O_17  and  C_8 
REMARK    9  A    between atoms: O_18  and  C_9 
REMARK   10  A    between atoms: O_19  and  C_10 
REMARK   11  A    between atoms: N_13  and  N_12 
ROOT
HETATM    1  N   UNK N   1      34.212  17.132   9.755  0.00  0.00    -0.330 N 
HETATM    2  H   UNK N   1      33.406  17.300  10.294  0.00  0.00     0.180 HD
ENDROOT
BRANCH   1   3
HETATM    3  C   UNK N   1      34.409  17.872   8.541  0.00  0.00     0.180 C 
BRANCH   3   4
HETATM    4  C   UNK N   1      33.312  17.611   7.532  0.00  0.00    -0.003 A 
HETATM    5  C   UNK N   1      33.696  17.487   6.192  0.00  0.00     0.014 A 
HETATM    6  C   UNK N   1      32.749  17.233   5.198  0.00  0.00     0.040 A 
HETATM    7  C   UNK N   1      31.401  17.095   5.531  0.00  0.00     0.101 A 
HETATM    8  C   UNK N   1      30.994  17.214   6.864  0.00  0.00     0.133 A 
HETATM    9  C   UNK N   1      31.937  17.471   7.868  0.00  0.00     0.109 A 
BRANCH   7  10
HETATM   10  O   UNK N   1      30.497  16.845   4.569  0.00  0.00    -0.358 OA
HETATM   11  H   UNK N   1      29.982  17.544   4.216  0.00  0.00     0.217 HD
ENDBRANCH   7  10
BRANCH   8  12
HETATM   12  O   UNK N   1      29.694  17.077   7.185  0.00  0.00    -0.356 OA
HETATM   13  H   UNK N   1      29.059  16.927   6.512  0.00  0.00     0.218 HD
ENDBRANCH   8  12
BRANCH   9  14
HETATM   14  O   UNK N   1      31.509  17.574   9.140  0.00  0.00    -0.357 OA
HETATM   15  H   UNK N   1      31.941  17.095   9.820  0.00  0.00     0.217 HD
ENDBRANCH   9  14
ENDBRANCH   3   4
ENDBRANCH   1   3
BRANCH   1  16
HETATM   16  N   UNK N   1      35.117  16.195  10.186  0.00  0.00    -0.286 N 
HETATM   17  C   UNK N   1      34.708  15.185  10.871  0.00  0.00     0.154 C 
ATOM     18  HN  UNK N   1      36.107  16.298   9.965  1.00  0.00     0.188 HD
BRANCH  17  19
HETATM   19  C   UNK N   1      35.692  14.154  11.351  0.00  0.00     0.174 C 
BRANCH  19  20
HETATM   20  C   UNK N   1      35.520  13.899  12.846  0.00  0.00     0.197 C 
BRANCH  20  21
HETATM   21  O   UNK N   1      34.430  13.061  13.078  0.00  0.00    -0.398 OA
HETATM   22  H   UNK N   1      34.124  12.875  13.979  0.00  0.00     0.209 HD
ENDBRANCH  20  21
ENDBRANCH  19  20
BRANCH  19  23
HETATM   23  N   UNK N   1      37.047  14.610  11.088  0.00  0.00    -0.418 N 
HETATM   24  H   UNK N   1      37.476  14.986  10.241  0.00  0.00     0.150 HD
HETATM   25  H   UNK N   1      37.678  14.544  11.886  0.00  0.00     0.150 HD
ENDBRANCH  19  23
ENDBRANCH  17  19
BRANCH  17  26
HETATM   26  O   UNK N   1      33.393  15.054  11.160  0.00  0.00    -0.347 OA
HETATM   27  H   UNK N   1      32.971  15.539  11.841  0.00  0.00     0.219 HD
ENDBRANCH  17  26
ENDBRANCH   1  16
TORSDOF 11
ENDMDL
MODEL 6
REMARK VINA RESULT:      -5.4      2.339      5.441
REMARK  11 active torsions:
REMARK  status: ('A' for Active; 'I' for Inactive)
REMARK    1  A    between atoms: C_5  and  C_3 
REMARK    2  A    between atoms: N_12  and  C_3 
REMARK    3  A    between atoms: C_6  and  C_4 
REMARK    4  A    between atoms: O_15  and  C_4 
REMARK    5  A    between atoms: C_10  and  C_6 
REMARK    6  A    between atoms: N_11  and  C_6 
REMARK    7  A    between atoms: O_16  and  C_7 
REMARK    8  A    between atoms: O_17  and  C_8 
REMARK    9  A    between atoms: O_18  and  C_9 
REMARK   10  A    between atoms: O_19  and  C_10 
REMARK   11  A    between atoms: N_13  and  N_12 
ROOT
HETATM    1  N   UNK N   1      37.565  13.296  11.777  0.00  0.00    -0.330 N 
HETATM    2  H   UNK N   1      38.429  13.769  11.780  0.00  0.00     0.180 HD
ENDROOT
BRANCH   1   3
HETATM    3  C   UNK N   1      36.931  13.007  10.522  0.00  0.00     0.180 C 
BRANCH   3   4
HETATM    4  C   UNK N   1      35.902  14.053  10.150  0.00  0.00    -0.003 A 
HETATM    5  C   UNK N   1      34.658  13.592   9.704  0.00  0.00     0.014 A 
HETATM    6  C   UNK N   1      33.648  14.489   9.353  0.00  0.00     0.040 A 
HETATM    7  C   UNK N   1      33.867  15.864   9.446  0.00  0.00     0.101 A 
HETATM    8  C   UNK N   1      35.102  16.348   9.890  0.00  0.00     0.133 A 
HETATM    9  C   UNK N   1      36.122  15.454  10.243  0.00  0.00     0.109 A 
BRANCH   7  10
HETATM   10  O   UNK N   1      32.886  16.721   9.112  0.00  0.00    -0.358 OA
HETATM   11  H   UNK N   1      32.073  16.707   9.578  0.00  0.00     0.217 HD
ENDBRANCH   7  10
BRANCH   8  12
HETATM   12  O   UNK N   1      35.310  17.674   9.984  0.00  0.00    -0.356 OA
HETATM   13  H   UNK N   1      35.158  18.116  10.796  0.00  0.00     0.218 HD
ENDBRANCH   8  12
BRANCH   9  14
HETATM   14  O   UNK N   1      37.295  15.957  10.671  0.00  0.00    -0.357 OA
HETATM   15  H   UNK N   1      38.026  15.388  10.810  0.00  0.00     0.217 HD
ENDBRANCH   9  14
ENDBRANCH   3   4
ENDBRANCH   1   3
BRANCH   1  16
HETATM   16  N   UNK N   1      37.002  12.932  12.973  0.00  0.00    -0.286 N 
HETATM   17  C   UNK N   1      36.467  13.831  13.724  0.00  0.00     0.154 C 
ATOM     18  HN  UNK N   1      37.005  11.955  13.267  1.00  0.00     0.188 HD
BRANCH  17  19
HETATM   19  C   UNK N   1      35.850  13.442  15.039  0.00  0.00     0.174 C 
BRANCH  19  20
HETATM   20  C   UNK N   1      36.598  14.094  16.199  0.00  0.00     0.197 C 
BRANCH  20  21
HETATM   21  O   UNK N   1      37.712  14.790  15.734  0.00  0.00    -0.398 OA
HETATM   22  H   UNK N   1      38.612  14.508  15.963  0.00  0.00     0.209 HD
ENDBRANCH  20  21
ENDBRANCH  19  20
BRANCH  19  23
HETATM   23  N   UNK N   1      35.883  11.997  15.188  0.00  0.00    -0.418 N 
HETATM   24  H   UNK N   1      35.189  11.344  15.553  0.00  0.00     0.150 HD
HETATM   25  H   UNK N   1      36.748  11.560  14.872  0.00  0.00     0.150 HD
ENDBRANCH  19  23
ENDBRANCH  17  19
BRANCH  17  26
HETATM   26  O   UNK N   1      36.465  15.124  13.329  0.00  0.00    -0.347 OA
HETATM   27  H   UNK N   1      37.228  15.558  13.001  0.00  0.00     0.219 HD
ENDBRANCH  17  26
ENDBRANCH   1  16
TORSDOF 11
ENDMDL
MODEL 7
REMARK VINA RESULT:      -5.2     18.497     20.810
REMARK  11 active torsions:
REMARK  status: ('A' for Active; 'I' for Inactive)
REMARK    1  A    between atoms: C_5  and  C_3 
REMARK    2  A    between atoms: N_12  and  C_3 
REMARK    3  A    between atoms: C_6  and  C_4 
REMARK    4  A    between atoms: O_15  and  C_4 
REMARK    5  A    between atoms: C_10  and  C_6 
REMARK    6  A    between atoms: N_11  and  C_6 
REMARK    7  A    between atoms: O_16  and  C_7 
REMARK    8  A    between atoms: O_17  and  C_8 
REMARK    9  A    between atoms: O_18  and  C_9 
REMARK   10  A    between atoms: O_19  and  C_10 
REMARK   11  A    between atoms: N_13  and  N_12 
ROOT
HETATM    1  N   UNK N   1      28.659  24.419  -6.189  0.00  0.00    -0.330 N 
HETATM    2  H   UNK N   1      29.493  24.825  -6.518  0.00  0.00     0.180 HD
ENDROOT
BRANCH   1   3
HETATM    3  C   UNK N   1      28.614  23.002  -5.960  0.00  0.00     0.180 C 
BRANCH   3   4
HETATM    4  C   UNK N   1      29.583  22.569  -4.883  0.00  0.00    -0.003 A 
HETATM    5  C   UNK N   1      30.566  21.641  -5.245  0.00  0.00     0.014 A 
HETATM    6  C   UNK N   1      31.508  21.197  -4.315  0.00  0.00     0.040 A 
HETATM    7  C   UNK N   1      31.482  21.679  -3.006  0.00  0.00     0.101 A 
HETATM    8  C   UNK N   1      30.510  22.608  -2.621  0.00  0.00     0.133 A 
HETATM    9  C   UNK N   1      29.560  23.057  -3.547  0.00  0.00     0.109 A 
BRANCH   7  10
HETATM   10  O   UNK N   1      32.397  21.251  -2.119  0.00  0.00    -0.358 OA
HETATM   11  H   UNK N   1      32.251  20.458  -1.641  0.00  0.00     0.217 HD
ENDBRANCH   7  10
BRANCH   8  12
HETATM   12  O   UNK N   1      30.490  23.075  -1.359  0.00  0.00    -0.356 OA
HETATM   13  H   UNK N   1      29.965  22.649  -0.710  0.00  0.00     0.218 HD
ENDBRANCH   8  12
BRANCH   9  14
HETATM   14  O   UNK N   1      28.643  23.955  -3.142  0.00  0.00    -0.357 OA
HETATM   15  H   UNK N   1      27.730  23.755  -3.207  0.00  0.00     0.217 HD
ENDBRANCH   9  14
ENDBRANCH   3   4
ENDBRANCH   1   3
BRANCH   1  16
HETATM   16  N   UNK N   1      27.571  25.223  -5.962  0.00  0.00    -0.286 N 
HETATM   17  C   UNK N   1      27.701  26.278  -5.236  0.00  0.00     0.154 C 
ATOM     18  HN  UNK N   1      26.665  24.987  -6.367  1.00  0.00     0.188 HD
BRANCH  17  19
HETATM   19  C   UNK N   1      26.514  27.165  -4.979  0.00  0.00     0.174 C 
BRANCH  19  20
HETATM   20  C   UNK N   1      26.029  27.012  -3.540  0.00  0.00     0.197 C 
BRANCH  20  21
HETATM   21  O   UNK N   1      26.430  25.785  -3.015  0.00  0.00    -0.398 OA
HETATM   22  H   UNK N   1      25.912  25.341  -2.325  0.00  0.00     0.209 HD
ENDBRANCH  20  21
ENDBRANCH  19  20
BRANCH  19  23
HETATM   23  N   UNK N   1      25.438  26.821  -5.894  0.00  0.00    -0.418 N 
HETATM   24  H   UNK N   1      25.258  27.109  -6.857  0.00  0.00     0.150 HD
HETATM   25  H   UNK N   1      24.744  26.181  -5.509  0.00  0.00     0.150 HD
ENDBRANCH  19  23
ENDBRANCH  17  19
BRANCH  17  26
HETATM   26  O   UNK N   1      28.905  26.585  -4.703  0.00  0.00    -0.347 OA
HETATM   27  H   UNK N   1      29.233  27.462  -4.656  0.00  0.00     0.219 HD
ENDBRANCH  17  26
ENDBRANCH   1  16
TORSDOF 11
ENDMDL
MODEL 8
REMARK VINA RESULT:      -5.1      3.297      4.249
REMARK  11 active torsions:
REMARK  status: ('A' for Active; 'I' for Inactive)
REMARK    1  A    between atoms: C_5  and  C_3 
REMARK    2  A    between atoms: N_12  and  C_3 
REMARK    3  A    between atoms: C_6  and  C_4 
REMARK    4  A    between atoms: O_15  and  C_4 
REMARK    5  A    between atoms: C_10  and  C_6 
REMARK    6  A    between atoms: N_11  and  C_6 
REMARK    7  A    between atoms: O_16  and  C_7 
REMARK    8  A    between atoms: O_17  and  C_8 
REMARK    9  A    between atoms: O_18  and  C_9 
REMARK   10  A    between atoms: O_19  and  C_10 
REMARK   11  A    between atoms: N_13  and  N_12 
ROOT
HETATM    1  N   UNK N   1      32.491  13.000   9.327  0.00  0.00    -0.330 N 
HETATM    2  H   UNK N   1      31.756  12.755   9.934  0.00  0.00     0.180 HD
ENDROOT
BRANCH   1   3
HETATM    3  C   UNK N   1      33.656  12.163   9.267  0.00  0.00     0.180 C 
BRANCH   3   4
HETATM    4  C   UNK N   1      34.926  12.934   9.551  0.00  0.00    -0.003 A 
HETATM    5  C   UNK N   1      35.992  12.755   8.661  0.00  0.00     0.014 A 
HETATM    6  C   UNK N   1      37.196  13.439   8.842  0.00  0.00     0.040 A 
HETATM    7  C   UNK N   1      37.351  14.315   9.917  0.00  0.00     0.101 A 
HETATM    8  C   UNK N   1      36.299  14.510  10.818  0.00  0.00     0.133 A 
HETATM    9  C   UNK N   1      35.088  13.827  10.645  0.00  0.00     0.109 A 
BRANCH   7  10
HETATM   10  O   UNK N   1      38.511  14.973  10.080  0.00  0.00    -0.358 OA
HETATM   11  H   UNK N   1      38.625  15.824   9.702  0.00  0.00     0.217 HD
ENDBRANCH   7  10
BRANCH   8  12
HETATM   12  O   UNK N   1      36.449  15.360  11.851  0.00  0.00    -0.356 OA
HETATM   13  H   UNK N   1      36.718  16.243  11.696  0.00  0.00     0.218 HD
ENDBRANCH   8  12
BRANCH   9  14
HETATM   14  O   UNK N   1      34.097  14.044  11.530  0.00  0.00    -0.357 OA
HETATM   15  H   UNK N   1      33.957  13.442  12.234  0.00  0.00     0.217 HD
ENDBRANCH   9  14
ENDBRANCH   3   4
ENDBRANCH   1   3
BRANCH   1  16
HETATM   16  N   UNK N   1      32.374  14.132   8.562  0.00  0.00    -0.286 N 
HETATM   17  C   UNK N   1      31.967  15.226   9.105  0.00  0.00     0.154 C 
ATOM     18  HN  UNK N   1      32.608  14.108   7.569  1.00  0.00     0.188 HD
BRANCH  17  19
HETATM   19  C   UNK N   1      31.832  16.473   8.274  0.00  0.00     0.174 C 
BRANCH  19  20
HETATM   20  C   UNK N   1      32.958  17.454   8.588  0.00  0.00     0.197 C 
BRANCH  20  21
HETATM   21  O   UNK N   1      33.821  16.921   9.545  0.00  0.00    -0.398 OA
HETATM   22  H   UNK N   1      34.144  16.010   9.476  0.00  0.00     0.209 HD
ENDBRANCH  20  21
ENDBRANCH  19  20
BRANCH  19  23
HETATM   23  N   UNK N   1      30.550  17.102   8.540  0.00  0.00    -0.418 N 
HETATM   24  H   UNK N   1      30.140  17.966   8.185  0.00  0.00     0.150 HD
HETATM   25  H   UNK N   1      29.956  16.592   9.194  0.00  0.00     0.150 HD
ENDBRANCH  19  23
ENDBRANCH  17  19
BRANCH  17  26
HETATM   26  O   UNK N   1      31.659  15.252  10.421  0.00  0.00    -0.347 OA
HETATM   27  H   UNK N   1      32.095  15.809  11.035  0.00  0.00     0.219 HD
ENDBRANCH  17  26
ENDBRANCH   1  16
TORSDOF 11
ENDMDL
MODEL 9
REMARK VINA RESULT:      -5.1      3.434      5.026
REMARK  11 active torsions:
REMARK  status: ('A' for Active; 'I' for Inactive)
REMARK    1  A    between atoms: C_5  and  C_3 
REMARK    2  A    between atoms: N_12  and  C_3 
REMARK    3  A    between atoms: C_6  and  C_4 
REMARK    4  A    between atoms: O_15  and  C_4 
REMARK    5  A    between atoms: C_10  and  C_6 
REMARK    6  A    between atoms: N_11  and  C_6 
REMARK    7  A    between atoms: O_16  and  C_7 
REMARK    8  A    between atoms: O_17  and  C_8 
REMARK    9  A    between atoms: O_18  and  C_9 
REMARK   10  A    between atoms: O_19  and  C_10 
REMARK   11  A    between atoms: N_13  and  N_12 
ROOT
HETATM    1  N   UNK N   1      31.960  15.414   9.974  0.00  0.00    -0.330 N 
HETATM    2  H   UNK N   1      32.211  15.626  10.902  0.00  0.00     0.180 HD
ENDROOT
BRANCH   1   3
HETATM    3  C   UNK N   1      32.709  14.420   9.258  0.00  0.00     0.180 C 
BRANCH   3   4
HETATM    4  C   UNK N   1      34.115  14.270   9.796  0.00  0.00    -0.003 A 
HETATM    5  C   UNK N   1      34.618  12.969   9.911  0.00  0.00     0.014 A 
HETATM    6  C   UNK N   1      35.911  12.742  10.386  0.00  0.00     0.040 A 
HETATM    7  C   UNK N   1      36.723  13.816  10.752  0.00  0.00     0.101 A 
HETATM    8  C   UNK N   1      36.242  15.125  10.646  0.00  0.00     0.133 A 
HETATM    9  C   UNK N   1      34.945  15.362  10.172  0.00  0.00     0.109 A 
BRANCH   7  10
HETATM   10  O   UNK N   1      37.968  13.588  11.203  0.00  0.00    -0.358 OA
HETATM   11  H   UNK N   1      38.698  14.016  10.800  0.00  0.00     0.217 HD
ENDBRANCH   7  10
BRANCH   8  12
HETATM   12  O   UNK N   1      37.027  16.160  10.995  0.00  0.00    -0.356 OA
HETATM   13  H   UNK N   1      37.955  16.107  10.874  0.00  0.00     0.218 HD
ENDBRANCH   8  12
BRANCH   9  14
HETATM   14  O   UNK N   1      34.518  16.635  10.078  0.00  0.00    -0.357 OA
HETATM   15  H   UNK N   1      34.626  17.220  10.802  0.00  0.00     0.217 HD
ENDBRANCH   9  14
ENDBRANCH   3   4
ENDBRANCH   1   3
BRANCH   1  16
HETATM   16  N   UNK N   1      30.904  16.076   9.401  0.00  0.00    -0.286 N 
HETATM   17  C   UNK N   1      31.100  17.219   8.842  0.00  0.00     0.154 C 
ATOM     18  HN  UNK N   1      29.971  15.666   9.417  1.00  0.00     0.188 HD
BRANCH  17  19
HETATM   19  C   UNK N   1      29.949  17.955   8.213  0.00  0.00     0.174 C 
BRANCH  19  20
HETATM   20  C   UNK N   1      29.046  18.558   9.285  0.00  0.00     0.197 C 
BRANCH  20  21
HETATM   21  O   UNK N   1      29.743  18.716  10.483  0.00  0.00    -0.398 OA
HETATM   22  H   UNK N   1      30.333  18.021  10.814  0.00  0.00     0.209 HD
ENDBRANCH  20  21
ENDBRANCH  19  20
BRANCH  19  23
HETATM   23  N   UNK N   1      29.179  17.043   7.384  0.00  0.00    -0.418 N 
HETATM   24  H   UNK N   1      29.216  16.028   7.290  0.00  0.00     0.150 HD
HETATM   25  H   UNK N   1      28.480  17.495   6.795  0.00  0.00     0.150 HD
ENDBRANCH  19  23
ENDBRANCH  17  19
BRANCH  17  26
HETATM   26  O   UNK N   1      32.341  17.757   8.823  0.00  0.00    -0.347 OA
HETATM   27  H   UNK N   1      32.857  17.819   8.044  0.00  0.00     0.219 HD
ENDBRANCH  17  26
ENDBRANCH   1  16
TORSDOF 11
ENDMDL
