MODEL 1
REMARK VINA RESULT:      -5.0      0.000      0.000
REMARK  8 active torsions:
REMARK  status: ('A' for Active; 'I' for Inactive)
REMARK    1  A    between atoms: C_2  and  C_3 
REMARK    2  A    between atoms: C_3  and  C_4 
REMARK    3  A    between atoms: C_3  and  C_6 
REMARK    4  A    between atoms: C_6  and  C_7 
REMARK    5  A    between atoms: C_6  and  N_9 
REMARK    6  A    between atoms: C_7  and  O_8 
REMARK    7  A    between atoms: N_9  and  S_10 
REMARK    8  A    between atoms: S_10  and  C_13 
ROOT
HETATM    1  N   UNK N   1      31.093  23.174  -4.455  0.00  0.00    -0.308 N 
HETATM    2  H   UNK N   1      31.822  23.472  -5.103  0.00  0.00     0.172 HD
ENDROOT
BRANCH   1   3
HETATM    3  C   UNK N   1      30.621  21.798  -4.315  0.00  0.00     0.120 C 
BRANCH   3   4
HETATM    4  C   UNK N   1      29.980  21.311  -5.625  0.00  0.00     0.010 C 
BRANCH   4   5
HETATM    5  C   UNK N   1      30.757  20.179  -6.310  0.00  0.00     0.002 C 
HETATM    6  C   UNK N   1      29.945  19.448  -7.370  0.00  0.00     0.005 C 
ENDBRANCH   4   5
BRANCH   4   7
HETATM    7  C   UNK N   1      29.600  22.442  -6.577  0.00  0.00     0.002 C 
HETATM    8  C   UNK N   1      28.090  22.519  -6.715  0.00  0.00     0.005 C 
ENDBRANCH   4   7
ENDBRANCH   3   4
BRANCH   3   9
HETATM    9  C   UNK N   1      31.772  20.916  -3.851  0.00  0.00     0.190 C 
BRANCH   9  10
HETATM   10  O   UNK N   1      32.045  21.165  -2.506  0.00  0.00    -0.399 OA
HETATM   11  H   UNK N   1      31.318  21.279  -1.875  0.00  0.00     0.209 HD
ENDBRANCH   9  10
ENDBRANCH   3   9
ENDBRANCH   1   3
BRANCH   1  12
HETATM   12  S   UNK N   1      30.227  24.255  -3.344  0.00  0.00     0.265 S 
HETATM   13  O   UNK N   1      30.331  23.579  -1.967  0.00  0.00    -0.200 OA
HETATM   14  O   UNK N   1      31.096  25.512  -3.159  0.00  0.00    -0.200 OA
BRANCH  12  15
HETATM   15  C   UNK N   1      28.543  24.649  -3.776  0.00  0.00     0.121 A 
HETATM   16  C   UNK N   1      27.399  23.982  -3.327  0.00  0.00     0.035 A 
HETATM   17  C   UNK N   1      26.195  24.539  -3.844  0.00  0.00     0.033 A 
HETATM   18  C   UNK N   1      26.419  25.633  -4.688  0.00  0.00     0.075 A 
HETATM   19  S   UNK N   1      28.052  25.877  -4.770  0.00  0.00    -0.064 SA
HETATM   20 Cl   UNK N   1      25.197  26.577  -5.509  0.00  0.00    -0.076 Cl
ENDBRANCH  12  15
ENDBRANCH   1  12
TORSDOF 8
ENDMDL
MODEL 2
REMARK VINA RESULT:      -4.9      3.802      6.229
REMARK  8 active torsions:
REMARK  status: ('A' for Active; 'I' for Inactive)
REMARK    1  A    between atoms: C_2  and  C_3 
REMARK    2  A    between atoms: C_3  and  C_4 
REMARK    3  A    between atoms: C_3  and  C_6 
REMARK    4  A    between atoms: C_6  and  C_7 
REMARK    5  A    between atoms: C_6  and  N_9 
REMARK    6  A    between atoms: C_7  and  O_8 
REMARK    7  A    between atoms: N_9  and  S_10 
REMARK    8  A    between atoms: S_10  and  C_13 
ROOT
HETATM    1  N   UNK N   1      26.070  26.180  -3.862  0.00  0.00    -0.308 N 
HETATM    2  H   UNK N   1      25.083  26.150  -3.607  0.00  0.00     0.172 HD
ENDROOT
BRANCH   1   3
HETATM    3  C   UNK N   1      26.798  27.396  -4.214  0.00  0.00     0.120 C 
BRANCH   3   4
HETATM    4  C   UNK N   1      26.489  27.811  -5.662  0.00  0.00     0.010 C 
BRANCH   4   5
HETATM    5  C   UNK N   1      25.356  27.005  -6.309  0.00  0.00     0.002 C 
HETATM    6  C   UNK N   1      25.740  26.394  -7.649  0.00  0.00     0.005 C 
ENDBRANCH   4   5
BRANCH   4   7
HETATM    7  C   UNK N   1      27.731  27.919  -6.545  0.00  0.00     0.002 C 
HETATM    8  C   UNK N   1      28.221  29.355  -6.576  0.00  0.00     0.005 C 
ENDBRANCH   4   7
ENDBRANCH   3   4
BRANCH   3   9
HETATM    9  C   UNK N   1      26.477  28.486  -3.202  0.00  0.00     0.190 C 
BRANCH   9  10
HETATM   10  O   UNK N   1      25.910  29.583  -3.852  0.00  0.00    -0.399 OA
HETATM   11  H   UNK N   1      25.651  30.368  -3.346  0.00  0.00     0.209 HD
ENDBRANCH   9  10
ENDBRANCH   3   9
ENDBRANCH   1   3
BRANCH   1  12
HETATM   12  S   UNK N   1      27.136  24.761  -3.936  0.00  0.00     0.265 S 
HETATM   13  O   UNK N   1      28.559  25.324  -3.793  0.00  0.00    -0.200 OA
HETATM   14  O   UNK N   1      26.956  23.986  -2.618  0.00  0.00    -0.200 OA
BRANCH  12  15
HETATM   15  C   UNK N   1      26.963  23.716  -5.370  0.00  0.00     0.121 A 
HETATM   16  C   UNK N   1      25.759  23.298  -5.944  0.00  0.00     0.035 A 
HETATM   17  C   UNK N   1      25.950  22.474  -7.090  0.00  0.00     0.033 A 
HETATM   18  C   UNK N   1      27.299  22.264  -7.391  0.00  0.00     0.075 A 
HETATM   19  S   UNK N   1      28.197  23.078  -6.267  0.00  0.00    -0.064 SA
HETATM   20 Cl   UNK N   1      27.930  21.312  -8.717  0.00  0.00    -0.076 Cl
ENDBRANCH  12  15
ENDBRANCH   1  12
TORSDOF 8
ENDMDL
MODEL 3
REMARK VINA RESULT:      -4.9     17.983     19.909
REMARK  8 active torsions:
REMARK  status: ('A' for Active; 'I' for Inactive)
REMARK    1  A    between atoms: C_2  and  C_3 
REMARK    2  A    between atoms: C_3  and  C_4 
REMARK    3  A    between atoms: C_3  and  C_6 
REMARK    4  A    between atoms: C_6  and  C_7 
REMARK    5  A    between atoms: C_6  and  N_9 
REMARK    6  A    between atoms: C_7  and  O_8 
REMARK    7  A    between atoms: N_9  and  S_10 
REMARK    8  A    between atoms: S_10  and  C_13 
ROOT
HETATM    1  N   UNK N   1      34.160  14.376  10.876  0.00  0.00    -0.308 N 
HETATM    2  H   UNK N   1      33.164  14.473  11.072  0.00  0.00     0.172 HD
ENDROOT
BRANCH   1   3
HETATM    3  C   UNK N   1      34.928  15.274  10.018  0.00  0.00     0.120 C 
BRANCH   3   4
HETATM    4  C   UNK N   1      34.039  15.842   8.898  0.00  0.00     0.010 C 
BRANCH   4   5
HETATM    5  C   UNK N   1      34.083  17.372   8.790  0.00  0.00     0.002 C 
HETATM    6  C   UNK N   1      32.781  17.976   8.285  0.00  0.00     0.005 C 
ENDBRANCH   4   5
BRANCH   4   7
HETATM    7  C   UNK N   1      32.621  15.278   8.899  0.00  0.00     0.002 C 
HETATM    8  C   UNK N   1      32.412  14.398   7.680  0.00  0.00     0.005 C 
ENDBRANCH   4   7
ENDBRANCH   3   4
BRANCH   3   9
HETATM    9  C   UNK N   1      35.574  16.356  10.872  0.00  0.00     0.190 C 
BRANCH   9  10
HETATM   10  O   UNK N   1      36.954  16.162  10.915  0.00  0.00    -0.399 OA
HETATM   11  H   UNK N   1      37.552  16.925  10.957  0.00  0.00     0.209 HD
ENDBRANCH   9  10
ENDBRANCH   3   9
ENDBRANCH   1   3
BRANCH   1  12
HETATM   12  S   UNK N   1      35.196  13.091  11.533  0.00  0.00     0.265 S 
HETATM   13  O   UNK N   1      34.518  11.777  11.112  0.00  0.00    -0.200 OA
HETATM   14  O   UNK N   1      36.489  13.075  10.699  0.00  0.00    -0.200 OA
BRANCH  12  15
HETATM   15  C   UNK N   1      35.517  13.154  13.285  0.00  0.00     0.121 A 
HETATM   16  C   UNK N   1      36.378  14.044  13.934  0.00  0.00     0.035 A 
HETATM   17  C   UNK N   1      36.414  13.850  15.344  0.00  0.00     0.033 A 
HETATM   18  C   UNK N   1      35.581  12.811  15.773  0.00  0.00     0.075 A 
HETATM   19  S   UNK N   1      34.840  12.179  14.437  0.00  0.00    -0.064 SA
HETATM   20 Cl   UNK N   1      35.358  12.274  17.423  0.00  0.00    -0.076 Cl
ENDBRANCH  12  15
ENDBRANCH   1  12
TORSDOF 8
ENDMDL
MODEL 4
REMARK VINA RESULT:      -4.9     13.426     15.222
REMARK  8 active torsions:
REMARK  status: ('A' for Active; 'I' for Inactive)
REMARK    1  A    between atoms: C_2  and  C_3 
REMARK    2  A    between atoms: C_3  and  C_4 
REMARK    3  A    between atoms: C_3  and  C_6 
REMARK    4  A    between atoms: C_6  and  C_7 
REMARK    5  A    between atoms: C_6  and  N_9 
REMARK    6  A    between atoms: C_7  and  O_8 
REMARK    7  A    between atoms: N_9  and  S_10 
REMARK    8  A    between atoms: S_10  and  C_13 
ROOT
HETATM    1  N   UNK N   1      34.513  17.546   6.536  0.00  0.00    -0.308 N 
HETATM    2  H   UNK N   1      35.282  17.905   5.969  0.00  0.00     0.172 HD
ENDROOT
BRANCH   1   3
HETATM    3  C   UNK N   1      33.492  16.619   6.055  0.00  0.00     0.120 C 
BRANCH   3   4
HETATM    4  C   UNK N   1      32.505  17.338   5.121  0.00  0.00     0.010 C 
BRANCH   4   5
HETATM    5  C   UNK N   1      31.032  17.113   5.486  0.00  0.00     0.002 C 
HETATM    6  C   UNK N   1      30.843  16.215   6.700  0.00  0.00     0.005 C 
ENDBRANCH   4   5
BRANCH   4   7
HETATM    7  C   UNK N   1      32.798  17.121   3.639  0.00  0.00     0.002 C 
HETATM    8  C   UNK N   1      31.523  16.742   2.907  0.00  0.00     0.005 C 
ENDBRANCH   4   7
ENDBRANCH   3   4
BRANCH   3   9
HETATM    9  C   UNK N   1      34.168  15.422   5.399  0.00  0.00     0.190 C 
BRANCH   9  10
HETATM   10  O   UNK N   1      35.526  15.413   5.719  0.00  0.00    -0.399 OA
HETATM   11  H   UNK N   1      35.807  15.437   6.647  0.00  0.00     0.209 HD
ENDBRANCH   9  10
ENDBRANCH   3   9
ENDBRANCH   1   3
BRANCH   1  12
HETATM   12  S   UNK N   1      34.235  17.965   8.239  0.00  0.00     0.265 S 
HETATM   13  O   UNK N   1      35.202  19.125   8.528  0.00  0.00    -0.200 OA
HETATM   14  O   UNK N   1      32.862  18.654   8.323  0.00  0.00    -0.200 OA
BRANCH  12  15
HETATM   15  C   UNK N   1      34.404  16.637   9.417  0.00  0.00     0.121 A 
HETATM   16  C   UNK N   1      33.702  15.427   9.400  0.00  0.00     0.035 A 
HETATM   17  C   UNK N   1      34.065  14.564  10.473  0.00  0.00     0.033 A 
HETATM   18  C   UNK N   1      35.043  15.113  11.308  0.00  0.00     0.075 A 
HETATM   19  S   UNK N   1      35.425  16.609  10.717  0.00  0.00    -0.064 SA
HETATM   20 Cl   UNK N   1      35.740  14.359  12.724  0.00  0.00    -0.076 Cl
ENDBRANCH  12  15
ENDBRANCH   1  12
TORSDOF 8
ENDMDL
MODEL 5
REMARK VINA RESULT:      -4.9     14.049     15.856
REMARK  8 active torsions:
REMARK  status: ('A' for Active; 'I' for Inactive)
REMARK    1  A    between atoms: C_2  and  C_3 
REMARK    2  A    between atoms: C_3  and  C_4 
REMARK    3  A    between atoms: C_3  and  C_6 
REMARK    4  A    between atoms: C_6  and  C_7 
REMARK    5  A    between atoms: C_6  and  N_9 
REMARK    6  A    between atoms: C_7  and  O_8 
REMARK    7  A    between atoms: N_9  and  S_10 
REMARK    8  A    between atoms: S_10  and  C_13 
ROOT
HETATM    1  N   UNK N   1      32.479  18.227   7.764  0.00  0.00    -0.308 N 
HETATM    2  H   UNK N   1      32.076  19.146   7.948  0.00  0.00     0.172 HD
ENDROOT
BRANCH   1   3
HETATM    3  C   UNK N   1      31.746  17.102   7.190  0.00  0.00     0.120 C 
BRANCH   3   4
HETATM    4  C   UNK N   1      30.348  16.989   7.820  0.00  0.00     0.010 C 
BRANCH   4   5
HETATM    5  C   UNK N   1      29.263  17.767   7.064  0.00  0.00     0.002 C 
HETATM    6  C   UNK N   1      28.067  16.909   6.677  0.00  0.00     0.005 C 
ENDBRANCH   4   5
BRANCH   4   7
HETATM    7  C   UNK N   1      30.334  17.246   9.326  0.00  0.00     0.002 C 
HETATM    8  C   UNK N   1      29.563  18.518   9.628  0.00  0.00     0.005 C 
ENDBRANCH   4   7
ENDBRANCH   3   4
BRANCH   3   9
HETATM    9  C   UNK N   1      31.705  17.248   5.675  0.00  0.00     0.190 C 
BRANCH   9  10
HETATM   10  O   UNK N   1      32.536  16.294   5.086  0.00  0.00    -0.399 OA
HETATM   11  H   UNK N   1      32.482  15.366   5.361  0.00  0.00     0.209 HD
ENDBRANCH   9  10
ENDBRANCH   3   9
ENDBRANCH   1   3
BRANCH   1  12
HETATM   12  S   UNK N   1      34.165  17.780   8.095  0.00  0.00     0.265 S 
HETATM   13  O   UNK N   1      34.736  17.341   6.737  0.00  0.00    -0.200 OA
HETATM   14  O   UNK N   1      34.938  19.082   8.371  0.00  0.00    -0.200 OA
BRANCH  12  15
HETATM   15  C   UNK N   1      34.423  16.554   9.363  0.00  0.00     0.121 A 
HETATM   16  C   UNK N   1      33.796  15.306   9.443  0.00  0.00     0.035 A 
HETATM   17  C   UNK N   1      34.219  14.546  10.570  0.00  0.00     0.033 A 
HETATM   18  C   UNK N   1      35.168  15.213  11.352  0.00  0.00     0.075 A 
HETATM   19  S   UNK N   1      35.454  16.682  10.650  0.00  0.00    -0.064 SA
HETATM   20 Cl   UNK N   1      35.921  14.607  12.811  0.00  0.00    -0.076 Cl
ENDBRANCH  12  15
ENDBRANCH   1  12
TORSDOF 8
ENDMDL
MODEL 6
REMARK VINA RESULT:      -4.9     11.246     12.225
REMARK  8 active torsions:
REMARK  status: ('A' for Active; 'I' for Inactive)
REMARK    1  A    between atoms: C_2  and  C_3 
REMARK    2  A    between atoms: C_3  and  C_4 
REMARK    3  A    between atoms: C_3  and  C_6 
REMARK    4  A    between atoms: C_6  and  C_7 
REMARK    5  A    between atoms: C_6  and  N_9 
REMARK    6  A    between atoms: C_7  and  O_8 
REMARK    7  A    between atoms: N_9  and  S_10 
REMARK    8  A    between atoms: S_10  and  C_13 
ROOT
HETATM    1  N   UNK N   1      23.891  18.278   5.620  0.00  0.00    -0.308 N 
HETATM    2  H   UNK N   1      24.276  18.932   6.301  0.00  0.00     0.172 HD
ENDROOT
BRANCH   1   3
HETATM    3  C   UNK N   1      24.667  17.625   4.569  0.00  0.00     0.120 C 
BRANCH   3   4
HETATM    4  C   UNK N   1      25.405  18.670   3.714  0.00  0.00     0.010 C 
BRANCH   4   5
HETATM    5  C   UNK N   1      26.933  18.554   3.777  0.00  0.00     0.002 C 
HETATM    6  C   UNK N   1      27.613  19.822   4.273  0.00  0.00     0.005 C 
ENDBRANCH   4   5
BRANCH   4   7
HETATM    7  C   UNK N   1      24.899  20.095   3.921  0.00  0.00     0.002 C 
HETATM    8  C   UNK N   1      24.265  20.612   2.643  0.00  0.00     0.005 C 
ENDBRANCH   4   7
ENDBRANCH   3   4
BRANCH   3   9
HETATM    9  C   UNK N   1      25.604  16.602   5.196  0.00  0.00     0.190 C 
BRANCH   9  10
HETATM   10  O   UNK N   1      25.082  16.170   6.415  0.00  0.00    -0.399 OA
HETATM   11  H   UNK N   1      24.150  16.329   6.630  0.00  0.00     0.209 HD
ENDBRANCH   9  10
ENDBRANCH   3   9
ENDBRANCH   1   3
BRANCH   1  12
HETATM   12  S   UNK N   1      22.189  17.777   5.551  0.00  0.00     0.265 S 
HETATM   13  O   UNK N   1      22.174  16.339   6.095  0.00  0.00    -0.200 OA
HETATM   14  O   UNK N   1      21.440  18.552   6.651  0.00  0.00    -0.200 OA
BRANCH  12  15
HETATM   15  C   UNK N   1      21.390  17.906   3.963  0.00  0.00     0.121 A 
HETATM   16  C   UNK N   1      20.941  19.086   3.360  0.00  0.00     0.035 A 
HETATM   17  C   UNK N   1      20.351  18.864   2.083  0.00  0.00     0.033 A 
HETATM   18  C   UNK N   1      20.349  17.515   1.710  0.00  0.00     0.075 A 
HETATM   19  S   UNK N   1      21.058  16.657   2.932  0.00  0.00    -0.064 SA
HETATM   20 Cl   UNK N   1      19.715  16.851   0.221  0.00  0.00    -0.076 Cl
ENDBRANCH  12  15
ENDBRANCH   1  12
TORSDOF 8
ENDMDL
MODEL 7
REMARK VINA RESULT:      -4.8     14.637     16.405
REMARK  8 active torsions:
REMARK  status: ('A' for Active; 'I' for Inactive)
REMARK    1  A    between atoms: C_2  and  C_3 
REMARK    2  A    between atoms: C_3  and  C_4 
REMARK    3  A    between atoms: C_3  and  C_6 
REMARK    4  A    between atoms: C_6  and  C_7 
REMARK    5  A    between atoms: C_6  and  N_9 
REMARK    6  A    between atoms: C_7  and  O_8 
REMARK    7  A    between atoms: N_9  and  S_10 
REMARK    8  A    between atoms: S_10  and  C_13 
ROOT
HETATM    1  N   UNK N   1      34.623  16.845   9.880  0.00  0.00    -0.308 N 
HETATM    2  H   UNK N   1      34.649  17.336  10.774  0.00  0.00     0.172 HD
ENDROOT
BRANCH   1   3
HETATM    3  C   UNK N   1      35.001  15.447   9.691  0.00  0.00     0.120 C 
BRANCH   3   4
HETATM    4  C   UNK N   1      36.212  15.091  10.569  0.00  0.00     0.010 C 
BRANCH   4   5
HETATM    5  C   UNK N   1      37.417  14.566   9.778  0.00  0.00     0.002 C 
HETATM    6  C   UNK N   1      38.057  13.334  10.402  0.00  0.00     0.005 C 
ENDBRANCH   4   5
BRANCH   4   7
HETATM    7  C   UNK N   1      35.859  14.223  11.774  0.00  0.00     0.002 C 
HETATM    8  C   UNK N   1      36.150  14.977  13.059  0.00  0.00     0.005 C 
ENDBRANCH   4   7
ENDBRANCH   3   4
BRANCH   3   9
HETATM    9  C   UNK N   1      33.793  14.559   9.955  0.00  0.00     0.190 C 
BRANCH   9  10
HETATM   10  O   UNK N   1      32.926  15.193  10.845  0.00  0.00    -0.399 OA
HETATM   11  H   UNK N   1      32.555  16.062  10.627  0.00  0.00     0.209 HD
ENDBRANCH   9  10
ENDBRANCH   3   9
ENDBRANCH   1   3
BRANCH   1  12
HETATM   12  S   UNK N   1      34.111  17.575   8.344  0.00  0.00     0.265 S 
HETATM   13  O   UNK N   1      34.706  18.992   8.358  0.00  0.00    -0.200 OA
HETATM   14  O   UNK N   1      34.914  16.892   7.223  0.00  0.00    -0.200 OA
BRANCH  12  15
HETATM   15  C   UNK N   1      32.358  17.582   8.019  0.00  0.00     0.121 A 
HETATM   16  C   UNK N   1      31.373  18.162   8.824  0.00  0.00     0.035 A 
HETATM   17  C   UNK N   1      30.062  18.009   8.290  0.00  0.00     0.033 A 
HETATM   18  C   UNK N   1      30.045  17.312   7.077  0.00  0.00     0.075 A 
HETATM   19  S   UNK N   1      31.606  16.916   6.705  0.00  0.00    -0.064 SA
HETATM   20 Cl   UNK N   1      28.631  16.927   6.121  0.00  0.00    -0.076 Cl
ENDBRANCH  12  15
ENDBRANCH   1  12
TORSDOF 8
ENDMDL
MODEL 8
REMARK VINA RESULT:      -4.8     15.685     17.522
REMARK  8 active torsions:
REMARK  status: ('A' for Active; 'I' for Inactive)
REMARK    1  A    between atoms: C_2  and  C_3 
REMARK    2  A    between atoms: C_3  and  C_4 
REMARK    3  A    between atoms: C_3  and  C_6 
REMARK    4  A    between atoms: C_6  and  C_7 
REMARK    5  A    between atoms: C_6  and  N_9 
REMARK    6  A    between atoms: C_7  and  O_8 
REMARK    7  A    between atoms: N_9  and  S_10 
REMARK    8  A    between atoms: S_10  and  C_13 
ROOT
HETATM    1  N   UNK N   1      33.245  16.401   9.644  0.00  0.00    -0.308 N 
HETATM    2  H   UNK N   1      32.501  16.475  10.338  0.00  0.00     0.172 HD
ENDROOT
BRANCH   1   3
HETATM    3  C   UNK N   1      33.065  16.611   8.210  0.00  0.00     0.120 C 
BRANCH   3   4
HETATM    4  C   UNK N   1      31.675  16.126   7.764  0.00  0.00     0.010 C 
BRANCH   4   5
HETATM    5  C   UNK N   1      31.718  15.010   6.712  0.00  0.00     0.002 C 
HETATM    6  C   UNK N   1      32.774  13.953   6.998  0.00  0.00     0.005 C 
ENDBRANCH   4   5
BRANCH   4   7
HETATM    7  C   UNK N   1      30.720  17.260   7.401  0.00  0.00     0.002 C 
HETATM    8  C   UNK N   1      29.997  16.936   6.106  0.00  0.00     0.005 C 
ENDBRANCH   4   7
ENDBRANCH   3   4
BRANCH   3   9
HETATM    9  C   UNK N   1      33.318  18.075   7.880  0.00  0.00     0.190 C 
BRANCH   9  10
HETATM   10  O   UNK N   1      34.617  18.232   7.396  0.00  0.00    -0.399 OA
HETATM   11  H   UNK N   1      34.790  18.187   6.443  0.00  0.00     0.209 HD
ENDBRANCH   9  10
ENDBRANCH   3   9
ENDBRANCH   1   3
BRANCH   1  12
HETATM   12  S   UNK N   1      34.935  16.001  10.017  0.00  0.00     0.265 S 
HETATM   13  O   UNK N   1      35.540  15.542   8.680  0.00  0.00    -0.200 OA
HETATM   14  O   UNK N   1      35.673  17.327  10.274  0.00  0.00    -0.200 OA
BRANCH  12  15
HETATM   15  C   UNK N   1      35.197  14.813  11.319  0.00  0.00     0.121 A 
HETATM   16  C   UNK N   1      34.719  13.499  11.345  0.00  0.00     0.035 A 
HETATM   17  C   UNK N   1      35.104  12.793  12.520  0.00  0.00     0.033 A 
HETATM   18  C   UNK N   1      35.875  13.567  13.393  0.00  0.00     0.075 A 
HETATM   19  S   UNK N   1      36.059  15.061  12.709  0.00  0.00    -0.064 SA
HETATM   20 Cl   UNK N   1      36.531  13.054  14.931  0.00  0.00    -0.076 Cl
ENDBRANCH  12  15
ENDBRANCH   1  12
TORSDOF 8
ENDMDL
MODEL 9
REMARK VINA RESULT:      -4.7     14.744     16.790
REMARK  8 active torsions:
REMARK  status: ('A' for Active; 'I' for Inactive)
REMARK    1  A    between atoms: C_2  and  C_3 
REMARK    2  A    between atoms: C_3  and  C_4 
REMARK    3  A    between atoms: C_3  and  C_6 
REMARK    4  A    between atoms: C_6  and  C_7 
REMARK    5  A    between atoms: C_6  and  N_9 
REMARK    6  A    between atoms: C_7  and  O_8 
REMARK    7  A    between atoms: N_9  and  S_10 
REMARK    8  A    between atoms: S_10  and  C_13 
ROOT
HETATM    1  N   UNK N   1      34.094  16.953   9.810  0.00  0.00    -0.308 N 
HETATM    2  H   UNK N   1      33.408  17.449  10.379  0.00  0.00     0.172 HD
ENDROOT
BRANCH   1   3
HETATM    3  C   UNK N   1      34.309  17.184   8.384  0.00  0.00     0.120 C 
BRANCH   3   4
HETATM    4  C   UNK N   1      33.107  16.681   7.568  0.00  0.00     0.010 C 
BRANCH   4   5
HETATM    5  C   UNK N   1      32.839  17.495   6.296  0.00  0.00     0.002 C 
HETATM    6  C   UNK N   1      33.401  16.848   5.038  0.00  0.00     0.005 C 
ENDBRANCH   4   5
BRANCH   4   7
HETATM    7  C   UNK N   1      31.853  16.447   8.408  0.00  0.00     0.002 C 
HETATM    8  C   UNK N   1      30.876  17.592   8.214  0.00  0.00     0.005 C 
ENDBRANCH   4   7
ENDBRANCH   3   4
BRANCH   3   9
HETATM    9  C   UNK N   1      34.612  18.657   8.152  0.00  0.00     0.190 C 
BRANCH   9  10
HETATM   10  O   UNK N   1      35.602  19.082   9.039  0.00  0.00    -0.399 OA
HETATM   11  H   UNK N   1      36.446  19.418   8.701  0.00  0.00     0.209 HD
ENDBRANCH   9  10
ENDBRANCH   3   9
ENDBRANCH   1   3
BRANCH   1  12
HETATM   12  S   UNK N   1      35.189  15.695  10.420  0.00  0.00     0.265 S 
HETATM   13  O   UNK N   1      36.487  16.436  10.780  0.00  0.00    -0.200 OA
HETATM   14  O   UNK N   1      34.665  15.262  11.800  0.00  0.00    -0.200 OA
BRANCH  12  15
HETATM   15  C   UNK N   1      35.482  14.310   9.337  0.00  0.00     0.121 A 
HETATM   16  C   UNK N   1      34.509  13.449   8.820  0.00  0.00     0.035 A 
HETATM   17  C   UNK N   1      35.055  12.440   7.976  0.00  0.00     0.033 A 
HETATM   18  C   UNK N   1      36.445  12.531   7.848  0.00  0.00     0.075 A 
HETATM   19  S   UNK N   1      36.949  13.819   8.754  0.00  0.00    -0.064 SA
HETATM   20 Cl   UNK N   1      37.471  11.476   6.902  0.00  0.00    -0.076 Cl
ENDBRANCH  12  15
ENDBRANCH   1  12
TORSDOF 8
ENDMDL
