REMARK  6 active torsions:
REMARK  status: ('A' for Active; 'I' for Inactive)
REMARK    1  A    between atoms: C_6  and  O_10 
REMARK    2  A    between atoms: C_7  and  O_8 
REMARK    3  A    between atoms: C_19  and  O_20 
REMARK    4  A    between atoms: O_20  and  C_21 
REMARK    5  A    between atoms: C_30  and  O_35 
REMARK    6  A    between atoms: C_47  and  O_52 
ROOT
HETATM    1  C   UNK N   1      10.221   0.549  -1.543  0.00  0.00     0.051 C 
HETATM    2  C   UNK N   1       9.306   1.577  -0.973  0.00  0.00    -0.025 A 
HETATM    3  C   UNK N   1       9.645   2.921  -1.180  0.00  0.00     0.017 A 
HETATM    4  C   UNK N   1       8.859   3.940  -0.646  0.00  0.00    -0.044 A 
HETATM    5  C   UNK N   1       7.724   3.615   0.101  0.00  0.00     0.019 A 
HETATM    6  C   UNK N   1       7.380   2.284   0.336  0.00  0.00     0.108 A 
HETATM    7  C   UNK N   1       8.153   1.247  -0.197  0.00  0.00     0.107 A 
HETATM    8  C   UNK N   1       7.026   4.707   0.827  0.00  0.00     0.294 C 
HETATM    9  C   UNK N   1       6.186   5.731  -0.027  0.00  0.00     0.279 C 
HETATM   10  C   UNK N   1       5.055   5.575  -1.226  0.00  0.00     0.094 C 
HETATM   11  C   UNK N   1       4.561   6.940  -1.381  0.00  0.00     0.072 C 
HETATM   12  C   UNK N   1       5.283   8.130  -1.261  0.00  0.00     0.092 C 
HETATM   13  C   UNK N   1       4.587   9.263  -1.682  0.00  0.00     0.090 A 
HETATM   14  C   UNK N   1       3.265   9.251  -1.656  0.00  0.00     0.109 A 
HETATM   15  C   UNK N   1       2.609   8.198  -1.043  0.00  0.00     0.004 C 
HETATM   16  C   UNK N   1       3.485   7.061  -0.634  0.00  0.00     0.071 C 
HETATM   17  C   UNK N   1       1.217   8.552  -0.726  0.00  0.00     0.054 C 
HETATM   18  O   UNK N   1       2.793  10.453  -1.973  0.00  0.00    -0.323 OA
HETATM   19  C   UNK N   1       3.879  11.311  -2.140  0.00  0.00     0.351 A 
HETATM   20  O   UNK N   1       5.001  10.509  -1.895  0.00  0.00    -0.327 OA
HETATM   21  C   UNK N   1       5.686   8.244   0.211  0.00  0.00     0.262 C 
HETATM   22  N   UNK N   1       6.569   7.103   0.466  0.00  0.00     0.135 N 
HETATM   23  C   UNK N   1       7.955   7.378   0.023  0.00  0.00     0.391 C 
HETATM   24  C   UNK N   1       8.869   6.241   0.504  0.00  0.00     0.286 C 
HETATM   25  C   UNK N   1       9.313   5.378  -0.722  0.00  0.00     0.079 C 
HETATM   26  N   UNK N   1       8.102   5.477   1.516  0.00  0.00     0.104 N 
HETATM   27  C   UNK N   1       8.982   4.692   2.380  0.00  0.00     0.311 C 
HETATM   28  C   UNK N   1       4.526   8.543   1.420  0.00  0.00     0.215 C 
HETATM   29  O   UNK N   1       3.156   8.033   1.673  0.00  0.00    -0.317 OA
HETATM   30  C   UNK N   1       1.825   7.445   1.797  0.00  0.00     0.290 C 
HETATM   31  O   UNK N   1       1.138   7.919   2.687  0.00  0.00    -0.262 OA
HETATM   32  C   UNK N   1       1.050   6.222   0.870  0.00  0.00     0.147 C 
HETATM   33  C   UNK N   1       1.539   5.449  -0.637  0.00  0.00     0.118 C 
HETATM   34  S   UNK N   1       3.248   4.496  -1.425  0.00  0.00    -0.158 SA
HETATM   35  C   UNK N   1       0.690   4.971   1.690  0.00  0.00     0.150 C 
HETATM   36  C   UNK N   1      -0.664   4.600   1.698  0.00  0.00    -0.040 C 
HETATM   37  C   UNK N   1      -0.667   3.313   1.252  0.00  0.00    -0.003 A 
HETATM   38  C   UNK N   1      -1.684   2.603   0.633  0.00  0.00     0.050 A 
HETATM   39  C   UNK N   1      -1.323   1.423  -0.061  0.00  0.00     0.069 A 
HETATM   40  C   UNK N   1       0.013   0.961  -0.024  0.00  0.00     0.039 A 
HETATM   41  C   UNK N   1       1.007   1.701   0.627  0.00  0.00     0.033 A 
HETATM   42  C   UNK N   1       0.626   2.888   1.219  0.00  0.00     0.039 A 
HETATM   43  N   UNK N   1       1.459   3.873   1.530  0.00  0.00    -0.378 N 
HETATM   44  C   UNK N   1      -1.826   5.537   1.641  0.00  0.00     0.056 C 
HETATM   45  C   UNK N   1      -1.259   6.924   1.492  0.00  0.00     0.119 C 
HETATM   46  N   UNK N   1      -0.240   6.847   0.449  0.00  0.00    -0.402 N 
HETATM   47  H   UNK N   1       2.437   3.815   1.625  0.00  0.00     0.160 HD
HETATM   48  H   UNK N   1      -0.398   7.194  -0.497  0.00  0.00     0.154 HD
ENDROOT
BRANCH  16  49
HETATM   49  O   UNK N   1       3.470   6.178   0.535  0.00  0.00    -0.282 OA
BRANCH  49  50
HETATM   50  C   UNK N   1       3.904   5.099   1.356  0.00  0.00     0.259 C 
HETATM   51  O   UNK N   1       4.334   4.041   0.911  0.00  0.00    -0.265 OA
HETATM   52  C   UNK N   1       3.792   5.186   2.834  0.00  0.00     0.126 C 
ENDBRANCH  49  50
ENDBRANCH  16  49
BRANCH  39  53
HETATM   53  O   UNK N   1      -2.214   0.761  -0.830  0.00  0.00    -0.356 OA
HETATM   54  C   UNK N   1      -3.472   1.246  -1.105  0.00  0.00     0.210 C 
ENDBRANCH  39  53
BRANCH  23  55
HETATM   55  O   UNK N   1       8.408   8.581   0.570  0.00  0.00    -0.366 OA
HETATM   56  H   UNK N   1       9.289   8.726   0.950  0.00  0.00     0.212 HD
ENDBRANCH  23  55
BRANCH   6  57
HETATM   57  O   UNK N   1       6.325   1.994   1.121  0.00  0.00    -0.357 OA
HETATM   58  H   UNK N   1       5.783   2.529   1.668  0.00  0.00     0.217 HD
ENDBRANCH   6  57
BRANCH   7  59
HETATM   59  O   UNK N   1       7.760  -0.026   0.087  0.00  0.00    -0.353 OA
HETATM   60  C   UNK N   1       8.328  -1.183  -0.386  0.00  0.00     0.210 C 
ENDBRANCH   7  59
TORSDOF 6
