MODEL 1
REMARK VINA RESULT:      -7.8      0.000      0.000
REMARK  7 active torsions:
REMARK  status: ('A' for Active; 'I' for Inactive)
REMARK    1  A    between atoms: C_4  and  C_7 
REMARK    2  A    between atoms: C_10  and  S_13 
REMARK    3  A    between atoms: S_13  and  C_14 
REMARK    4  A    between atoms: C_15  and  C_26 
REMARK    5  A    between atoms: C_20  and  C_23 
REMARK    6  A    between atoms: C_23  and  O_25 
REMARK    7  A    between atoms: C_26  and  O_28 
ROOT
HETATM    1  C   UNK N   1      33.092  15.769   8.190  0.00  0.00     0.025 C 
HETATM    2  C   UNK N   1      33.983  16.643   8.642  0.00  0.00     0.125 C 
HETATM    3  N   UNK N   1      34.403  16.174   9.877  0.00  0.00    -0.304 N 
HETATM    4  C   UNK N   1      33.557  15.214  10.455  0.00  0.00     0.117 A 
HETATM    5  C   UNK N   1      33.032  14.571   9.151  0.00  0.00     0.048 C 
HETATM    6  C   UNK N   1      33.943  13.477   8.601  0.00  0.00     0.018 C 
HETATM    7  C   UNK N   1      34.776  14.917  11.495  0.00  0.00     0.130 A 
HETATM    8  C   UNK N   1      35.394  16.016  10.681  0.00  0.00     0.233 A 
HETATM    9  O   UNK N   1      36.527  16.470  10.582  0.00  0.00    -0.272 OA
ENDROOT
BRANCH   1  10
HETATM   10  S   UNK N   1      32.162  15.927   6.659  0.00  0.00    -0.067 SA
BRANCH  10  11
HETATM   11  C   UNK N   1      30.704  16.797   7.253  0.00  0.00     0.117 A 
HETATM   12  S   UNK N   1      30.331  17.303   8.787  0.00  0.00    -0.074 SA
HETATM   13  C   UNK N   1      28.973  18.173   8.437  0.00  0.00     0.082 A 
HETATM   14  C   UNK N   1      28.865  18.090   7.038  0.00  0.00     0.047 A 
HETATM   15  N   UNK N   1      29.820  17.336   6.398  0.00  0.00    -0.344 N 
ATOM     16  HN  UNK N   1      29.854  17.202   5.388  1.00  0.00     0.167 HD
BRANCH  14  17
HETATM   17  C   UNK N   1      28.030  19.011   6.282  0.00  0.00    -0.015 A 
HETATM   18  C   UNK N   1      28.058  19.009   4.975  0.00  0.00     0.008 A 
HETATM   19  C   UNK N   1      27.481  20.261   4.463  0.00  0.00     0.096 A 
HETATM   20  C   UNK N   1      26.370  19.997   3.477  0.00  0.00     0.036 C 
HETATM   21  N   UNK N   1      26.989  20.996   5.638  0.00  0.00    -0.410 N 
HETATM   22  C   UNK N   1      27.416  20.238   6.821  0.00  0.00     0.155 A 
HETATM   23  H   UNK N   1      26.455  21.866   5.633  0.00  0.00     0.154 HD
ENDBRANCH  14  17
ENDBRANCH  10  11
ENDBRANCH   1  10
BRANCH   2  24
HETATM   24  C   UNK N   1      34.472  17.881   7.984  0.00  0.00     0.195 C 
HETATM   25  O   UNK N   1      34.847  18.820   8.659  0.00  0.00    -0.645 OA
BRANCH  24  26
HETATM   26  O   UNK N   1      34.499  17.978   6.638  0.00  0.00    -0.772 OA
HETATM   27  H   UNK N   1      34.665  18.806   6.231  0.00  0.00     0.167 HD
ENDBRANCH  24  26
ENDBRANCH   2  24
BRANCH   7  28
HETATM   28  C   UNK N   1      35.378  13.536  11.295  0.00  0.00     0.129 C 
HETATM   29  C   UNK N   1      36.703  13.465  12.021  0.00  0.00     0.040 C 
BRANCH  28  30
HETATM   30  O   UNK N   1      34.519  12.576  11.838  0.00  0.00    -0.395 OA
HETATM   31  H   UNK N   1      34.201  11.809  11.339  0.00  0.00     0.210 HD
ENDBRANCH  28  30
ENDBRANCH   7  28
TORSDOF 7
ENDMDL
MODEL 2
REMARK VINA RESULT:      -7.7     10.755     13.774
REMARK  7 active torsions:
REMARK  status: ('A' for Active; 'I' for Inactive)
REMARK    1  A    between atoms: C_4  and  C_7 
REMARK    2  A    between atoms: C_10  and  S_13 
REMARK    3  A    between atoms: S_13  and  C_14 
REMARK    4  A    between atoms: C_15  and  C_26 
REMARK    5  A    between atoms: C_20  and  C_23 
REMARK    6  A    between atoms: C_23  and  O_25 
REMARK    7  A    between atoms: C_26  and  O_28 
ROOT
HETATM    1  C   UNK N   1      21.964  16.394   4.018  0.00  0.00     0.025 C 
HETATM    2  C   UNK N   1      21.395  16.086   2.860  0.00  0.00     0.125 C 
HETATM    3  N   UNK N   1      20.675  17.203   2.464  0.00  0.00    -0.304 N 
HETATM    4  C   UNK N   1      20.425  18.129   3.489  0.00  0.00     0.117 A 
HETATM    5  C   UNK N   1      21.698  17.876   4.328  0.00  0.00     0.048 C 
HETATM    6  C   UNK N   1      22.907  18.682   3.859  0.00  0.00     0.018 C 
HETATM    7  C   UNK N   1      19.991  19.163   2.308  0.00  0.00     0.130 A 
HETATM    8  C   UNK N   1      20.319  17.953   1.483  0.00  0.00     0.233 A 
HETATM    9  O   UNK N   1      20.474  17.755   0.284  0.00  0.00    -0.272 OA
ENDROOT
BRANCH   1  10
HETATM   10  S   UNK N   1      22.951  15.278   5.024  0.00  0.00    -0.067 SA
BRANCH  10  11
HETATM   11  C   UNK N   1      21.970  15.244   6.531  0.00  0.00     0.117 A 
HETATM   12  S   UNK N   1      20.383  15.666   6.764  0.00  0.00    -0.074 SA
HETATM   13  C   UNK N   1      20.217  15.149   8.322  0.00  0.00     0.082 A 
HETATM   14  C   UNK N   1      21.462  14.573   8.627  0.00  0.00     0.047 A 
HETATM   15  N   UNK N   1      22.415  14.628   7.637  0.00  0.00    -0.344 N 
ATOM     16  HN  UNK N   1      23.355  14.243   7.732  1.00  0.00     0.167 HD
BRANCH  14  17
HETATM   17  C   UNK N   1      21.631  13.674   9.757  0.00  0.00    -0.015 A 
HETATM   18  C   UNK N   1      22.773  13.072   9.961  0.00  0.00     0.008 A 
HETATM   19  C   UNK N   1      22.581  11.933  10.871  0.00  0.00     0.096 A 
HETATM   20  C   UNK N   1      23.511  12.009  12.057  0.00  0.00     0.036 C 
HETATM   21  N   UNK N   1      21.174  11.978  11.292  0.00  0.00    -0.410 N 
HETATM   22  C   UNK N   1      20.531  13.044  10.512  0.00  0.00     0.155 A 
HETATM   23  H   UNK N   1      20.727  11.383  11.991  0.00  0.00     0.154 HD
ENDBRANCH  14  17
ENDBRANCH  10  11
ENDBRANCH   1  10
BRANCH   2  24
HETATM   24  C   UNK N   1      21.493  14.816   2.097  0.00  0.00     0.195 C 
HETATM   25  O   UNK N   1      21.170  13.766   2.619  0.00  0.00    -0.645 OA
BRANCH  24  26
HETATM   26  O   UNK N   1      21.944  14.813   0.824  0.00  0.00    -0.772 OA
HETATM   27  H   UNK N   1      21.647  14.157   0.223  0.00  0.00     0.167 HD
ENDBRANCH  24  26
ENDBRANCH   2  24
BRANCH   7  28
HETATM   28  C   UNK N   1      20.960  20.327   2.179  0.00  0.00     0.129 C 
HETATM   29  C   UNK N   1      20.745  21.002   0.842  0.00  0.00     0.040 C 
BRANCH  28  30
HETATM   30  O   UNK N   1      20.706  21.253   3.193  0.00  0.00    -0.395 OA
HETATM   31  H   UNK N   1      20.266  22.103   3.035  0.00  0.00     0.210 HD
ENDBRANCH  28  30
ENDBRANCH   7  28
TORSDOF 7
ENDMDL
MODEL 3
REMARK VINA RESULT:      -7.4      2.755      8.691
REMARK  7 active torsions:
REMARK  status: ('A' for Active; 'I' for Inactive)
REMARK    1  A    between atoms: C_4  and  C_7 
REMARK    2  A    between atoms: C_10  and  S_13 
REMARK    3  A    between atoms: S_13  and  C_14 
REMARK    4  A    between atoms: C_15  and  C_26 
REMARK    5  A    between atoms: C_20  and  C_23 
REMARK    6  A    between atoms: C_23  and  O_25 
REMARK    7  A    between atoms: C_26  and  O_28 
ROOT
HETATM    1  C   UNK N   1      32.619  17.162   8.046  0.00  0.00     0.025 C 
HETATM    2  C   UNK N   1      32.554  17.105   6.722  0.00  0.00     0.125 C 
HETATM    3  N   UNK N   1      31.218  16.923   6.400  0.00  0.00    -0.304 N 
HETATM    4  C   UNK N   1      30.418  16.476   7.464  0.00  0.00     0.117 A 
HETATM    5  C   UNK N   1      31.193  17.149   8.619  0.00  0.00     0.048 C 
HETATM    6  C   UNK N   1      30.773  18.594   8.874  0.00  0.00     0.018 C 
HETATM    7  C   UNK N   1      29.141  16.866   6.531  0.00  0.00     0.130 A 
HETATM    8  C   UNK N   1      30.260  17.224   5.598  0.00  0.00     0.233 A 
HETATM    9  O   UNK N   1      30.326  17.838   4.540  0.00  0.00    -0.272 OA
ENDROOT
BRANCH   1  10
HETATM   10  S   UNK N   1      34.130  17.308   9.010  0.00  0.00    -0.067 SA
BRANCH  10  11
HETATM   11  C   UNK N   1      34.246  15.646   9.687  0.00  0.00     0.117 A 
HETATM   12  S   UNK N   1      34.441  14.199   8.900  0.00  0.00    -0.074 SA
HETATM   13  C   UNK N   1      34.662  13.230  10.217  0.00  0.00     0.082 A 
HETATM   14  C   UNK N   1      34.632  14.118  11.305  0.00  0.00     0.047 A 
HETATM   15  N   UNK N   1      34.407  15.441  11.004  0.00  0.00    -0.344 N 
ATOM     16  HN  UNK N   1      34.366  16.183  11.702  1.00  0.00     0.167 HD
BRANCH  14  17
HETATM   17  C   UNK N   1      35.151  13.743  12.611  0.00  0.00    -0.015 A 
HETATM   18  C   UNK N   1      36.173  14.374  13.125  0.00  0.00     0.008 A 
HETATM   19  C   UNK N   1      36.760  13.572  14.209  0.00  0.00     0.096 A 
HETATM   20  C   UNK N   1      36.860  14.361  15.491  0.00  0.00     0.036 C 
HETATM   21  N   UNK N   1      35.889  12.399  14.369  0.00  0.00    -0.410 N 
HETATM   22  C   UNK N   1      34.898  12.456  13.287  0.00  0.00     0.155 A 
HETATM   23  H   UNK N   1      35.959  11.683  15.093  0.00  0.00     0.154 HD
ENDBRANCH  14  17
ENDBRANCH  10  11
ENDBRANCH   1  10
BRANCH   2  24
HETATM   24  C   UNK N   1      33.663  17.223   5.741  0.00  0.00     0.195 C 
HETATM   25  O   UNK N   1      33.631  18.088   4.888  0.00  0.00    -0.645 OA
BRANCH  24  26
HETATM   26  O   UNK N   1      34.709  16.370   5.783  0.00  0.00    -0.772 OA
HETATM   27  H   UNK N   1      34.964  15.980   6.596  0.00  0.00     0.167 HD
ENDBRANCH  24  26
ENDBRANCH   2  24
BRANCH   7  28
HETATM   28  C   UNK N   1      28.356  18.040   7.093  0.00  0.00     0.129 C 
HETATM   29  C   UNK N   1      27.450  18.590   6.014  0.00  0.00     0.040 C 
BRANCH  28  30
HETATM   30  O   UNK N   1      27.566  17.597   8.157  0.00  0.00    -0.395 OA
HETATM   31  H   UNK N   1      27.931  17.153   8.938  0.00  0.00     0.210 HD
ENDBRANCH  28  30
ENDBRANCH   7  28
TORSDOF 7
ENDMDL
MODEL 4
REMARK VINA RESULT:      -7.2      1.754      2.148
REMARK  7 active torsions:
REMARK  status: ('A' for Active; 'I' for Inactive)
REMARK    1  A    between atoms: C_4  and  C_7 
REMARK    2  A    between atoms: C_10  and  S_13 
REMARK    3  A    between atoms: S_13  and  C_14 
REMARK    4  A    between atoms: C_15  and  C_26 
REMARK    5  A    between atoms: C_20  and  C_23 
REMARK    6  A    between atoms: C_23  and  O_25 
REMARK    7  A    between atoms: C_26  and  O_28 
ROOT
HETATM    1  C   UNK N   1      34.248  16.144   6.869  0.00  0.00     0.025 C 
HETATM    2  C   UNK N   1      34.433  16.820   7.995  0.00  0.00     0.125 C 
HETATM    3  N   UNK N   1      34.875  15.903   8.937  0.00  0.00    -0.304 N 
HETATM    4  C   UNK N   1      34.639  14.561   8.599  0.00  0.00     0.117 A 
HETATM    5  C   UNK N   1      34.738  14.701   7.064  0.00  0.00     0.048 C 
HETATM    6  C   UNK N   1      36.167  14.611   6.534  0.00  0.00     0.018 C 
HETATM    7  C   UNK N   1      35.666  14.186   9.807  0.00  0.00     0.130 A 
HETATM    8  C   UNK N   1      35.669  15.682   9.923  0.00  0.00     0.233 A 
HETATM    9  O   UNK N   1      36.359  16.488  10.534  0.00  0.00    -0.272 OA
ENDROOT
BRANCH   1  10
HETATM   10  S   UNK N   1      33.599  16.828   5.337  0.00  0.00    -0.067 SA
BRANCH  10  11
HETATM   11  C   UNK N   1      31.832  16.681   5.638  0.00  0.00     0.117 A 
HETATM   12  S   UNK N   1      31.030  15.812   6.801  0.00  0.00    -0.074 SA
HETATM   13  C   UNK N   1      29.505  16.377   6.523  0.00  0.00     0.082 A 
HETATM   14  C   UNK N   1      29.673  17.330   5.503  0.00  0.00     0.047 A 
HETATM   15  N   UNK N   1      30.953  17.491   5.027  0.00  0.00    -0.344 N 
ATOM     16  HN  UNK N   1      31.206  18.152   4.293  1.00  0.00     0.167 HD
BRANCH  14  17
HETATM   17  C   UNK N   1      28.653  18.325   5.213  0.00  0.00    -0.015 A 
HETATM   18  C   UNK N   1      28.163  19.069   6.169  0.00  0.00     0.008 A 
HETATM   19  C   UNK N   1      26.896  19.674   5.730  0.00  0.00     0.096 A 
HETATM   20  C   UNK N   1      26.914  21.174   5.888  0.00  0.00     0.036 C 
HETATM   21  N   UNK N   1      26.723  19.287   4.323  0.00  0.00    -0.410 N 
HETATM   22  C   UNK N   1      27.806  18.346   4.006  0.00  0.00     0.155 A 
HETATM   23  H   UNK N   1      25.992  19.608   3.687  0.00  0.00     0.154 HD
ENDBRANCH  14  17
ENDBRANCH  10  11
ENDBRANCH   1  10
BRANCH   2  24
HETATM   24  C   UNK N   1      34.232  18.271   8.241  0.00  0.00     0.195 C 
HETATM   25  O   UNK N   1      33.108  18.734   8.267  0.00  0.00    -0.645 OA
BRANCH  24  26
HETATM   26  O   UNK N   1      35.290  19.087   8.431  0.00  0.00    -0.772 OA
HETATM   27  H   UNK N   1      35.392  19.854   7.902  0.00  0.00     0.167 HD
ENDBRANCH  24  26
ENDBRANCH   2  24
BRANCH   7  28
HETATM   28  C   UNK N   1      36.955  13.566   9.292  0.00  0.00     0.129 C 
HETATM   29  C   UNK N   1      37.956  13.495  10.425  0.00  0.00     0.040 C 
BRANCH  28  30
HETATM   30  O   UNK N   1      36.695  12.268   8.845  0.00  0.00    -0.395 OA
HETATM   31  H   UNK N   1      36.166  12.077   8.055  0.00  0.00     0.210 HD
ENDBRANCH  28  30
ENDBRANCH   7  28
TORSDOF 7
ENDMDL
MODEL 5
REMARK VINA RESULT:      -7.2      2.228      2.856
REMARK  7 active torsions:
REMARK  status: ('A' for Active; 'I' for Inactive)
REMARK    1  A    between atoms: C_4  and  C_7 
REMARK    2  A    between atoms: C_10  and  S_13 
REMARK    3  A    between atoms: S_13  and  C_14 
REMARK    4  A    between atoms: C_15  and  C_26 
REMARK    5  A    between atoms: C_20  and  C_23 
REMARK    6  A    between atoms: C_23  and  O_25 
REMARK    7  A    between atoms: C_26  and  O_28 
ROOT
HETATM    1  C   UNK N   1      34.480  15.409   7.454  0.00  0.00     0.025 C 
HETATM    2  C   UNK N   1      34.431  16.497   8.211  0.00  0.00     0.125 C 
HETATM    3  N   UNK N   1      34.390  16.061   9.527  0.00  0.00    -0.304 N 
HETATM    4  C   UNK N   1      34.029  14.713   9.683  0.00  0.00     0.117 A 
HETATM    5  C   UNK N   1      34.617  14.174   8.359  0.00  0.00     0.048 C 
HETATM    6  C   UNK N   1      36.098  13.816   8.450  0.00  0.00     0.018 C 
HETATM    7  C   UNK N   1      34.552  14.859  11.219  0.00  0.00     0.130 A 
HETATM    8  C   UNK N   1      34.791  16.258  10.732  0.00  0.00     0.233 A 
HETATM    9  O   UNK N   1      35.396  17.225  11.179  0.00  0.00    -0.272 OA
ENDROOT
BRANCH   1  10
HETATM   10  S   UNK N   1      34.467  15.389   5.656  0.00  0.00    -0.067 SA
BRANCH  10  11
HETATM   11  C   UNK N   1      32.706  15.194   5.346  0.00  0.00     0.117 A 
HETATM   12  S   UNK N   1      31.866  13.854   4.845  0.00  0.00    -0.074 SA
HETATM   13  C   UNK N   1      30.335  14.444   5.016  0.00  0.00     0.082 A 
HETATM   14  C   UNK N   1      30.521  15.733   5.545  0.00  0.00     0.047 A 
HETATM   15  N   UNK N   1      31.824  16.133   5.725  0.00  0.00    -0.344 N 
ATOM     16  HN  UNK N   1      32.092  17.041   6.104  1.00  0.00     0.167 HD
BRANCH  14  17
HETATM   17  C   UNK N   1      29.437  16.458   6.188  0.00  0.00    -0.015 A 
HETATM   18  C   UNK N   1      29.677  17.250   7.199  0.00  0.00     0.008 A 
HETATM   19  C   UNK N   1      28.429  17.526   7.924  0.00  0.00     0.096 A 
HETATM   20  C   UNK N   1      28.185  19.008   8.065  0.00  0.00     0.036 C 
HETATM   21  N   UNK N   1      27.356  16.879   7.155  0.00  0.00    -0.410 N 
HETATM   22  C   UNK N   1      28.007  16.115   6.081  0.00  0.00     0.155 A 
HETATM   23  H   UNK N   1      26.353  16.946   7.331  0.00  0.00     0.154 HD
ENDBRANCH  14  17
ENDBRANCH  10  11
ENDBRANCH   1  10
BRANCH   2  24
HETATM   24  C   UNK N   1      34.432  17.918   7.780  0.00  0.00     0.195 C 
HETATM   25  O   UNK N   1      33.775  18.262   6.817  0.00  0.00    -0.645 OA
BRANCH  24  26
HETATM   26  O   UNK N   1      35.163  18.837   8.446  0.00  0.00    -0.772 OA
HETATM   27  H   UNK N   1      35.074  19.747   8.240  0.00  0.00     0.167 HD
ENDBRANCH  24  26
ENDBRANCH   2  24
BRANCH   7  28
HETATM   28  C   UNK N   1      35.801  14.034  11.481  0.00  0.00     0.129 C 
HETATM   29  C   UNK N   1      36.351  14.390  12.845  0.00  0.00     0.040 C 
BRANCH  28  30
HETATM   30  O   UNK N   1      35.467  12.677  11.474  0.00  0.00    -0.395 OA
HETATM   31  H   UNK N   1      35.992  12.006  11.012  0.00  0.00     0.210 HD
ENDBRANCH  28  30
ENDBRANCH   7  28
TORSDOF 7
ENDMDL
MODEL 6
REMARK VINA RESULT:      -7.2      2.398      3.474
REMARK  7 active torsions:
REMARK  status: ('A' for Active; 'I' for Inactive)
REMARK    1  A    between atoms: C_4  and  C_7 
REMARK    2  A    between atoms: C_10  and  S_13 
REMARK    3  A    between atoms: S_13  and  C_14 
REMARK    4  A    between atoms: C_15  and  C_26 
REMARK    5  A    between atoms: C_20  and  C_23 
REMARK    6  A    between atoms: C_23  and  O_25 
REMARK    7  A    between atoms: C_26  and  O_28 
ROOT
HETATM    1  C   UNK N   1      31.444  15.540   5.845  0.00  0.00     0.025 C 
HETATM    2  C   UNK N   1      32.095  16.671   5.608  0.00  0.00     0.125 C 
HETATM    3  N   UNK N   1      32.555  17.126   6.834  0.00  0.00    -0.304 N 
HETATM    4  C   UNK N   1      31.922  16.547   7.945  0.00  0.00     0.117 A 
HETATM    5  C   UNK N   1      31.612  15.165   7.326  0.00  0.00     0.048 C 
HETATM    6  C   UNK N   1      32.768  14.175   7.436  0.00  0.00     0.018 C 
HETATM    7  C   UNK N   1      33.129  17.184   8.834  0.00  0.00     0.130 A 
HETATM    8  C   UNK N   1      33.520  17.684   7.474  0.00  0.00     0.233 A 
HETATM    9  O   UNK N   1      34.526  18.212   7.016  0.00  0.00    -0.272 OA
ENDROOT
BRANCH   1  10
HETATM   10  S   UNK N   1      30.569  14.562   4.615  0.00  0.00    -0.067 SA
BRANCH  10  11
HETATM   11  C   UNK N   1      28.938  15.314   4.701  0.00  0.00     0.117 A 
HETATM   12  S   UNK N   1      27.530  14.708   5.335  0.00  0.00    -0.074 SA
HETATM   13  C   UNK N   1      26.599  16.064   5.212  0.00  0.00     0.082 A 
HETATM   14  C   UNK N   1      27.476  17.036   4.700  0.00  0.00     0.047 A 
HETATM   15  N   UNK N   1      28.756  16.616   4.426  0.00  0.00    -0.344 N 
ATOM     16  HN  UNK N   1      29.486  17.224   4.055  1.00  0.00     0.167 HD
BRANCH  14  17
HETATM   17  C   UNK N   1      27.173  18.456   4.783  0.00  0.00    -0.015 A 
HETATM   18  C   UNK N   1      27.272  19.089   5.921  0.00  0.00     0.008 A 
HETATM   19  C   UNK N   1      26.534  20.359   5.851  0.00  0.00     0.096 A 
HETATM   20  C   UNK N   1      27.407  21.530   6.229  0.00  0.00     0.036 C 
HETATM   21  N   UNK N   1      26.052  20.477   4.467  0.00  0.00    -0.410 N 
HETATM   22  C   UNK N   1      26.385  19.215   3.793  0.00  0.00     0.155 A 
HETATM   23  H   UNK N   1      25.578  21.280   4.053  0.00  0.00     0.154 HD
ENDBRANCH  14  17
ENDBRANCH  10  11
ENDBRANCH   1  10
BRANCH   2  24
HETATM   24  C   UNK N   1      32.322  17.345   4.304  0.00  0.00     0.195 C 
HETATM   25  O   UNK N   1      33.348  17.140   3.684  0.00  0.00    -0.645 OA
BRANCH  24  26
HETATM   26  O   UNK N   1      31.401  18.192   3.800  0.00  0.00    -0.772 OA
HETATM   27  H   UNK N   1      31.600  19.105   3.714  0.00  0.00     0.167 HD
ENDBRANCH  24  26
ENDBRANCH   2  24
BRANCH   7  28
HETATM   28  C   UNK N   1      34.034  16.115   9.425  0.00  0.00     0.129 C 
HETATM   29  C   UNK N   1      35.243  16.779  10.046  0.00  0.00     0.040 C 
BRANCH  28  30
HETATM   30  O   UNK N   1      33.341  15.425  10.423  0.00  0.00    -0.395 OA
HETATM   31  H   UNK N   1      33.243  14.461  10.429  0.00  0.00     0.210 HD
ENDBRANCH  28  30
ENDBRANCH   7  28
TORSDOF 7
ENDMDL
MODEL 7
REMARK VINA RESULT:      -7.1      8.794     12.645
REMARK  7 active torsions:
REMARK  status: ('A' for Active; 'I' for Inactive)
REMARK    1  A    between atoms: C_4  and  C_7 
REMARK    2  A    between atoms: C_10  and  S_13 
REMARK    3  A    between atoms: S_13  and  C_14 
REMARK    4  A    between atoms: C_15  and  C_26 
REMARK    5  A    between atoms: C_20  and  C_23 
REMARK    6  A    between atoms: C_23  and  O_25 
REMARK    7  A    between atoms: C_26  and  O_28 
ROOT
HETATM    1  C   UNK N   1      21.794  16.136   3.799  0.00  0.00     0.025 C 
HETATM    2  C   UNK N   1      21.284  15.924   2.594  0.00  0.00     0.125 C 
HETATM    3  N   UNK N   1      20.569  17.066   2.262  0.00  0.00    -0.304 N 
HETATM    4  C   UNK N   1      20.261  17.897   3.351  0.00  0.00     0.117 A 
HETATM    5  C   UNK N   1      21.497  17.583   4.223  0.00  0.00     0.048 C 
HETATM    6  C   UNK N   1      22.716  18.436   3.883  0.00  0.00     0.018 C 
HETATM    7  C   UNK N   1      19.869  19.026   2.244  0.00  0.00     0.130 A 
HETATM    8  C   UNK N   1      20.249  17.895   1.334  0.00  0.00     0.233 A 
HETATM    9  O   UNK N   1      20.462  17.802   0.131  0.00  0.00    -0.272 OA
ENDROOT
BRANCH   1  10
HETATM   10  S   UNK N   1      22.748  14.945   4.751  0.00  0.00    -0.067 SA
BRANCH  10  11
HETATM   11  C   UNK N   1      24.412  15.343   4.196  0.00  0.00     0.117 A 
HETATM   12  S   UNK N   1      25.197  14.886   2.809  0.00  0.00    -0.074 SA
HETATM   13  C   UNK N   1      26.547  15.821   2.969  0.00  0.00     0.082 A 
HETATM   14  C   UNK N   1      26.316  16.556   4.145  0.00  0.00     0.047 A 
HETATM   15  N   UNK N   1      25.142  16.289   4.809  0.00  0.00    -0.344 N 
ATOM     16  HN  UNK N   1      24.857  16.756   5.669  1.00  0.00     0.167 HD
BRANCH  14  17
HETATM   17  C   UNK N   1      27.075  17.757   4.455  0.00  0.00    -0.015 A 
HETATM   18  C   UNK N   1      26.467  18.902   4.618  0.00  0.00     0.008 A 
HETATM   19  C   UNK N   1      27.436  20.002   4.502  0.00  0.00     0.096 A 
HETATM   20  C   UNK N   1      27.394  20.908   5.708  0.00  0.00     0.036 C 
HETATM   21  N   UNK N   1      28.756  19.372   4.352  0.00  0.00    -0.410 N 
HETATM   22  C   UNK N   1      28.524  17.926   4.234  0.00  0.00     0.155 A 
HETATM   23  H   UNK N   1      29.659  19.847   4.333  0.00  0.00     0.154 HD
ENDBRANCH  14  17
ENDBRANCH  10  11
ENDBRANCH   1  10
BRANCH   2  24
HETATM   24  C   UNK N   1      21.432  14.726   1.730  0.00  0.00     0.195 C 
HETATM   25  O   UNK N   1      22.150  14.768   0.750  0.00  0.00    -0.645 OA
BRANCH  24  26
HETATM   26  O   UNK N   1      20.770  13.586   2.018  0.00  0.00    -0.772 OA
HETATM   27  H   UNK N   1      20.221  13.185   1.372  0.00  0.00     0.167 HD
ENDBRANCH  24  26
ENDBRANCH   2  24
BRANCH   7  28
HETATM   28  C   UNK N   1      20.829  20.205   2.261  0.00  0.00     0.129 C 
HETATM   29  C   UNK N   1      20.643  21.011   0.994  0.00  0.00     0.040 C 
BRANCH  28  30
HETATM   30  O   UNK N   1      20.537  21.021   3.357  0.00  0.00    -0.395 OA
HETATM   31  H   UNK N   1      19.636  21.298   3.584  0.00  0.00     0.210 HD
ENDBRANCH  28  30
ENDBRANCH   7  28
TORSDOF 7
ENDMDL
MODEL 8
REMARK VINA RESULT:      -7.0      4.247      8.899
REMARK  7 active torsions:
REMARK  status: ('A' for Active; 'I' for Inactive)
REMARK    1  A    between atoms: C_4  and  C_7 
REMARK    2  A    between atoms: C_10  and  S_13 
REMARK    3  A    between atoms: S_13  and  C_14 
REMARK    4  A    between atoms: C_15  and  C_26 
REMARK    5  A    between atoms: C_20  and  C_23 
REMARK    6  A    between atoms: C_23  and  O_25 
REMARK    7  A    between atoms: C_26  and  O_28 
ROOT
HETATM    1  C   UNK N   1      35.334  13.444   8.884  0.00  0.00     0.025 C 
HETATM    2  C   UNK N   1      35.861  14.594   9.284  0.00  0.00     0.125 C 
HETATM    3  N   UNK N   1      35.121  15.598   8.678  0.00  0.00    -0.304 N 
HETATM    4  C   UNK N   1      34.349  15.175   7.585  0.00  0.00     0.117 A 
HETATM    5  C   UNK N   1      34.068  13.732   8.061  0.00  0.00     0.048 C 
HETATM    6  C   UNK N   1      32.863  13.620   8.991  0.00  0.00     0.018 C 
HETATM    7  C   UNK N   1      33.588  16.611   7.699  0.00  0.00     0.130 A 
HETATM    8  C   UNK N   1      34.589  16.761   8.808  0.00  0.00     0.233 A 
HETATM    9  O   UNK N   1      34.733  17.560   9.725  0.00  0.00    -0.272 OA
ENDROOT
BRANCH   1  10
HETATM   10  S   UNK N   1      35.956  11.810   9.304  0.00  0.00    -0.067 SA
BRANCH  10  11
HETATM   11  C   UNK N   1      35.133  11.543  10.881  0.00  0.00     0.117 A 
HETATM   12  S   UNK N   1      34.176  10.280  11.370  0.00  0.00    -0.074 SA
HETATM   13  C   UNK N   1      34.017  10.692  12.959  0.00  0.00     0.082 A 
HETATM   14  C   UNK N   1      34.808  11.846  13.095  0.00  0.00     0.047 A 
HETATM   15  N   UNK N   1      35.418  12.303  11.951  0.00  0.00    -0.344 N 
ATOM     16  HN  UNK N   1      36.019  13.125  11.918  1.00  0.00     0.167 HD
BRANCH  14  17
HETATM   17  C   UNK N   1      35.244  12.323  14.398  0.00  0.00    -0.015 A 
HETATM   18  C   UNK N   1      34.494  12.148  15.453  0.00  0.00     0.008 A 
HETATM   19  C   UNK N   1      34.926  13.054  16.528  0.00  0.00     0.096 A 
HETATM   20  C   UNK N   1      35.217  12.302  17.803  0.00  0.00     0.036 C 
HETATM   21  N   UNK N   1      36.126  13.740  16.027  0.00  0.00    -0.410 N 
HETATM   22  C   UNK N   1      36.288  13.340  14.623  0.00  0.00     0.155 A 
HETATM   23  H   UNK N   1      36.729  14.374  16.552  0.00  0.00     0.154 HD
ENDBRANCH  14  17
ENDBRANCH  10  11
ENDBRANCH   1  10
BRANCH   2  24
HETATM   24  C   UNK N   1      37.006  14.810  10.205  0.00  0.00     0.195 C 
HETATM   25  O   UNK N   1      38.145  14.747   9.785  0.00  0.00    -0.645 OA
BRANCH  24  26
HETATM   26  O   UNK N   1      36.794  15.070  11.512  0.00  0.00    -0.772 OA
HETATM   27  H   UNK N   1      37.430  14.811  12.151  0.00  0.00     0.167 HD
ENDBRANCH  24  26
ENDBRANCH   2  24
BRANCH   7  28
HETATM   28  C   UNK N   1      32.141  16.461   8.139  0.00  0.00     0.129 C 
HETATM   29  C   UNK N   1      31.587  17.826   8.488  0.00  0.00     0.040 C 
BRANCH  28  30
HETATM   30  O   UNK N   1      31.392  15.932   7.084  0.00  0.00    -0.395 OA
HETATM   31  H   UNK N   1      30.822  16.473   6.517  0.00  0.00     0.210 HD
ENDBRANCH  28  30
ENDBRANCH   7  28
TORSDOF 7
ENDMDL
MODEL 9
REMARK VINA RESULT:      -6.9     10.286     13.727
REMARK  7 active torsions:
REMARK  status: ('A' for Active; 'I' for Inactive)
REMARK    1  A    between atoms: C_4  and  C_7 
REMARK    2  A    between atoms: C_10  and  S_13 
REMARK    3  A    between atoms: S_13  and  C_14 
REMARK    4  A    between atoms: C_15  and  C_26 
REMARK    5  A    between atoms: C_20  and  C_23 
REMARK    6  A    between atoms: C_23  and  O_25 
REMARK    7  A    between atoms: C_26  and  O_28 
ROOT
HETATM    1  C   UNK N   1      21.280  16.582   4.454  0.00  0.00     0.025 C 
HETATM    2  C   UNK N   1      21.229  17.381   3.397  0.00  0.00     0.125 C 
HETATM    3  N   UNK N   1      21.026  16.565   2.295  0.00  0.00    -0.304 N 
HETATM    4  C   UNK N   1      21.313  15.208   2.514  0.00  0.00     0.117 A 
HETATM    5  C   UNK N   1      20.950  15.146   4.014  0.00  0.00     0.048 C 
HETATM    6  C   UNK N   1      19.465  14.902   4.273  0.00  0.00     0.018 C 
HETATM    7  C   UNK N   1      20.535  14.924   1.111  0.00  0.00     0.130 A 
HETATM    8  C   UNK N   1      20.427  16.420   1.167  0.00  0.00     0.233 A 
HETATM    9  O   UNK N   1      19.784  17.253   0.540  0.00  0.00    -0.272 OA
ENDROOT
BRANCH   1  10
HETATM   10  S   UNK N   1      21.607  17.106   6.143  0.00  0.00    -0.067 SA
BRANCH  10  11
HETATM   11  C   UNK N   1      22.369  15.617   6.804  0.00  0.00     0.117 A 
HETATM   12  S   UNK N   1      23.877  14.988   6.518  0.00  0.00    -0.074 SA
HETATM   13  C   UNK N   1      23.856  13.778   7.640  0.00  0.00     0.082 A 
HETATM   14  C   UNK N   1      22.620  13.935   8.291  0.00  0.00     0.047 A 
HETATM   15  N   UNK N   1      21.814  14.948   7.827  0.00  0.00    -0.344 N 
ATOM     16  HN  UNK N   1      20.897  15.166   8.217  1.00  0.00     0.167 HD
BRANCH  14  17
HETATM   17  C   UNK N   1      22.354  13.319   9.581  0.00  0.00    -0.015 A 
HETATM   18  C   UNK N   1      23.263  12.584  10.165  0.00  0.00     0.008 A 
HETATM   19  C   UNK N   1      22.639  11.753  11.205  0.00  0.00     0.096 A 
HETATM   20  C   UNK N   1      23.314  11.938  12.542  0.00  0.00     0.036 C 
HETATM   21  N   UNK N   1      21.226  12.157  11.260  0.00  0.00    -0.410 N 
HETATM   22  C   UNK N   1      21.013  13.104  10.158  0.00  0.00     0.155 A 
HETATM   23  H   UNK N   1      20.528  11.840  11.933  0.00  0.00     0.154 HD
ENDBRANCH  14  17
ENDBRANCH  10  11
ENDBRANCH   1  10
BRANCH   2  24
HETATM   24  C   UNK N   1      21.347  18.861   3.356  0.00  0.00     0.195 C 
HETATM   25  O   UNK N   1      20.369  19.543   3.118  0.00  0.00    -0.645 OA
BRANCH  24  26
HETATM   26  O   UNK N   1      22.537  19.460   3.576  0.00  0.00    -0.772 OA
HETATM   27  H   UNK N   1      23.256  18.965   3.916  0.00  0.00     0.167 HD
ENDBRANCH  24  26
ENDBRANCH   2  24
BRANCH   7  28
HETATM   28  C   UNK N   1      19.234  14.166   1.319  0.00  0.00     0.129 C 
HETATM   29  C   UNK N   1      18.390  14.280   0.068  0.00  0.00     0.040 C 
BRANCH  28  30
HETATM   30  O   UNK N   1      19.519  12.816   1.544  0.00  0.00    -0.395 OA
HETATM   31  H   UNK N   1      20.284  12.366   1.156  0.00  0.00     0.210 HD
ENDBRANCH  28  30
ENDBRANCH   7  28
TORSDOF 7
ENDMDL
