REMARK  15 active torsions:
REMARK  status: ('A' for Active; 'I' for Inactive)
REMARK    1  A    between atoms: C_12  and  O_22 
REMARK    2  A    between atoms: C_23  and  O_22 
REMARK    3  A    between atoms: C_25  and  C_26 
REMARK    4  A    between atoms: C_26  and  O_27 
REMARK    5  A    between atoms: C_28  and  O_29 
REMARK    6  A    between atoms: C_30  and  O_29 
REMARK    7  A    between atoms: C_34  and  O_35 
REMARK    8  A    between atoms: C_36  and  O_37 
REMARK    9  A    between atoms: C_38  and  O_39 
REMARK   10  A    between atoms: C_40  and  O_41 
REMARK   11  A    between atoms: C_42  and  O_43 
REMARK   12  A    between atoms: C_44  and  O_43 
REMARK   13  A    between atoms: C_48  and  O_49 
REMARK   14  A    between atoms: C_50  and  O_51 
REMARK   15  A    between atoms: C_52  and  O_53 
ROOT
HETATM    1  C   UNK N   1      14.637  -3.067  -0.134  0.00  0.00     0.292 C 
HETATM    2  O   UNK N   1      15.708  -2.993   0.802  0.00  0.00    -0.348 OA
HETATM    3  C   UNK N   1      16.901  -3.599   0.304  0.00  0.00     0.180 C 
HETATM    4  C   UNK N   1      16.722  -5.046  -0.188  0.00  0.00     0.187 C 
HETATM    5  C   UNK N   1      15.516  -5.148  -1.117  0.00  0.00     0.183 C 
HETATM    6  C   UNK N   1      14.286  -4.528  -0.454  0.00  0.00     0.211 C 
ENDROOT
BRANCH   1   7
HETATM    7  O   UNK N   1      14.926  -2.305  -1.291  0.00  0.00    -0.353 OA
BRANCH   7   8
HETATM    8  C   UNK N   1      13.773  -1.648  -1.777  0.00  0.00     0.128 C 
HETATM    9  C   UNK N   1      13.071  -0.700  -0.780  0.00  0.00     0.066 C 
HETATM   10  C   UNK N   1      11.584  -0.923  -0.822  0.00  0.00    -0.072 C 
HETATM   11  C   UNK N   1      10.752   0.123  -0.959  0.00  0.00    -0.023 C 
HETATM   12  C   UNK N   1      11.092  -2.355  -0.714  0.00  0.00    -0.017 C 
HETATM   13  C   UNK N   1       9.246  -0.010  -0.983  0.00  0.00     0.033 C 
HETATM   14  C   UNK N   1       8.718  -1.362  -0.483  0.00  0.00    -0.001 C 
HETATM   15  C   UNK N   1       8.588  -1.440   1.044  0.00  0.00     0.001 C 
HETATM   16  C   UNK N   1       9.580  -2.488  -1.033  0.00  0.00     0.003 C 
HETATM   17  C   UNK N   1       7.462  -0.505   1.487  0.00  0.00     0.038 C 
HETATM   18  C   UNK N   1       8.122  -2.826   1.530  0.00  0.00    -0.033 C 
HETATM   19  C   UNK N   1       6.203  -1.364   1.664  0.00  0.00     0.130 C 
HETATM   20  C   UNK N   1       6.600  -2.810   1.392  0.00  0.00     0.032 C 
HETATM   21  O   UNK N   1       5.194  -0.985   0.739  0.00  0.00    -0.355 OA
HETATM   22  C   UNK N   1       6.050  -3.010   0.013  0.00  0.00     0.044 C 
HETATM   23  C   UNK N   1       5.826  -4.481  -0.314  0.00  0.00     0.015 C 
HETATM   24  C   UNK N   1       4.794  -2.160   0.079  0.00  0.00     0.134 C 
HETATM   25  C   UNK N   1       4.314  -1.805  -1.342  0.00  0.00     0.061 C 
HETATM   26  N   UNK N   1       3.745  -2.824   0.901  0.00  0.00    -0.391 N 
HETATM   27  C   UNK N   1       3.630  -2.976  -2.059  0.00  0.00     0.010 C 
HETATM   28  C   UNK N   1       2.793  -3.843  -1.114  0.00  0.00    -0.001 C 
HETATM   29  C   UNK N   1       1.504  -4.254  -1.791  0.00  0.00     0.011 C 
HETATM   30  C   UNK N   1       2.498  -3.110   0.187  0.00  0.00     0.120 C 
HETATM   31  H   UNK N   1       3.883  -3.060   1.884  0.00  0.00     0.156 HD
HETATM   32  C   UNK N   1       8.821  -4.012   0.841  0.00  0.00     0.010 C 
HETATM   33  C   UNK N   1       8.441  -2.938   3.015  0.00  0.00     0.016 C 
HETATM   34  C   UNK N   1       8.963  -3.846  -0.677  0.00  0.00     0.007 C 
HETATM   35  C   UNK N   1      11.832  -3.273  -1.707  0.00  0.00     0.016 C 
HETATM   36  C   UNK N   1      11.449  -2.800   0.698  0.00  0.00     0.020 C 
HETATM   37  C   UNK N   1      12.848  -2.555  -2.602  0.00  0.00     0.033 C 
ENDBRANCH   7   8
ENDBRANCH   1   7
BRANCH   6  38
HETATM   38  O   UNK N   1      13.958  -5.183   0.748  0.00  0.00    -0.346 OA
BRANCH  38  39
HETATM   39  C   UNK N   1      12.989  -6.151   0.451  0.00  0.00     0.292 C 
HETATM   40  O   UNK N   1      13.494  -7.440   0.690  0.00  0.00    -0.351 OA
HETATM   41  C   UNK N   1      12.683  -8.288  -0.091  0.00  0.00     0.152 C 
HETATM   42  C   UNK N   1      13.271  -9.683  -0.138  0.00  0.00     0.042 C 
HETATM   43  C   UNK N   1      11.227  -8.330   0.418  0.00  0.00     0.178 C 
HETATM   44  C   UNK N   1      11.022  -7.290   1.528  0.00  0.00     0.183 C 
HETATM   45  C   UNK N   1      11.674  -5.932   1.232  0.00  0.00     0.204 C 
BRANCH  43  46
HETATM   46  O   UNK N   1      10.365  -8.088  -0.653  0.00  0.00    -0.390 OA
HETATM   47  H   UNK N   1      10.212  -7.485  -1.397  0.00  0.00     0.210 HD
ENDBRANCH  43  46
BRANCH  44  48
HETATM   48  O   UNK N   1       9.678  -7.152   1.879  0.00  0.00    -0.390 OA
HETATM   49  H   UNK N   1       9.294  -6.295   2.123  0.00  0.00     0.210 HD
ENDBRANCH  44  48
BRANCH  45  50
HETATM   50  O   UNK N   1      11.912  -5.292   2.450  0.00  0.00    -0.388 OA
HETATM   51  H   UNK N   1      12.379  -5.212   3.296  0.00  0.00     0.210 HD
ENDBRANCH  45  50
ENDBRANCH  38  39
ENDBRANCH   6  38
BRANCH   3  52
HETATM   52  C   UNK N   1      17.634  -2.730  -0.710  0.00  0.00     0.198 C 
BRANCH  52  53
HETATM   53  O   UNK N   1      18.000  -1.522  -0.117  0.00  0.00    -0.398 OA
HETATM   54  H   UNK N   1      18.855  -1.322   0.295  0.00  0.00     0.209 HD
ENDBRANCH  52  53
ENDBRANCH   3  52
BRANCH   5  55
HETATM   55  O   UNK N   1      15.280  -6.469  -1.501  0.00  0.00    -0.390 OA
HETATM   56  H   UNK N   1      14.403  -6.786  -1.768  0.00  0.00     0.210 HD
ENDBRANCH   5  55
BRANCH   4  57
HETATM   57  O   UNK N   1      16.601  -5.941   0.890  0.00  0.00    -0.348 OA
BRANCH  57  58
HETATM   58  C   UNK N   1      17.787  -6.707   0.965  0.00  0.00     0.292 C 
HETATM   59  O   UNK N   1      18.850  -6.008   1.603  0.00  0.00    -0.351 OA
HETATM   60  C   UNK N   1      19.674  -5.453   0.609  0.00  0.00     0.152 C 
HETATM   61  C   UNK N   1      20.517  -4.313   1.150  0.00  0.00     0.042 C 
HETATM   62  C   UNK N   1      20.483  -6.542  -0.127  0.00  0.00     0.178 C 
HETATM   63  C   UNK N   1      19.657  -7.839  -0.289  0.00  0.00     0.183 C 
HETATM   64  C   UNK N   1      18.172  -7.476  -0.335  0.00  0.00     0.204 C 
BRANCH  62  65
HETATM   65  O   UNK N   1      21.699  -6.813   0.509  0.00  0.00    -0.390 OA
HETATM   66  H   UNK N   1      21.957  -7.637   0.950  0.00  0.00     0.210 HD
ENDBRANCH  62  65
BRANCH  63  67
HETATM   67  O   UNK N   1      19.885  -8.707   0.786  0.00  0.00    -0.390 OA
HETATM   68  H   UNK N   1      19.443  -9.144   1.530  0.00  0.00     0.210 HD
ENDBRANCH  63  67
BRANCH  64  69
HETATM   69  O   UNK N   1      17.372  -8.608  -0.495  0.00  0.00    -0.388 OA
HETATM   70  H   UNK N   1      16.412  -8.520  -0.607  0.00  0.00     0.210 HD
ENDBRANCH  64  69
ENDBRANCH  57  58
ENDBRANCH   4  57
TORSDOF 15
