MODEL 1
REMARK VINA RESULT:      -6.8      0.000      0.000
REMARK  13 active torsions:
REMARK  status: ('A' for Active; 'I' for Inactive)
REMARK    1  A    between atoms: C_8  and  C_6 
REMARK    2  A    between atoms: N_20  and  C_6 
REMARK    3  A    between atoms: C_9  and  N_21 
REMARK    4  A    between atoms: C_10  and  N_22 
REMARK    5  A    between atoms: C_11  and  N_23 
REMARK    6  A    between atoms: C_12  and  O_25 
REMARK    7  A    between atoms: C_13  and  O_26 
REMARK    8  A    between atoms: C_14  and  O_30 
REMARK    9  A    between atoms: C_15  and  O_31 
REMARK   10  A    between atoms: C_16  and  N_24 
REMARK   11  A    between atoms: C_17  and  O_30 
REMARK   12  A    between atoms: C_18  and  O_31 
REMARK   13  A    between atoms: C_19  and  O_27 
ROOT
HETATM    1  C   UNK N   1      36.945  12.836   9.002  0.00  0.00     0.054 C 
HETATM    2  C   UNK N   1      36.631  14.167   8.308  0.00  0.00     0.107 C 
HETATM    3  C   UNK N   1      37.309  13.014  10.480  0.00  0.00     0.107 C 
HETATM    4  C   UNK N   1      35.906  15.138  10.521  0.00  0.00     0.180 C 
HETATM    5  C   UNK N   1      35.491  14.905   9.040  0.00  0.00     0.178 C 
HETATM    6  C   UNK N   1      36.187  13.773  11.223  0.00  0.00     0.178 C 
ENDROOT
BRANCH   6   7
HETATM    7  O   UNK N   1      36.541  13.875  12.601  0.00  0.00    -0.349 OA
BRANCH   7   8
HETATM    8  C   UNK N   1      35.835  12.972  13.442  0.00  0.00     0.291 C 
HETATM    9  C   UNK N   1      35.948  13.453  14.897  0.00  0.00     0.198 C 
HETATM   10  C   UNK N   1      35.045  12.572  15.821  0.00  0.00     0.146 C 
HETATM   11  C   UNK N   1      34.848  11.149  15.216  0.00  0.00     0.098 C 
HETATM   12  C   UNK N   1      34.537  10.102  16.275  0.00  0.00     0.050 C 
HETATM   13  C   UNK N   1      36.104  10.778  14.433  0.00  0.00     0.210 C 
HETATM   14  O   UNK N   1      36.337  11.629  13.308  0.00  0.00    -0.356 OA
BRANCH   9  15
HETATM   15  O   UNK N   1      37.294  13.336  15.271  0.00  0.00    -0.388 OA
HETATM   16  H   UNK N   1      38.084  13.569  15.783  0.00  0.00     0.210 HD
ENDBRANCH   9  15
BRANCH  10  17
HETATM   17  N   UNK N   1      35.629  12.500  17.168  0.00  0.00    -0.416 N 
HETATM   18  C   UNK N   1      35.108  13.579  17.998  0.00  0.00     0.140 C 
HETATM   19  H   UNK N   1      36.299  11.796  17.478  0.00  0.00     0.153 HD
ENDBRANCH  10  17
BRANCH  11  20
HETATM   20  O   UNK N   1      33.772  11.156  14.319  0.00  0.00    -0.386 OA
HETATM   21  H   UNK N   1      33.519  10.761  13.471  0.00  0.00     0.210 HD
ENDBRANCH  11  20
ENDBRANCH   7   8
ENDBRANCH   6   7
BRANCH   3  22
HETATM   22  N   UNK N   1      38.584  13.709  10.599  0.00  0.00    -0.423 N 
HETATM   23  H   UNK N   1      39.596  13.827  10.642  0.00  0.00     0.150 HD
HETATM   24  H   UNK N   1      38.270  14.673  10.705  0.00  0.00     0.150 HD
ENDBRANCH   3  22
BRANCH   4  25
HETATM   25  O   UNK N   1      37.018  15.984  10.597  0.00  0.00    -0.390 OA
HETATM   26  H   UNK N   1      37.898  16.388  10.565  0.00  0.00     0.210 HD
ENDBRANCH   4  25
BRANCH   5  27
HETATM   27  O   UNK N   1      35.204  16.108   8.329  0.00  0.00    -0.349 OA
BRANCH  27  28
HETATM   28  C   UNK N   1      33.853  16.227   7.903  0.00  0.00     0.288 C 
HETATM   29  C   UNK N   1      33.165  17.385   8.636  0.00  0.00     0.133 C 
HETATM   30  C   UNK N   1      31.693  17.431   8.200  0.00  0.00     0.059 C 
HETATM   31  C   UNK N   1      31.530  17.241   6.709  0.00  0.00     0.009 C 
HETATM   32  C   UNK N   1      32.542  16.766   5.958  0.00  0.00     0.063 C 
HETATM   33  O   UNK N   1      33.733  16.442   6.533  0.00  0.00    -0.321 OA
BRANCH  29  34
HETATM   34  N   UNK N   1      33.813  18.645   8.302  0.00  0.00    -0.422 N 
HETATM   35  H   UNK N   1      34.729  19.031   8.070  0.00  0.00     0.150 HD
HETATM   36  H   UNK N   1      33.119  19.394   8.300  0.00  0.00     0.150 HD
ENDBRANCH  29  34
BRANCH  32  37
HETATM   37  C   UNK N   1      32.373  16.621   4.481  0.00  0.00     0.175 C 
BRANCH  37  38
HETATM   38  N   UNK N   1      31.787  17.829   3.923  0.00  0.00    -0.425 N 
HETATM   39  H   UNK N   1      32.216  18.431   3.221  0.00  0.00     0.150 HD
HETATM   40  H   UNK N   1      30.864  18.098   4.265  0.00  0.00     0.150 HD
ENDBRANCH  37  38
ENDBRANCH  32  37
ENDBRANCH  27  28
ENDBRANCH   5  27
BRANCH   2  41
HETATM   41  N   UNK N   1      36.246  13.896   6.933  0.00  0.00    -0.423 N 
HETATM   42  H   UNK N   1      36.900  13.668   6.183  0.00  0.00     0.150 HD
HETATM   43  H   UNK N   1      35.254  13.937   6.701  0.00  0.00     0.150 HD
ENDBRANCH   2  41
TORSDOF 13
ENDMDL
MODEL 2
REMARK VINA RESULT:      -6.7      2.660      4.846
REMARK  13 active torsions:
REMARK  status: ('A' for Active; 'I' for Inactive)
REMARK    1  A    between atoms: C_8  and  C_6 
REMARK    2  A    between atoms: N_20  and  C_6 
REMARK    3  A    between atoms: C_9  and  N_21 
REMARK    4  A    between atoms: C_10  and  N_22 
REMARK    5  A    between atoms: C_11  and  N_23 
REMARK    6  A    between atoms: C_12  and  O_25 
REMARK    7  A    between atoms: C_13  and  O_26 
REMARK    8  A    between atoms: C_14  and  O_30 
REMARK    9  A    between atoms: C_15  and  O_31 
REMARK   10  A    between atoms: C_16  and  N_24 
REMARK   11  A    between atoms: C_17  and  O_30 
REMARK   12  A    between atoms: C_18  and  O_31 
REMARK   13  A    between atoms: C_19  and  O_27 
ROOT
HETATM    1  C   UNK N   1      34.173  17.184   6.349  0.00  0.00     0.054 C 
HETATM    2  C   UNK N   1      32.688  16.914   6.076  0.00  0.00     0.107 C 
HETATM    3  C   UNK N   1      34.479  17.331   7.844  0.00  0.00     0.107 C 
HETATM    4  C   UNK N   1      32.473  15.850   8.353  0.00  0.00     0.180 C 
HETATM    5  C   UNK N   1      32.217  15.654   6.831  0.00  0.00     0.178 C 
HETATM    6  C   UNK N   1      33.993  16.087   8.618  0.00  0.00     0.178 C 
ENDROOT
BRANCH   6   7
HETATM    7  O   UNK N   1      34.339  16.242   9.993  0.00  0.00    -0.349 OA
BRANCH   7   8
HETATM    8  C   UNK N   1      34.639  15.017  10.649  0.00  0.00     0.291 C 
HETATM    9  C   UNK N   1      35.474  15.314  11.905  0.00  0.00     0.198 C 
HETATM   10  C   UNK N   1      35.678  14.003  12.731  0.00  0.00     0.146 C 
HETATM   11  C   UNK N   1      35.608  12.746  11.812  0.00  0.00     0.098 C 
HETATM   12  C   UNK N   1      36.372  11.561  12.383  0.00  0.00     0.050 C 
HETATM   13  C   UNK N   1      36.139  13.126  10.432  0.00  0.00     0.210 C 
HETATM   14  O   UNK N   1      35.339  14.111   9.774  0.00  0.00    -0.356 OA
BRANCH   9  15
HETATM   15  O   UNK N   1      36.709  15.819  11.474  0.00  0.00    -0.388 OA
HETATM   16  H   UNK N   1      37.338  16.149  10.814  0.00  0.00     0.210 HD
ENDBRANCH   9  15
BRANCH  10  17
HETATM   17  N   UNK N   1      36.957  14.061  13.454  0.00  0.00    -0.416 N 
HETATM   18  C   UNK N   1      36.722  14.317  14.869  0.00  0.00     0.140 C 
HETATM   19  H   UNK N   1      37.876  13.939  13.027  0.00  0.00     0.153 HD
ENDBRANCH  10  17
BRANCH  11  20
HETATM   20  O   UNK N   1      34.277  12.339  11.660  0.00  0.00    -0.386 OA
HETATM   21  H   UNK N   1      33.579  11.901  12.170  0.00  0.00     0.210 HD
ENDBRANCH  11  20
ENDBRANCH   7   8
ENDBRANCH   6   7
BRANCH   3  22
HETATM   22  N   UNK N   1      33.867  18.547   8.360  0.00  0.00    -0.423 N 
HETATM   23  H   UNK N   1      33.736  19.547   8.520  0.00  0.00     0.150 HD
HETATM   24  H   UNK N   1      33.086  18.161   8.890  0.00  0.00     0.150 HD
ENDBRANCH   3  22
BRANCH   4  25
HETATM   25  O   UNK N   1      31.702  16.904   8.854  0.00  0.00    -0.390 OA
HETATM   26  H   UNK N   1      31.065  17.467   9.319  0.00  0.00     0.210 HD
ENDBRANCH   4  25
BRANCH   5  27
HETATM   27  O   UNK N   1      30.849  15.419   6.506  0.00  0.00    -0.349 OA
BRANCH  27  28
HETATM   28  C   UNK N   1      30.133  16.582   6.111  0.00  0.00     0.288 C 
HETATM   29  C   UNK N   1      29.103  16.232   5.031  0.00  0.00     0.133 C 
HETATM   30  C   UNK N   1      28.406  17.525   4.585  0.00  0.00     0.059 C 
HETATM   31  C   UNK N   1      28.045  18.414   5.753  0.00  0.00     0.009 C 
HETATM   32  C   UNK N   1      28.582  18.209   6.971  0.00  0.00     0.063 C 
HETATM   33  O   UNK N   1      29.468  17.195   7.169  0.00  0.00    -0.321 OA
BRANCH  29  34
HETATM   34  N   UNK N   1      28.115  15.303   5.563  0.00  0.00    -0.422 N 
HETATM   35  H   UNK N   1      27.398  14.646   5.258  0.00  0.00     0.150 HD
HETATM   36  H   UNK N   1      28.154  15.314   6.583  0.00  0.00     0.150 HD
ENDBRANCH  29  34
BRANCH  32  37
HETATM   37  C   UNK N   1      28.183  19.076   8.120  0.00  0.00     0.175 C 
BRANCH  37  38
HETATM   38  N   UNK N   1      27.643  18.262   9.197  0.00  0.00    -0.425 N 
HETATM   39  H   UNK N   1      26.696  17.887   9.244  0.00  0.00     0.150 HD
HETATM   40  H   UNK N   1      28.267  18.047   9.974  0.00  0.00     0.150 HD
ENDBRANCH  37  38
ENDBRANCH  32  37
ENDBRANCH  27  28
ENDBRANCH   5  27
BRANCH   2  41
HETATM   41  N   UNK N   1      32.502  16.736   4.646  0.00  0.00    -0.423 N 
HETATM   42  H   UNK N   1      31.711  17.102   4.115  0.00  0.00     0.150 HD
HETATM   43  H   UNK N   1      33.211  16.208   4.138  0.00  0.00     0.150 HD
ENDBRANCH   2  41
TORSDOF 13
ENDMDL
MODEL 3
REMARK VINA RESULT:      -6.5      2.713      4.946
REMARK  13 active torsions:
REMARK  status: ('A' for Active; 'I' for Inactive)
REMARK    1  A    between atoms: C_8  and  C_6 
REMARK    2  A    between atoms: N_20  and  C_6 
REMARK    3  A    between atoms: C_9  and  N_21 
REMARK    4  A    between atoms: C_10  and  N_22 
REMARK    5  A    between atoms: C_11  and  N_23 
REMARK    6  A    between atoms: C_12  and  O_25 
REMARK    7  A    between atoms: C_13  and  O_26 
REMARK    8  A    between atoms: C_14  and  O_30 
REMARK    9  A    between atoms: C_15  and  O_31 
REMARK   10  A    between atoms: C_16  and  N_24 
REMARK   11  A    between atoms: C_17  and  O_30 
REMARK   12  A    between atoms: C_18  and  O_31 
REMARK   13  A    between atoms: C_19  and  O_27 
ROOT
HETATM    1  C   UNK N   1      34.179  17.152   6.336  0.00  0.00     0.054 C 
HETATM    2  C   UNK N   1      32.721  17.562   6.098  0.00  0.00     0.107 C 
HETATM    3  C   UNK N   1      34.562  17.174   7.820  0.00  0.00     0.107 C 
HETATM    4  C   UNK N   1      32.124  16.743   8.408  0.00  0.00     0.180 C 
HETATM    5  C   UNK N   1      31.763  16.654   6.897  0.00  0.00     0.178 C 
HETATM    6  C   UNK N   1      33.599  16.288   8.638  0.00  0.00     0.178 C 
ENDROOT
BRANCH   6   7
HETATM    7  O   UNK N   1      34.017  16.297  10.002  0.00  0.00    -0.349 OA
BRANCH   7   8
HETATM    8  C   UNK N   1      34.393  15.017  10.494  0.00  0.00     0.291 C 
HETATM    9  C   UNK N   1      35.236  15.200  11.766  0.00  0.00     0.198 C 
HETATM   10  C   UNK N   1      35.524  13.808  12.418  0.00  0.00     0.146 C 
HETATM   11  C   UNK N   1      35.499  12.674  11.349  0.00  0.00     0.098 C 
HETATM   12  C   UNK N   1      36.334  11.470  11.755  0.00  0.00     0.050 C 
HETATM   13  C   UNK N   1      35.982  13.251  10.021  0.00  0.00     0.210 C 
HETATM   14  O   UNK N   1      35.120  14.267   9.503  0.00  0.00    -0.356 OA
BRANCH   9  15
HETATM   15  O   UNK N   1      36.435  15.819  11.385  0.00  0.00    -0.388 OA
HETATM   16  H   UNK N   1      37.011  16.580  11.212  0.00  0.00     0.210 HD
ENDBRANCH   9  15
BRANCH  10  17
HETATM   17  N   UNK N   1      36.813  13.844  13.125  0.00  0.00    -0.416 N 
HETATM   18  C   UNK N   1      36.594  13.956  14.561  0.00  0.00     0.140 C 
HETATM   19  H   UNK N   1      37.727  13.796  12.675  0.00  0.00     0.153 HD
ENDBRANCH  10  17
BRANCH  11  20
HETATM   20  O   UNK N   1      34.188  12.219  11.165  0.00  0.00    -0.386 OA
HETATM   21  H   UNK N   1      33.539  12.112  10.452  0.00  0.00     0.210 HD
ENDBRANCH  11  20
ENDBRANCH   7   8
ENDBRANCH   6   7
BRANCH   3  22
HETATM   22  N   UNK N   1      34.565  18.545   8.312  0.00  0.00    -0.423 N 
HETATM   23  H   UNK N   1      34.475  19.310   8.981  0.00  0.00     0.150 HD
HETATM   24  H   UNK N   1      34.806  19.055   7.463  0.00  0.00     0.150 HD
ENDBRANCH   3  22
BRANCH   4  25
HETATM   25  O   UNK N   1      31.913  18.038   8.892  0.00  0.00    -0.390 OA
HETATM   26  H   UNK N   1      31.646  18.959   9.035  0.00  0.00     0.210 HD
ENDBRANCH   4  25
BRANCH   5  27
HETATM   27  O   UNK N   1      30.424  17.043   6.603  0.00  0.00    -0.349 OA
BRANCH  27  28
HETATM   28  C   UNK N   1      29.617  16.003   6.067  0.00  0.00     0.288 C 
HETATM   29  C   UNK N   1      28.489  16.591   5.211  0.00  0.00     0.133 C 
HETATM   30  C   UNK N   1      27.604  15.439   4.713  0.00  0.00     0.059 C 
HETATM   31  C   UNK N   1      28.416  14.257   4.234  0.00  0.00     0.009 C 
HETATM   32  C   UNK N   1      29.723  14.149   4.536  0.00  0.00     0.063 C 
HETATM   33  O   UNK N   1      30.338  15.105   5.285  0.00  0.00    -0.321 OA
BRANCH  29  34
HETATM   34  N   UNK N   1      29.047  17.307   4.071  0.00  0.00    -0.422 N 
HETATM   35  H   UNK N   1      28.981  17.356   3.055  0.00  0.00     0.150 HD
HETATM   36  H   UNK N   1      29.733  17.986   4.400  0.00  0.00     0.150 HD
ENDBRANCH  29  34
BRANCH  32  37
HETATM   37  C   UNK N   1      30.516  12.992   4.021  0.00  0.00     0.175 C 
BRANCH  37  38
HETATM   38  N   UNK N   1      30.415  11.869   4.937  0.00  0.00    -0.425 N 
HETATM   39  H   UNK N   1      30.389  10.884   4.673  0.00  0.00     0.150 HD
HETATM   40  H   UNK N   1      30.366  12.084   5.933  0.00  0.00     0.150 HD
ENDBRANCH  37  38
ENDBRANCH  32  37
ENDBRANCH  27  28
ENDBRANCH   5  27
BRANCH   2  41
HETATM   41  N   UNK N   1      32.434  17.459   4.677  0.00  0.00    -0.423 N 
HETATM   42  H   UNK N   1      32.110  18.232   4.094  0.00  0.00     0.150 HD
HETATM   43  H   UNK N   1      32.566  16.552   4.231  0.00  0.00     0.150 HD
ENDBRANCH   2  41
TORSDOF 13
ENDMDL
MODEL 4
REMARK VINA RESULT:      -6.4      2.561      3.440
REMARK  13 active torsions:
REMARK  status: ('A' for Active; 'I' for Inactive)
REMARK    1  A    between atoms: C_8  and  C_6 
REMARK    2  A    between atoms: N_20  and  C_6 
REMARK    3  A    between atoms: C_9  and  N_21 
REMARK    4  A    between atoms: C_10  and  N_22 
REMARK    5  A    between atoms: C_11  and  N_23 
REMARK    6  A    between atoms: C_12  and  O_25 
REMARK    7  A    between atoms: C_13  and  O_26 
REMARK    8  A    between atoms: C_14  and  O_30 
REMARK    9  A    between atoms: C_15  and  O_31 
REMARK   10  A    between atoms: C_16  and  N_24 
REMARK   11  A    between atoms: C_17  and  O_30 
REMARK   12  A    between atoms: C_18  and  O_31 
REMARK   13  A    between atoms: C_19  and  O_27 
ROOT
HETATM    1  C   UNK N   1      33.170  12.851   7.359  0.00  0.00     0.054 C 
HETATM    2  C   UNK N   1      32.658  14.166   6.757  0.00  0.00     0.107 C 
HETATM    3  C   UNK N   1      34.406  13.050   8.243  0.00  0.00     0.107 C 
HETATM    4  C   UNK N   1      33.629  15.427   8.715  0.00  0.00     0.180 C 
HETATM    5  C   UNK N   1      32.344  15.187   7.871  0.00  0.00     0.178 C 
HETATM    6  C   UNK N   1      34.116  14.087   9.349  0.00  0.00     0.178 C 
ENDROOT
BRANCH   6   7
HETATM    7  O   UNK N   1      35.272  14.207  10.177  0.00  0.00    -0.349 OA
BRANCH   7   8
HETATM    8  C   UNK N   1      35.167  13.511  11.411  0.00  0.00     0.291 C 
HETATM    9  C   UNK N   1      36.095  14.175  12.440  0.00  0.00     0.198 C 
HETATM   10  C   UNK N   1      35.877  13.532  13.848  0.00  0.00     0.146 C 
HETATM   11  C   UNK N   1      35.359  12.068  13.719  0.00  0.00     0.098 C 
HETATM   12  C   UNK N   1      35.701  11.218  14.933  0.00  0.00     0.050 C 
HETATM   13  C   UNK N   1      35.939  11.460  12.445  0.00  0.00     0.210 C 
HETATM   14  O   UNK N   1      35.493  12.116  11.256  0.00  0.00    -0.356 OA
BRANCH   9  15
HETATM   15  O   UNK N   1      37.412  13.970  12.006  0.00  0.00    -0.388 OA
HETATM   16  H   UNK N   1      38.184  13.430  11.775  0.00  0.00     0.210 HD
ENDBRANCH   9  15
BRANCH  10  17
HETATM   17  N   UNK N   1      37.126  13.587  14.623  0.00  0.00    -0.416 N 
HETATM   18  C   UNK N   1      37.100  14.723  15.535  0.00  0.00     0.140 C 
HETATM   19  H   UNK N   1      37.897  12.926  14.534  0.00  0.00     0.153 HD
ENDBRANCH  10  17
BRANCH  11  20
HETATM   20  O   UNK N   1      33.964  12.063  13.598  0.00  0.00    -0.386 OA
HETATM   21  H   UNK N   1      33.211  12.658  13.737  0.00  0.00     0.210 HD
ENDBRANCH  11  20
ENDBRANCH   7   8
ENDBRANCH   6   7
BRANCH   3  22
HETATM   22  N   UNK N   1      35.542  13.454   7.426  0.00  0.00    -0.423 N 
HETATM   23  H   UNK N   1      36.316  14.036   7.102  0.00  0.00     0.150 HD
HETATM   24  H   UNK N   1      35.599  12.673   6.773  0.00  0.00     0.150 HD
ENDBRANCH   3  22
BRANCH   4  25
HETATM   25  O   UNK N   1      34.632  16.012   7.935  0.00  0.00    -0.390 OA
HETATM   26  H   UNK N   1      35.207  16.328   7.221  0.00  0.00     0.210 HD
ENDBRANCH   4  25
BRANCH   5  27
HETATM   27  O   UNK N   1      31.826  16.369   7.265  0.00  0.00    -0.349 OA
BRANCH  27  28
HETATM   28  C   UNK N   1      30.477  16.659   7.607  0.00  0.00     0.288 C 
HETATM   29  C   UNK N   1      30.397  17.211   9.035  0.00  0.00     0.133 C 
HETATM   30  C   UNK N   1      28.919  17.441   9.386  0.00  0.00     0.059 C 
HETATM   31  C   UNK N   1      28.154  18.086   8.252  0.00  0.00     0.009 C 
HETATM   32  C   UNK N   1      28.666  18.126   7.007  0.00  0.00     0.063 C 
HETATM   33  O   UNK N   1      29.885  17.579   6.747  0.00  0.00    -0.321 OA
BRANCH  29  34
HETATM   34  N   UNK N   1      31.123  18.470   9.127  0.00  0.00    -0.422 N 
HETATM   35  H   UNK N   1      31.669  19.025   9.785  0.00  0.00     0.150 HD
HETATM   36  H   UNK N   1      31.065  18.961   8.234  0.00  0.00     0.150 HD
ENDBRANCH  29  34
BRANCH  32  37
HETATM   37  C   UNK N   1      27.911  18.802   5.910  0.00  0.00     0.175 C 
BRANCH  37  38
HETATM   38  N   UNK N   1      26.763  19.510   6.454  0.00  0.00    -0.425 N 
HETATM   39  H   UNK N   1      26.227  19.233   7.276  0.00  0.00     0.150 HD
HETATM   40  H   UNK N   1      26.469  20.358   5.970  0.00  0.00     0.150 HD
ENDBRANCH  37  38
ENDBRANCH  32  37
ENDBRANCH  27  28
ENDBRANCH   5  27
BRANCH   2  41
HETATM   41  N   UNK N   1      31.459  13.889   5.984  0.00  0.00    -0.423 N 
HETATM   42  H   UNK N   1      30.860  14.604   5.569  0.00  0.00     0.150 HD
HETATM   43  H   UNK N   1      31.198  12.913   5.847  0.00  0.00     0.150 HD
ENDBRANCH   2  41
TORSDOF 13
ENDMDL
MODEL 5
REMARK VINA RESULT:      -6.1      8.226     13.706
REMARK  13 active torsions:
REMARK  status: ('A' for Active; 'I' for Inactive)
REMARK    1  A    between atoms: C_8  and  C_6 
REMARK    2  A    between atoms: N_20  and  C_6 
REMARK    3  A    between atoms: C_9  and  N_21 
REMARK    4  A    between atoms: C_10  and  N_22 
REMARK    5  A    between atoms: C_11  and  N_23 
REMARK    6  A    between atoms: C_12  and  O_25 
REMARK    7  A    between atoms: C_13  and  O_26 
REMARK    8  A    between atoms: C_14  and  O_30 
REMARK    9  A    between atoms: C_15  and  O_31 
REMARK   10  A    between atoms: C_16  and  N_24 
REMARK   11  A    between atoms: C_17  and  O_30 
REMARK   12  A    between atoms: C_18  and  O_31 
REMARK   13  A    between atoms: C_19  and  O_27 
ROOT
HETATM    1  C   UNK N   1      26.393  20.631   4.347  0.00  0.00     0.054 C 
HETATM    2  C   UNK N   1      27.421  19.522   4.088  0.00  0.00     0.107 C 
HETATM    3  C   UNK N   1      24.975  20.231   3.924  0.00  0.00     0.107 C 
HETATM    4  C   UNK N   1      25.597  17.794   4.316  0.00  0.00     0.180 C 
HETATM    5  C   UNK N   1      27.009  18.222   4.809  0.00  0.00     0.178 C 
HETATM    6  C   UNK N   1      24.556  18.917   4.619  0.00  0.00     0.178 C 
ENDROOT
BRANCH   6   7
HETATM    7  O   UNK N   1      23.218  18.606   4.238  0.00  0.00    -0.349 OA
BRANCH   7   8
HETATM    8  C   UNK N   1      22.555  17.729   5.139  0.00  0.00     0.291 C 
HETATM    9  C   UNK N   1      21.407  17.026   4.398  0.00  0.00     0.198 C 
HETATM   10  C   UNK N   1      20.766  15.937   5.320  0.00  0.00     0.146 C 
HETATM   11  C   UNK N   1      20.958  16.295   6.824  0.00  0.00     0.098 C 
HETATM   12  C   UNK N   1      19.894  15.670   7.713  0.00  0.00     0.050 C 
HETATM   13  C   UNK N   1      20.962  17.815   6.963  0.00  0.00     0.210 C 
HETATM   14  O   UNK N   1      22.060  18.438   6.291  0.00  0.00    -0.356 OA
BRANCH   9  15
HETATM   15  O   UNK N   1      20.461  18.007   4.069  0.00  0.00    -0.388 OA
HETATM   16  H   UNK N   1      19.582  18.417   4.085  0.00  0.00     0.210 HD
ENDBRANCH   9  15
BRANCH  10  17
HETATM   17  N   UNK N   1      19.343  15.776   4.989  0.00  0.00    -0.416 N 
HETATM   18  C   UNK N   1      19.138  14.541   4.244  0.00  0.00     0.140 C 
HETATM   19  H   UNK N   1      18.606  16.434   5.245  0.00  0.00     0.153 HD
ENDBRANCH  10  17
BRANCH  11  20
HETATM   20  O   UNK N   1      22.197  15.822   7.275  0.00  0.00    -0.386 OA
HETATM   21  H   UNK N   1      23.126  15.812   6.997  0.00  0.00     0.210 HD
ENDBRANCH  11  20
ENDBRANCH   7   8
ENDBRANCH   6   7
BRANCH   3  22
HETATM   22  N   UNK N   1      24.905  20.107   2.474  0.00  0.00    -0.423 N 
HETATM   23  H   UNK N   1      25.192  20.210   1.501  0.00  0.00     0.150 HD
HETATM   24  H   UNK N   1      24.022  19.609   2.365  0.00  0.00     0.150 HD
ENDBRANCH   3  22
BRANCH   4  25
HETATM   25  O   UNK N   1      25.621  17.482   2.953  0.00  0.00    -0.390 OA
HETATM   26  H   UNK N   1      25.436  17.374   2.007  0.00  0.00     0.210 HD
ENDBRANCH   4  25
BRANCH   5  27
HETATM   27  O   UNK N   1      28.018  17.241   4.579  0.00  0.00    -0.349 OA
BRANCH  27  28
HETATM   28  C   UNK N   1      28.726  16.845   5.747  0.00  0.00     0.288 C 
HETATM   29  C   UNK N   1      30.134  16.364   5.378  0.00  0.00     0.133 C 
HETATM   30  C   UNK N   1      30.834  15.880   6.657  0.00  0.00     0.059 C 
HETATM   31  C   UNK N   1      30.605  16.814   7.824  0.00  0.00     0.009 C 
HETATM   32  C   UNK N   1      29.639  17.750   7.782  0.00  0.00     0.063 C 
HETATM   33  O   UNK N   1      28.843  17.868   6.683  0.00  0.00    -0.321 OA
BRANCH  29  34
HETATM   34  N   UNK N   1      30.897  17.454   4.786  0.00  0.00    -0.422 N 
HETATM   35  H   UNK N   1      30.959  18.472   4.786  0.00  0.00     0.150 HD
HETATM   36  H   UNK N   1      31.607  17.071   4.161  0.00  0.00     0.150 HD
ENDBRANCH  29  34
BRANCH  32  37
HETATM   37  C   UNK N   1      29.455  18.687   8.930  0.00  0.00     0.175 C 
BRANCH  37  38
HETATM   38  N   UNK N   1      29.801  18.025  10.177  0.00  0.00    -0.425 N 
HETATM   39  H   UNK N   1      29.218  17.355  10.678  0.00  0.00     0.150 HD
HETATM   40  H   UNK N   1      30.708  18.250  10.586  0.00  0.00     0.150 HD
ENDBRANCH  37  38
ENDBRANCH  32  37
ENDBRANCH  27  28
ENDBRANCH   5  27
BRANCH   2  41
HETATM   41  N   UNK N   1      28.718  19.968   4.568  0.00  0.00    -0.423 N 
HETATM   42  H   UNK N   1      29.576  19.954   4.015  0.00  0.00     0.150 HD
HETATM   43  H   UNK N   1      28.776  20.319   5.523  0.00  0.00     0.150 HD
ENDBRANCH   2  41
TORSDOF 13
ENDMDL
MODEL 6
REMARK VINA RESULT:      -6.1     10.652     14.856
REMARK  13 active torsions:
REMARK  status: ('A' for Active; 'I' for Inactive)
REMARK    1  A    between atoms: C_8  and  C_6 
REMARK    2  A    between atoms: N_20  and  C_6 
REMARK    3  A    between atoms: C_9  and  N_21 
REMARK    4  A    between atoms: C_10  and  N_22 
REMARK    5  A    between atoms: C_11  and  N_23 
REMARK    6  A    between atoms: C_12  and  O_25 
REMARK    7  A    between atoms: C_13  and  O_26 
REMARK    8  A    between atoms: C_14  and  O_30 
REMARK    9  A    between atoms: C_15  and  O_31 
REMARK   10  A    between atoms: C_16  and  N_24 
REMARK   11  A    between atoms: C_17  and  O_30 
REMARK   12  A    between atoms: C_18  and  O_31 
REMARK   13  A    between atoms: C_19  and  O_27 
ROOT
HETATM    1  C   UNK N   1      20.158  17.184   3.206  0.00  0.00     0.054 C 
HETATM    2  C   UNK N   1      19.755  16.802   4.636  0.00  0.00     0.107 C 
HETATM    3  C   UNK N   1      21.221  18.288   3.169  0.00  0.00     0.107 C 
HETATM    4  C   UNK N   1      22.029  17.522   5.458  0.00  0.00     0.180 C 
HETATM    5  C   UNK N   1      20.991  16.364   5.450  0.00  0.00     0.178 C 
HETATM    6  C   UNK N   1      22.456  17.874   3.999  0.00  0.00     0.178 C 
ENDROOT
BRANCH   6   7
HETATM    7  O   UNK N   1      23.438  18.904   3.899  0.00  0.00    -0.349 OA
BRANCH   7   8
HETATM    8  C   UNK N   1      24.664  18.591   4.548  0.00  0.00     0.291 C 
HETATM    9  C   UNK N   1      25.439  19.893   4.806  0.00  0.00     0.198 C 
HETATM   10  C   UNK N   1      26.712  19.594   5.664  0.00  0.00     0.146 C 
HETATM   11  C   UNK N   1      27.197  18.128   5.451  0.00  0.00     0.098 C 
HETATM   12  C   UNK N   1      28.682  17.958   5.732  0.00  0.00     0.050 C 
HETATM   13  C   UNK N   1      26.858  17.708   4.023  0.00  0.00     0.210 C 
HETATM   14  O   UNK N   1      25.452  17.674   3.766  0.00  0.00    -0.356 OA
BRANCH   9  15
HETATM   15  O   UNK N   1      25.801  20.416   3.558  0.00  0.00    -0.388 OA
HETATM   16  H   UNK N   1      25.843  20.421   2.588  0.00  0.00     0.210 HD
ENDBRANCH   9  15
BRANCH  10  17
HETATM   17  N   UNK N   1      27.773  20.557   5.337  0.00  0.00    -0.416 N 
HETATM   18  C   UNK N   1      27.687  21.715   6.216  0.00  0.00     0.140 C 
HETATM   19  H   UNK N   1      28.469  20.432   4.601  0.00  0.00     0.153 HD
ENDBRANCH  10  17
BRANCH  11  20
HETATM   20  O   UNK N   1      26.516  17.267   6.322  0.00  0.00    -0.386 OA
HETATM   21  H   UNK N   1      26.247  16.337   6.376  0.00  0.00     0.210 HD
ENDBRANCH  11  20
ENDBRANCH   7   8
ENDBRANCH   6   7
BRANCH   3  22
HETATM   22  N   UNK N   1      20.656  19.540   3.653  0.00  0.00    -0.423 N 
HETATM   23  H   UNK N   1      20.393  20.263   4.323  0.00  0.00     0.150 HD
HETATM   24  H   UNK N   1      20.305  19.943   2.784  0.00  0.00     0.150 HD
ENDBRANCH   3  22
BRANCH   4  25
HETATM   25  O   UNK N   1      21.516  18.643   6.119  0.00  0.00    -0.390 OA
HETATM   26  H   UNK N   1      21.372  19.431   6.665  0.00  0.00     0.210 HD
ENDBRANCH   4  25
BRANCH   5  27
HETATM   27  O   UNK N   1      20.557  15.973   6.750  0.00  0.00    -0.349 OA
BRANCH  27  28
HETATM   28  C   UNK N   1      21.468  15.128   7.441  0.00  0.00     0.288 C 
HETATM   29  C   UNK N   1      20.840  13.751   7.682  0.00  0.00     0.133 C 
HETATM   30  C   UNK N   1      21.829  12.899   8.491  0.00  0.00     0.059 C 
HETATM   31  C   UNK N   1      23.248  13.036   7.989  0.00  0.00     0.009 C 
HETATM   32  C   UNK N   1      23.595  14.036   7.158  0.00  0.00     0.063 C 
HETATM   33  O   UNK N   1      22.668  14.950   6.758  0.00  0.00    -0.321 OA
BRANCH  29  34
HETATM   34  N   UNK N   1      20.560  13.099   6.409  0.00  0.00    -0.422 N 
HETATM   35  H   UNK N   1      20.768  13.177   5.414  0.00  0.00     0.150 HD
HETATM   36  H   UNK N   1      19.952  12.294   6.567  0.00  0.00     0.150 HD
ENDBRANCH  29  34
BRANCH  32  37
HETATM   37  C   UNK N   1      24.994  14.131   6.644  0.00  0.00     0.175 C 
BRANCH  37  38
HETATM   38  N   UNK N   1      25.020  14.876   5.396  0.00  0.00    -0.425 N 
HETATM   39  H   UNK N   1      25.751  14.827   4.688  0.00  0.00     0.150 HD
HETATM   40  H   UNK N   1      24.236  15.503   5.213  0.00  0.00     0.150 HD
ENDBRANCH  37  38
ENDBRANCH  32  37
ENDBRANCH  27  28
ENDBRANCH   5  27
BRANCH   2  41
HETATM   41  N   UNK N   1      18.790  15.718   4.574  0.00  0.00    -0.423 N 
HETATM   42  H   UNK N   1      17.784  15.844   4.457  0.00  0.00     0.150 HD
HETATM   43  H   UNK N   1      19.142  14.764   4.652  0.00  0.00     0.150 HD
ENDBRANCH   2  41
TORSDOF 13
ENDMDL
MODEL 7
REMARK VINA RESULT:      -6.1      7.999     13.017
REMARK  13 active torsions:
REMARK  status: ('A' for Active; 'I' for Inactive)
REMARK    1  A    between atoms: C_8  and  C_6 
REMARK    2  A    between atoms: N_20  and  C_6 
REMARK    3  A    between atoms: C_9  and  N_21 
REMARK    4  A    between atoms: C_10  and  N_22 
REMARK    5  A    between atoms: C_11  and  N_23 
REMARK    6  A    between atoms: C_12  and  O_25 
REMARK    7  A    between atoms: C_13  and  O_26 
REMARK    8  A    between atoms: C_14  and  O_30 
REMARK    9  A    between atoms: C_15  and  O_31 
REMARK   10  A    between atoms: C_16  and  N_24 
REMARK   11  A    between atoms: C_17  and  O_30 
REMARK   12  A    between atoms: C_18  and  O_31 
REMARK   13  A    between atoms: C_19  and  O_27 
ROOT
HETATM    1  C   UNK N   1      25.752  19.636   5.138  0.00  0.00     0.054 C 
HETATM    2  C   UNK N   1      27.019  19.171   4.409  0.00  0.00     0.107 C 
HETATM    3  C   UNK N   1      24.524  18.788   4.784  0.00  0.00     0.107 C 
HETATM    4  C   UNK N   1      26.077  16.833   4.284  0.00  0.00     0.180 C 
HETATM    5  C   UNK N   1      27.306  17.685   4.713  0.00  0.00     0.178 C 
HETATM    6  C   UNK N   1      24.803  17.295   5.060  0.00  0.00     0.178 C 
ENDROOT
BRANCH   6   7
HETATM    7  O   UNK N   1      23.624  16.548   4.764  0.00  0.00    -0.349 OA
BRANCH   7   8
HETATM    8  C   UNK N   1      22.570  16.751   5.695  0.00  0.00     0.291 C 
HETATM    9  C   UNK N   1      22.494  15.540   6.637  0.00  0.00     0.198 C 
HETATM   10  C   UNK N   1      21.452  15.810   7.771  0.00  0.00     0.146 C 
HETATM   11  C   UNK N   1      20.363  16.821   7.299  0.00  0.00     0.098 C 
HETATM   12  C   UNK N   1      19.054  16.664   8.057  0.00  0.00     0.050 C 
HETATM   13  C   UNK N   1      20.151  16.638   5.799  0.00  0.00     0.210 C 
HETATM   14  O   UNK N   1      21.311  16.955   5.025  0.00  0.00    -0.356 OA
BRANCH   9  15
HETATM   15  O   UNK N   1      22.104  14.436   5.866  0.00  0.00    -0.388 OA
HETATM   16  H   UNK N   1      22.051  13.911   5.053  0.00  0.00     0.210 HD
ENDBRANCH   9  15
BRANCH  10  17
HETATM   17  N   UNK N   1      20.848  14.543   8.208  0.00  0.00    -0.416 N 
HETATM   18  C   UNK N   1      21.379  14.156   9.508  0.00  0.00     0.140 C 
HETATM   19  H   UNK N   1      20.156  14.013   7.678  0.00  0.00     0.153 HD
ENDBRANCH  10  17
BRANCH  11  20
HETATM   20  O   UNK N   1      20.804  18.133   7.511  0.00  0.00    -0.386 OA
HETATM   21  H   UNK N   1      21.601  18.671   7.387  0.00  0.00     0.210 HD
ENDBRANCH  11  20
ENDBRANCH   7   8
ENDBRANCH   6   7
BRANCH   3  22
HETATM   22  N   UNK N   1      24.153  19.007   3.392  0.00  0.00    -0.423 N 
HETATM   23  H   UNK N   1      24.182  19.417   2.458  0.00  0.00     0.150 HD
HETATM   24  H   UNK N   1      23.395  18.334   3.286  0.00  0.00     0.150 HD
ENDBRANCH   3  22
BRANCH   4  25
HETATM   25  O   UNK N   1      25.881  16.908   2.901  0.00  0.00    -0.390 OA
HETATM   26  H   UNK N   1      25.959  17.041   1.944  0.00  0.00     0.210 HD
ENDBRANCH   4  25
BRANCH   5  27
HETATM   27  O   UNK N   1      28.516  17.317   4.056  0.00  0.00    -0.349 OA
BRANCH  27  28
HETATM   28  C   UNK N   1      29.498  16.750   4.914  0.00  0.00     0.288 C 
HETATM   29  C   UNK N   1      30.856  16.694   4.204  0.00  0.00     0.133 C 
HETATM   30  C   UNK N   1      31.866  16.012   5.138  0.00  0.00     0.059 C 
HETATM   31  C   UNK N   1      31.747  16.497   6.565  0.00  0.00     0.009 C 
HETATM   32  C   UNK N   1      30.666  17.188   6.973  0.00  0.00     0.063 C 
HETATM   33  O   UNK N   1      29.653  17.457   6.103  0.00  0.00    -0.321 OA
BRANCH  29  34
HETATM   34  N   UNK N   1      31.313  18.041   3.890  0.00  0.00    -0.422 N 
HETATM   35  H   UNK N   1      31.003  18.900   3.437  0.00  0.00     0.150 HD
HETATM   36  H   UNK N   1      32.263  18.168   4.243  0.00  0.00     0.150 HD
ENDBRANCH  29  34
BRANCH  32  37
HETATM   37  C   UNK N   1      30.586  17.691   8.376  0.00  0.00     0.175 C 
BRANCH  37  38
HETATM   38  N   UNK N   1      31.793  17.337   9.105  0.00  0.00    -0.425 N 
HETATM   39  H   UNK N   1      32.665  17.009   8.691  0.00  0.00     0.150 HD
HETATM   40  H   UNK N   1      31.765  17.425  10.121  0.00  0.00     0.150 HD
ENDBRANCH  37  38
ENDBRANCH  32  37
ENDBRANCH  27  28
ENDBRANCH   5  27
BRANCH   2  41
HETATM   41  N   UNK N   1      28.135  19.992   4.846  0.00  0.00    -0.423 N 
HETATM   42  H   UNK N   1      28.433  20.855   4.389  0.00  0.00     0.150 HD
HETATM   43  H   UNK N   1      28.658  19.686   5.666  0.00  0.00     0.150 HD
ENDBRANCH   2  41
TORSDOF 13
ENDMDL
MODEL 8
REMARK VINA RESULT:      -6.0      3.021      9.637
REMARK  13 active torsions:
REMARK  status: ('A' for Active; 'I' for Inactive)
REMARK    1  A    between atoms: C_8  and  C_6 
REMARK    2  A    between atoms: N_20  and  C_6 
REMARK    3  A    between atoms: C_9  and  N_21 
REMARK    4  A    between atoms: C_10  and  N_22 
REMARK    5  A    between atoms: C_11  and  N_23 
REMARK    6  A    between atoms: C_12  and  O_25 
REMARK    7  A    between atoms: C_13  and  O_26 
REMARK    8  A    between atoms: C_14  and  O_30 
REMARK    9  A    between atoms: C_15  and  O_31 
REMARK   10  A    between atoms: C_16  and  N_24 
REMARK   11  A    between atoms: C_17  and  O_30 
REMARK   12  A    between atoms: C_18  and  O_31 
REMARK   13  A    between atoms: C_19  and  O_27 
ROOT
HETATM    1  C   UNK N   1      33.216  17.659   8.356  0.00  0.00     0.054 C 
HETATM    2  C   UNK N   1      34.409  16.805   8.804  0.00  0.00     0.107 C 
HETATM    3  C   UNK N   1      32.777  17.351   6.920  0.00  0.00     0.107 C 
HETATM    4  C   UNK N   1      33.705  14.996   7.191  0.00  0.00     0.180 C 
HETATM    5  C   UNK N   1      34.082  15.303   8.670  0.00  0.00     0.178 C 
HETATM    6  C   UNK N   1      32.468  15.846   6.763  0.00  0.00     0.178 C 
ENDROOT
BRANCH   6   7
HETATM    7  O   UNK N   1      32.018  15.610   5.430  0.00  0.00    -0.349 OA
BRANCH   7   8
HETATM    8  C   UNK N   1      30.812  16.288   5.104  0.00  0.00     0.291 C 
HETATM    9  C   UNK N   1      29.640  15.589   5.811  0.00  0.00     0.198 C 
HETATM   10  C   UNK N   1      28.326  16.411   5.603  0.00  0.00     0.146 C 
HETATM   11  C   UNK N   1      28.390  17.242   4.286  0.00  0.00     0.098 C 
HETATM   12  C   UNK N   1      27.012  17.550   3.721  0.00  0.00     0.050 C 
HETATM   13  C   UNK N   1      29.238  16.479   3.272  0.00  0.00     0.210 C 
HETATM   14  O   UNK N   1      30.600  16.326   3.680  0.00  0.00    -0.356 OA
BRANCH   9  15
HETATM   15  O   UNK N   1      29.515  14.313   5.246  0.00  0.00    -0.388 OA
HETATM   16  H   UNK N   1      29.825  13.424   5.011  0.00  0.00     0.210 HD
ENDBRANCH   9  15
BRANCH  10  17
HETATM   17  N   UNK N   1      27.166  15.508   5.605  0.00  0.00    -0.416 N 
HETATM   18  C   UNK N   1      26.400  15.678   6.833  0.00  0.00     0.140 C 
HETATM   19  H   UNK N   1      26.931  14.857   4.855  0.00  0.00     0.153 HD
ENDBRANCH  10  17
BRANCH  11  20
HETATM   20  O   UNK N   1      29.017  18.472   4.526  0.00  0.00    -0.386 OA
HETATM   21  H   UNK N   1      29.910  18.846   4.571  0.00  0.00     0.210 HD
ENDBRANCH  11  20
ENDBRANCH   7   8
ENDBRANCH   6   7
BRANCH   3  22
HETATM   22  N   UNK N   1      33.806  17.779   5.983  0.00  0.00    -0.423 N 
HETATM   23  H   UNK N   1      34.277  17.904   5.085  0.00  0.00     0.150 HD
HETATM   24  H   UNK N   1      34.465  18.237   6.613  0.00  0.00     0.150 HD
ENDBRANCH   3  22
BRANCH   4  25
HETATM   25  O   UNK N   1      34.794  15.226   6.345  0.00  0.00    -0.390 OA
HETATM   26  H   UNK N   1      35.553  15.156   5.745  0.00  0.00     0.210 HD
ENDBRANCH   4  25
BRANCH   5  27
HETATM   27  O   UNK N   1      35.199  14.555   9.144  0.00  0.00    -0.349 OA
BRANCH  27  28
HETATM   28  C   UNK N   1      34.888  13.631  10.179  0.00  0.00     0.288 C 
HETATM   29  C   UNK N   1      35.434  12.241   9.833  0.00  0.00     0.133 C 
HETATM   30  C   UNK N   1      35.014  11.264  10.941  0.00  0.00     0.059 C 
HETATM   31  C   UNK N   1      35.188  11.853  12.322  0.00  0.00     0.009 C 
HETATM   32  C   UNK N   1      35.373  13.176  12.492  0.00  0.00     0.063 C 
HETATM   33  O   UNK N   1      35.402  14.010  11.416  0.00  0.00    -0.321 OA
BRANCH  29  34
HETATM   34  N   UNK N   1      36.887  12.282   9.743  0.00  0.00    -0.422 N 
HETATM   35  H   UNK N   1      37.688  11.680   9.554  0.00  0.00     0.150 HD
HETATM   36  H   UNK N   1      37.212  13.230   9.933  0.00  0.00     0.150 HD
ENDBRANCH  29  34
BRANCH  32  37
HETATM   37  C   UNK N   1      35.581  13.732  13.862  0.00  0.00     0.175 C 
BRANCH  37  38
HETATM   38  N   UNK N   1      36.739  14.610  13.876  0.00  0.00    -0.425 N 
HETATM   39  H   UNK N   1      36.877  15.405  14.499  0.00  0.00     0.150 HD
HETATM   40  H   UNK N   1      37.480  14.413  13.202  0.00  0.00     0.150 HD
ENDBRANCH  37  38
ENDBRANCH  32  37
ENDBRANCH  27  28
ENDBRANCH   5  27
BRANCH   2  41
HETATM   41  N   UNK N   1      34.718  17.125  10.187  0.00  0.00    -0.423 N 
HETATM   42  H   UNK N   1      35.634  17.000  10.619  0.00  0.00     0.150 HD
HETATM   43  H   UNK N   1      33.968  17.500  10.767  0.00  0.00     0.150 HD
ENDBRANCH   2  41
TORSDOF 13
ENDMDL
MODEL 9
REMARK VINA RESULT:      -6.0      3.334      6.065
REMARK  13 active torsions:
REMARK  status: ('A' for Active; 'I' for Inactive)
REMARK    1  A    between atoms: C_8  and  C_6 
REMARK    2  A    between atoms: N_20  and  C_6 
REMARK    3  A    between atoms: C_9  and  N_21 
REMARK    4  A    between atoms: C_10  and  N_22 
REMARK    5  A    between atoms: C_11  and  N_23 
REMARK    6  A    between atoms: C_12  and  O_25 
REMARK    7  A    between atoms: C_13  and  O_26 
REMARK    8  A    between atoms: C_14  and  O_30 
REMARK    9  A    between atoms: C_15  and  O_31 
REMARK   10  A    between atoms: C_16  and  N_24 
REMARK   11  A    between atoms: C_17  and  O_30 
REMARK   12  A    between atoms: C_18  and  O_31 
REMARK   13  A    between atoms: C_19  and  O_27 
ROOT
HETATM    1  C   UNK N   1      33.439  17.008   5.570  0.00  0.00     0.054 C 
HETATM    2  C   UNK N   1      32.023  17.573   5.398  0.00  0.00     0.107 C 
HETATM    3  C   UNK N   1      33.877  16.955   7.039  0.00  0.00     0.107 C 
HETATM    4  C   UNK N   1      31.430  16.763   7.713  0.00  0.00     0.180 C 
HETATM    5  C   UNK N   1      31.007  16.749   6.216  0.00  0.00     0.178 C 
HETATM    6  C   UNK N   1      32.857  16.152   7.876  0.00  0.00     0.178 C 
ENDROOT
BRANCH   6   7
HETATM    7  O   UNK N   1      33.325  16.085   9.222  0.00  0.00    -0.349 OA
BRANCH   7   8
HETATM    8  C   UNK N   1      34.502  15.305   9.380  0.00  0.00     0.291 C 
HETATM    9  C   UNK N   1      34.175  14.076  10.244  0.00  0.00     0.198 C 
HETATM   10  C   UNK N   1      35.410  13.118  10.297  0.00  0.00     0.146 C 
HETATM   11  C   UNK N   1      36.737  13.906  10.084  0.00  0.00     0.098 C 
HETATM   12  C   UNK N   1      37.937  13.210  10.708  0.00  0.00     0.050 C 
HETATM   13  C   UNK N   1      36.564  15.311  10.654  0.00  0.00     0.210 C 
HETATM   14  O   UNK N   1      35.566  16.075   9.972  0.00  0.00    -0.356 OA
BRANCH   9  15
HETATM   15  O   UNK N   1      33.860  14.542  11.528  0.00  0.00    -0.388 OA
HETATM   16  H   UNK N   1      33.263  14.738  12.267  0.00  0.00     0.210 HD
ENDBRANCH   9  15
BRANCH  10  17
HETATM   17  N   UNK N   1      35.423  12.391  11.574  0.00  0.00    -0.416 N 
HETATM   18  C   UNK N   1      34.903  11.043  11.389  0.00  0.00     0.140 C 
HETATM   19  H   UNK N   1      35.750  12.774  12.461  0.00  0.00     0.153 HD
ENDBRANCH  10  17
BRANCH  11  20
HETATM   20  O   UNK N   1      37.005  14.032   8.715  0.00  0.00    -0.386 OA
HETATM   21  H   UNK N   1      37.227  14.719   8.068  0.00  0.00     0.210 HD
ENDBRANCH  11  20
ENDBRANCH   7   8
ENDBRANCH   6   7
BRANCH   3  22
HETATM   22  N   UNK N   1      34.041  18.305   7.559  0.00  0.00    -0.423 N 
HETATM   23  H   UNK N   1      33.940  19.090   8.204  0.00  0.00     0.150 HD
HETATM   24  H   UNK N   1      34.604  18.729   6.823  0.00  0.00     0.150 HD
ENDBRANCH   3  22
BRANCH   4  25
HETATM   25  O   UNK N   1      31.373  18.061   8.232  0.00  0.00    -0.390 OA
HETATM   26  H   UNK N   1      31.112  18.943   8.537  0.00  0.00     0.210 HD
ENDBRANCH   4  25
BRANCH   5  27
HETATM   27  O   UNK N   1      29.705  17.281   5.983  0.00  0.00    -0.349 OA
BRANCH  27  28
HETATM   28  C   UNK N   1      28.707  16.299   5.737  0.00  0.00     0.288 C 
HETATM   29  C   UNK N   1      27.434  16.624   6.527  0.00  0.00     0.133 C 
HETATM   30  C   UNK N   1      26.413  15.503   6.288  0.00  0.00     0.059 C 
HETATM   31  C   UNK N   1      26.348  15.086   4.836  0.00  0.00     0.009 C 
HETATM   32  C   UNK N   1      27.313  15.447   3.969  0.00  0.00     0.063 C 
HETATM   33  O   UNK N   1      28.372  16.193   4.390  0.00  0.00    -0.321 OA
BRANCH  29  34
HETATM   34  N   UNK N   1      26.878  17.895   6.082  0.00  0.00    -0.422 N 
HETATM   35  H   UNK N   1      26.186  18.277   5.438  0.00  0.00     0.150 HD
HETATM   36  H   UNK N   1      27.334  18.659   6.582  0.00  0.00     0.150 HD
ENDBRANCH  29  34
BRANCH  32  37
HETATM   37  C   UNK N   1      27.211  15.056   2.531  0.00  0.00     0.175 C 
BRANCH  37  38
HETATM   38  N   UNK N   1      26.018  15.638   1.938  0.00  0.00    -0.425 N 
HETATM   39  H   UNK N   1      25.222  15.119   1.568  0.00  0.00     0.150 HD
HETATM   40  H   UNK N   1      25.973  16.656   1.888  0.00  0.00     0.150 HD
ENDBRANCH  37  38
ENDBRANCH  32  37
ENDBRANCH  27  28
ENDBRANCH   5  27
BRANCH   2  41
HETATM   41  N   UNK N   1      31.675  17.535   3.988  0.00  0.00    -0.423 N 
HETATM   42  H   UNK N   1      31.336  18.336   3.454  0.00  0.00     0.150 HD
HETATM   43  H   UNK N   1      31.776  16.647   3.498  0.00  0.00     0.150 HD
ENDBRANCH   2  41
TORSDOF 13
ENDMDL
