REMARK  6 active torsions:
REMARK  status: ('A' for Active; 'I' for Inactive)
REMARK    1  A    between atoms: C_2  and  O_3 
REMARK    2  A    between atoms: O_3  and  C_4 
REMARK    3  A    between atoms: C_7  and  C_10 
REMARK    4  A    between atoms: N_14  and  C_15 
REMARK    5  A    between atoms: C_18  and  S_21 
REMARK    6  A    between atoms: S_21  and  N_24 
ROOT
HETATM    1  C   UNK N   1       1.540  -1.829   0.049  0.00  0.00     0.050 A 
HETATM    2  C   UNK N   1       2.707  -2.555   0.215  0.00  0.00     0.039 A 
HETATM    3  C   UNK N   1       2.308  -3.876   0.279  0.00  0.00    -0.044 A 
HETATM    4  C   UNK N   1       0.934  -3.930   0.146  0.00  0.00     0.104 A 
HETATM    5  N   UNK N   1       0.474  -2.678  -0.026  0.00  0.00    -0.321 N 
HETATM    6  C   UNK N   1       3.203  -5.042   0.503  0.00  0.00     0.049 C 
ENDROOT
BRANCH   5   7
HETATM    7  C   UNK N   1      -0.914  -2.328  -0.211  0.00  0.00     0.039 A 
HETATM    8  C   UNK N   1      -1.907  -2.954   0.554  0.00  0.00     0.031 A 
HETATM    9  C   UNK N   1      -3.201  -2.418   0.583  0.00  0.00     0.027 A 
HETATM   10  C   UNK N   1      -3.507  -1.283  -0.179  0.00  0.00     0.079 A 
HETATM   11  C   UNK N   1      -2.551  -0.734  -1.029  0.00  0.00     0.027 A 
HETATM   12  C   UNK N   1      -1.266  -1.262  -1.052  0.00  0.00     0.031 A 
BRANCH  10  13
HETATM   13  S   UNK N   1      -5.025  -0.391   0.106  0.00  0.00     0.256 S 
HETATM   14  O   UNK N   1      -6.193  -0.725  -0.830  0.00  0.00    -0.201 OA
HETATM   15  O   UNK N   1      -4.829   1.117  -0.121  0.00  0.00    -0.201 OA
BRANCH  13  16
HETATM   16  N   UNK N   1      -5.667  -0.473   1.747  0.00  0.00    -0.324 N 
HETATM   17  H   UNK N   1      -5.894  -0.176   2.696  0.00  0.00     0.169 HD
HETATM   18  H   UNK N   1      -6.060  -1.415   1.747  0.00  0.00     0.169 HD
ENDBRANCH  13  16
ENDBRANCH  10  13
ENDBRANCH   5   7
BRANCH   1  19
HETATM   19  C   UNK N   1       1.482  -0.336   0.110  0.00  0.00    -0.009 A 
HETATM   20  C   UNK N   1       2.615   0.453  -0.140  0.00  0.00     0.016 A 
HETATM   21  C   UNK N   1       2.531   1.855  -0.072  0.00  0.00     0.037 A 
HETATM   22  C   UNK N   1       1.322   2.478   0.274  0.00  0.00     0.068 A 
HETATM   23  C   UNK N   1       0.211   1.688   0.580  0.00  0.00     0.037 A 
HETATM   24  C   UNK N   1       0.302   0.306   0.509  0.00  0.00     0.016 A 
BRANCH  22  25
HETATM   25  O   UNK N   1       1.241   3.831   0.298  0.00  0.00    -0.352 OA
BRANCH  25  26
HETATM   26  C   UNK N   1       0.087   4.502   0.650  0.00  0.00     0.171 C 
HETATM   27  C   UNK N   1      -0.466   5.242  -0.552  0.00  0.00     0.034 C 
ENDBRANCH  25  26
ENDBRANCH  22  25
ENDBRANCH   1  19
TORSDOF 6
