MODEL 1
REMARK VINA RESULT:      -7.4      0.000      0.000
REMARK  6 active torsions:
REMARK  status: ('A' for Active; 'I' for Inactive)
REMARK    1  A    between atoms: N_2  and  C_4 
REMARK    2  A    between atoms: C_4  and  C_5 
REMARK    3  A    between atoms: C_5  and  C_6 
REMARK    4  A    between atoms: C_6  and  N_7 
REMARK    5  A    between atoms: C_11  and  N_26 
REMARK    6  A    between atoms: C_19  and  O_24 
ROOT
HETATM    1  N   UNK N   1      21.964  17.200   5.497  0.00  0.00    -0.291 N 
HETATM    2  C   UNK N   1      21.486  17.945   4.471  0.00  0.00     0.065 A 
HETATM    3  C   UNK N   1      20.213  18.069   3.917  0.00  0.00     0.034 A 
HETATM    4  C   UNK N   1      20.063  18.981   2.834  0.00  0.00     0.041 A 
HETATM    5  C   UNK N   1      21.172  19.751   2.341  0.00  0.00     0.130 A 
HETATM    6  C   UNK N   1      22.442  19.572   2.963  0.00  0.00     0.081 A 
HETATM    7  C   UNK N   1      22.497  18.669   3.985  0.00  0.00     0.050 A 
HETATM    8  C   UNK N   1      23.587  18.374   4.699  0.00  0.00     0.075 A 
HETATM    9  N   UNK N   1      23.267  17.458   5.641  0.00  0.00    -0.296 N 
ATOM     10  HN  UNK N   1      23.898  17.044   6.328  1.00  0.00     0.187 HD
HETATM   11  C   UNK N   1      24.780  19.014   4.415  0.00  0.00     0.022 A 
HETATM   12  C   UNK N   1      25.940  18.758   5.139  0.00  0.00     0.053 A 
HETATM   13  C   UNK N   1      27.117  19.439   4.836  0.00  0.00     0.069 A 
HETATM   14  C   UNK N   1      27.123  20.387   3.789  0.00  0.00     0.039 A 
HETATM   15  C   UNK N   1      25.958  20.652   3.049  0.00  0.00     0.033 A 
HETATM   16  C   UNK N   1      24.773  19.973   3.349  0.00  0.00     0.045 A 
HETATM   17  N   UNK N   1      23.606  20.230   2.643  0.00  0.00    -0.353 N 
HETATM   18  H   UNK N   1      23.613  20.887   1.910  0.00  0.00     0.166 HD
ENDROOT
BRANCH   1  19
HETATM   19  C   UNK N   1      21.222  16.318   6.382  0.00  0.00     0.151 C 
BRANCH  19  20
HETATM   20  C   UNK N   1      20.614  17.077   7.537  0.00  0.00     0.052 C 
BRANCH  20  21
HETATM   21  C   UNK N   1      19.353  16.336   7.939  0.00  0.00     0.273 C 
BRANCH  21  22
HETATM   22  N   UNK N   1      18.756  16.933   9.123  0.00  0.00     0.080 N 
HETATM   23  C   UNK N   1      19.350  18.247   9.266  0.00  0.00     0.309 C 
HETATM   24  C   UNK N   1      17.341  17.150   8.864  0.00  0.00     0.309 C 
ENDBRANCH  21  22
ENDBRANCH  20  21
ENDBRANCH  19  20
ENDBRANCH   1  19
BRANCH   5  25
HETATM   25  N   UNK N   1      20.966  20.666   1.269  0.00  0.00    -0.113 N 
HETATM   26  O   UNK N   1      20.863  21.838   1.477  0.00  0.00    -0.532 OA
HETATM   27  O   UNK N   1      20.875  20.222   0.033  0.00  0.00    -0.532 OA
ENDBRANCH   5  25
BRANCH  13  28
HETATM   28  O   UNK N   1      28.223  19.167   5.565  0.00  0.00    -0.356 OA
HETATM   29  C   UNK N   1      28.829  17.932   5.592  0.00  0.00     0.210 C 
ENDBRANCH  13  28
TORSDOF 6
ENDMDL
MODEL 2
REMARK VINA RESULT:      -7.1     12.605     13.870
REMARK  6 active torsions:
REMARK  status: ('A' for Active; 'I' for Inactive)
REMARK    1  A    between atoms: N_2  and  C_4 
REMARK    2  A    between atoms: C_4  and  C_5 
REMARK    3  A    between atoms: C_5  and  C_6 
REMARK    4  A    between atoms: C_6  and  N_7 
REMARK    5  A    between atoms: C_11  and  N_26 
REMARK    6  A    between atoms: C_19  and  O_24 
ROOT
HETATM    1  N   UNK N   1      29.518  23.362  -5.091  0.00  0.00    -0.291 N 
HETATM    2  C   UNK N   1      28.645  22.938  -6.037  0.00  0.00     0.065 A 
HETATM    3  C   UNK N   1      28.641  21.827  -6.878  0.00  0.00     0.034 A 
HETATM    4  C   UNK N   1      27.528  21.681  -7.755  0.00  0.00     0.041 A 
HETATM    5  C   UNK N   1      26.450  22.631  -7.764  0.00  0.00     0.130 A 
HETATM    6  C   UNK N   1      26.524  23.739  -6.871  0.00  0.00     0.081 A 
HETATM    7  C   UNK N   1      27.630  23.806  -6.075  0.00  0.00     0.050 A 
HETATM    8  C   UNK N   1      27.874  24.756  -5.168  0.00  0.00     0.075 A 
HETATM    9  N   UNK N   1      29.049  24.490  -4.551  0.00  0.00    -0.296 N 
ATOM     10  HN  UNK N   1      29.491  25.044  -3.817  1.00  0.00     0.187 HD
HETATM   11  C   UNK N   1      26.955  25.772  -4.983  0.00  0.00     0.022 A 
HETATM   12  C   UNK N   1      27.151  26.775  -4.039  0.00  0.00     0.053 A 
HETATM   13  C   UNK N   1      26.191  27.771  -3.869  0.00  0.00     0.069 A 
HETATM   14  C   UNK N   1      25.023  27.755  -4.663  0.00  0.00     0.039 A 
HETATM   15  C   UNK N   1      24.816  26.749  -5.621  0.00  0.00     0.033 A 
HETATM   16  C   UNK N   1      25.774  25.746  -5.796  0.00  0.00     0.045 A 
HETATM   17  N   UNK N   1      25.584  24.732  -6.725  0.00  0.00    -0.353 N 
HETATM   18  H   UNK N   1      24.772  24.725  -7.281  0.00  0.00     0.166 HD
ENDROOT
BRANCH   1  19
HETATM   19  C   UNK N   1      30.730  22.703  -4.636  0.00  0.00     0.151 C 
BRANCH  19  20
HETATM   20  C   UNK N   1      30.419  21.527  -3.742  0.00  0.00     0.052 C 
BRANCH  20  21
HETATM   21  C   UNK N   1      31.359  20.405  -4.142  0.00  0.00     0.273 C 
BRANCH  21  22
HETATM   22  N   UNK N   1      32.663  20.931  -4.517  0.00  0.00     0.080 N 
HETATM   23  C   UNK N   1      33.522  20.763  -3.362  0.00  0.00     0.309 C 
HETATM   24  C   UNK N   1      33.215  20.084  -5.564  0.00  0.00     0.309 C 
ENDBRANCH  21  22
ENDBRANCH  20  21
ENDBRANCH  19  20
ENDBRANCH   1  19
BRANCH   5  25
HETATM   25  N   UNK N   1      25.349  22.429  -8.645  0.00  0.00    -0.113 N 
HETATM   26  O   UNK N   1      25.525  22.250  -9.813  0.00  0.00    -0.532 OA
HETATM   27  O   UNK N   1      24.119  22.449  -8.176  0.00  0.00    -0.532 OA
ENDBRANCH   5  25
BRANCH  13  28
HETATM   28  O   UNK N   1      26.414  28.727  -2.938  0.00  0.00    -0.356 OA
HETATM   29  C   UNK N   1      27.667  29.196  -2.618  0.00  0.00     0.210 C 
ENDBRANCH  13  28
TORSDOF 6
ENDMDL
MODEL 3
REMARK VINA RESULT:      -7.0      1.521      1.899
REMARK  6 active torsions:
REMARK  status: ('A' for Active; 'I' for Inactive)
REMARK    1  A    between atoms: N_2  and  C_4 
REMARK    2  A    between atoms: C_4  and  C_5 
REMARK    3  A    between atoms: C_5  and  C_6 
REMARK    4  A    between atoms: C_6  and  N_7 
REMARK    5  A    between atoms: C_11  and  N_26 
REMARK    6  A    between atoms: C_19  and  O_24 
ROOT
HETATM    1  N   UNK N   1      21.828  17.235   5.515  0.00  0.00    -0.291 N 
HETATM    2  C   UNK N   1      21.375  17.968   4.469  0.00  0.00     0.065 A 
HETATM    3  C   UNK N   1      20.114  18.092   3.890  0.00  0.00     0.034 A 
HETATM    4  C   UNK N   1      19.990  18.990   2.791  0.00  0.00     0.041 A 
HETATM    5  C   UNK N   1      21.114  19.744   2.308  0.00  0.00     0.130 A 
HETATM    6  C   UNK N   1      22.371  19.566   2.956  0.00  0.00     0.081 A 
HETATM    7  C   UNK N   1      22.400  18.678   3.992  0.00  0.00     0.050 A 
HETATM    8  C   UNK N   1      23.475  18.386   4.730  0.00  0.00     0.075 A 
HETATM    9  N   UNK N   1      23.131  17.486   5.679  0.00  0.00    -0.296 N 
ATOM     10  HN  UNK N   1      23.745  17.077   6.384  1.00  0.00     0.187 HD
HETATM   11  C   UNK N   1      24.677  19.014   4.460  0.00  0.00     0.022 A 
HETATM   12  C   UNK N   1      25.821  18.760   5.209  0.00  0.00     0.053 A 
HETATM   13  C   UNK N   1      27.008  19.429   4.919  0.00  0.00     0.069 A 
HETATM   14  C   UNK N   1      27.041  20.362   3.859  0.00  0.00     0.039 A 
HETATM   15  C   UNK N   1      25.892  20.624   3.093  0.00  0.00     0.033 A 
HETATM   16  C   UNK N   1      24.697  19.957   3.381  0.00  0.00     0.045 A 
HETATM   17  N   UNK N   1      23.545  20.212   2.649  0.00  0.00    -0.353 N 
HETATM   18  H   UNK N   1      23.570  20.859   1.907  0.00  0.00     0.166 HD
ENDROOT
BRANCH   1  19
HETATM   19  C   UNK N   1      21.064  16.370   6.398  0.00  0.00     0.151 C 
BRANCH  19  20
HETATM   20  C   UNK N   1      21.968  15.508   7.246  0.00  0.00     0.052 C 
BRANCH  20  21
HETATM   21  C   UNK N   1      21.098  14.871   8.313  0.00  0.00     0.273 C 
BRANCH  21  22
HETATM   22  N   UNK N   1      21.752  13.704   8.885  0.00  0.00     0.080 N 
HETATM   23  C   UNK N   1      21.020  13.373  10.093  0.00  0.00     0.309 C 
HETATM   24  C   UNK N   1      21.567  12.583   7.977  0.00  0.00     0.309 C 
ENDBRANCH  21  22
ENDBRANCH  20  21
ENDBRANCH  19  20
ENDBRANCH   1  19
BRANCH   5  25
HETATM   25  N   UNK N   1      20.934  20.646   1.219  0.00  0.00    -0.113 N 
HETATM   26  O   UNK N   1      20.882  21.825   1.404  0.00  0.00    -0.532 OA
HETATM   27  O   UNK N   1      20.813  20.181  -0.007  0.00  0.00    -0.532 OA
ENDBRANCH   5  25
BRANCH  13  28
HETATM   28  O   UNK N   1      28.099  19.160   5.672  0.00  0.00    -0.356 OA
HETATM   29  C   UNK N   1      28.213  18.046   6.471  0.00  0.00     0.210 C 
ENDBRANCH  13  28
TORSDOF 6
ENDMDL
MODEL 4
REMARK VINA RESULT:      -7.0      2.611      6.023
REMARK  6 active torsions:
REMARK  status: ('A' for Active; 'I' for Inactive)
REMARK    1  A    between atoms: N_2  and  C_4 
REMARK    2  A    between atoms: C_4  and  C_5 
REMARK    3  A    between atoms: C_5  and  C_6 
REMARK    4  A    between atoms: C_6  and  N_7 
REMARK    5  A    between atoms: C_11  and  N_26 
REMARK    6  A    between atoms: C_19  and  O_24 
ROOT
HETATM    1  N   UNK N   1      25.976  18.122   4.216  0.00  0.00    -0.291 N 
HETATM    2  C   UNK N   1      24.967  18.909   3.766  0.00  0.00     0.065 A 
HETATM    3  C   UNK N   1      24.948  20.010   2.912  0.00  0.00     0.034 A 
HETATM    4  C   UNK N   1      23.678  20.593   2.635  0.00  0.00     0.041 A 
HETATM    5  C   UNK N   1      22.469  20.062   3.201  0.00  0.00     0.130 A 
HETATM    6  C   UNK N   1      22.570  18.931   4.062  0.00  0.00     0.081 A 
HETATM    7  C   UNK N   1      23.826  18.444   4.281  0.00  0.00     0.050 A 
HETATM    8  C   UNK N   1      24.124  17.388   5.042  0.00  0.00     0.075 A 
HETATM    9  N   UNK N   1      25.461  17.180   5.011  0.00  0.00    -0.296 N 
ATOM     10  HN  UNK N   1      25.975  16.447   5.500  1.00  0.00     0.187 HD
HETATM   11  C   UNK N   1      23.107  16.697   5.676  0.00  0.00     0.022 A 
HETATM   12  C   UNK N   1      23.361  15.580   6.464  0.00  0.00     0.053 A 
HETATM   13  C   UNK N   1      22.306  14.899   7.070  0.00  0.00     0.069 A 
HETATM   14  C   UNK N   1      20.983  15.353   6.879  0.00  0.00     0.039 A 
HETATM   15  C   UNK N   1      20.716  16.483   6.088  0.00  0.00     0.033 A 
HETATM   16  C   UNK N   1      21.769  17.169   5.476  0.00  0.00     0.045 A 
HETATM   17  N   UNK N   1      21.527  18.278   4.676  0.00  0.00    -0.353 N 
HETATM   18  H   UNK N   1      20.605  18.597   4.548  0.00  0.00     0.166 HD
ENDROOT
BRANCH   1  19
HETATM   19  C   UNK N   1      27.384  18.189   3.865  0.00  0.00     0.151 C 
BRANCH  19  20
HETATM   20  C   UNK N   1      28.216  18.706   5.013  0.00  0.00     0.052 C 
BRANCH  20  21
HETATM   21  C   UNK N   1      28.004  20.207   5.072  0.00  0.00     0.273 C 
BRANCH  21  22
HETATM   22  N   UNK N   1      27.750  20.642   6.437  0.00  0.00     0.080 N 
HETATM   23  C   UNK N   1      26.355  21.033   6.492  0.00  0.00     0.309 C 
HETATM   24  C   UNK N   1      27.887  19.492   7.318  0.00  0.00     0.309 C 
ENDBRANCH  21  22
ENDBRANCH  20  21
ENDBRANCH  19  20
ENDBRANCH   1  19
BRANCH   5  25
HETATM   25  N   UNK N   1      21.221  20.669   2.876  0.00  0.00    -0.113 N 
HETATM   26  O   UNK N   1      20.339  20.722   3.680  0.00  0.00    -0.532 OA
HETATM   27  O   UNK N   1      21.026  21.169   1.674  0.00  0.00    -0.532 OA
ENDBRANCH   5  25
BRANCH  13  28
HETATM   28  O   UNK N   1      22.591  13.813   7.825  0.00  0.00    -0.356 OA
HETATM   29  C   UNK N   1      21.983  13.546   9.029  0.00  0.00     0.210 C 
ENDBRANCH  13  28
TORSDOF 6
ENDMDL
MODEL 5
REMARK VINA RESULT:      -6.5     12.219     13.527
REMARK  6 active torsions:
REMARK  status: ('A' for Active; 'I' for Inactive)
REMARK    1  A    between atoms: N_2  and  C_4 
REMARK    2  A    between atoms: C_4  and  C_5 
REMARK    3  A    between atoms: C_5  and  C_6 
REMARK    4  A    between atoms: C_6  and  N_7 
REMARK    5  A    between atoms: C_11  and  N_26 
REMARK    6  A    between atoms: C_19  and  O_24 
ROOT
HETATM    1  N   UNK N   1      26.975  25.554  -3.979  0.00  0.00    -0.291 N 
HETATM    2  C   UNK N   1      26.655  25.064  -5.201  0.00  0.00     0.065 A 
HETATM    3  C   UNK N   1      25.694  25.439  -6.138  0.00  0.00     0.034 A 
HETATM    4  C   UNK N   1      25.651  24.698  -7.354  0.00  0.00     0.041 A 
HETATM    5  C   UNK N   1      26.566  23.620  -7.609  0.00  0.00     0.130 A 
HETATM    6  C   UNK N   1      27.524  23.299  -6.604  0.00  0.00     0.081 A 
HETATM    7  C   UNK N   1      27.486  24.052  -5.466  0.00  0.00     0.050 A 
HETATM    8  C   UNK N   1      28.306  23.916  -4.421  0.00  0.00     0.075 A 
HETATM    9  N   UNK N   1      27.994  24.844  -3.487  0.00  0.00    -0.296 N 
ATOM     10  HN  UNK N   1      28.449  24.976  -2.584  1.00  0.00     0.187 HD
HETATM   11  C   UNK N   1      29.292  22.947  -4.451  0.00  0.00     0.022 A 
HETATM   12  C   UNK N   1      30.184  22.775  -3.398  0.00  0.00     0.053 A 
HETATM   13  C   UNK N   1      31.177  21.800  -3.476  0.00  0.00     0.069 A 
HETATM   14  C   UNK N   1      31.268  20.989  -4.629  0.00  0.00     0.039 A 
HETATM   15  C   UNK N   1      30.370  21.152  -5.698  0.00  0.00     0.033 A 
HETATM   16  C   UNK N   1      29.373  22.129  -5.627  0.00  0.00     0.045 A 
HETATM   17  N   UNK N   1      28.486  22.319  -6.677  0.00  0.00    -0.353 N 
HETATM   18  H   UNK N   1      28.547  21.751  -7.478  0.00  0.00     0.166 HD
ENDROOT
BRANCH   1  19
HETATM   19  C   UNK N   1      26.402  26.703  -3.300  0.00  0.00     0.151 C 
BRANCH  19  20
HETATM   20  C   UNK N   1      27.241  27.941  -3.504  0.00  0.00     0.052 C 
BRANCH  20  21
HETATM   21  C   UNK N   1      26.483  28.838  -4.464  0.00  0.00     0.273 C 
BRANCH  21  22
HETATM   22  N   UNK N   1      27.393  29.491  -5.393  0.00  0.00     0.080 N 
HETATM   23  C   UNK N   1      28.643  29.676  -4.682  0.00  0.00     0.309 C 
HETATM   24  C   UNK N   1      27.675  28.570  -6.483  0.00  0.00     0.309 C 
ENDBRANCH  21  22
ENDBRANCH  20  21
ENDBRANCH  19  20
ENDBRANCH   1  19
BRANCH   5  25
HETATM   25  N   UNK N   1      26.496  22.923  -8.851  0.00  0.00    -0.113 N 
HETATM   26  O   UNK N   1      25.460  22.479  -9.245  0.00  0.00    -0.532 OA
HETATM   27  O   UNK N   1      27.584  22.754  -9.572  0.00  0.00    -0.532 OA
ENDBRANCH   5  25
BRANCH  13  28
HETATM   28  O   UNK N   1      32.029  21.665  -2.434  0.00  0.00    -0.356 OA
HETATM   29  C   UNK N   1      33.271  21.084  -2.540  0.00  0.00     0.210 C 
ENDBRANCH  13  28
TORSDOF 6
ENDMDL
MODEL 6
REMARK VINA RESULT:      -6.5      5.571     10.235
REMARK  6 active torsions:
REMARK  status: ('A' for Active; 'I' for Inactive)
REMARK    1  A    between atoms: N_2  and  C_4 
REMARK    2  A    between atoms: C_4  and  C_5 
REMARK    3  A    between atoms: C_5  and  C_6 
REMARK    4  A    between atoms: C_6  and  N_7 
REMARK    5  A    between atoms: C_11  and  N_26 
REMARK    6  A    between atoms: C_19  and  O_24 
ROOT
HETATM    1  N   UNK N   1      30.877  16.766   4.509  0.00  0.00    -0.291 N 
HETATM    2  C   UNK N   1      30.767  16.826   5.858  0.00  0.00     0.065 A 
HETATM    3  C   UNK N   1      31.517  16.256   6.885  0.00  0.00     0.034 A 
HETATM    4  C   UNK N   1      31.121  16.555   8.220  0.00  0.00     0.041 A 
HETATM    5  C   UNK N   1      30.005  17.416   8.497  0.00  0.00     0.130 A 
HETATM    6  C   UNK N   1      29.290  17.965   7.393  0.00  0.00     0.081 A 
HETATM    7  C   UNK N   1      29.731  17.617   6.149  0.00  0.00     0.050 A 
HETATM    8  C   UNK N   1      29.204  18.037   4.996  0.00  0.00     0.075 A 
HETATM    9  N   UNK N   1      29.909  17.511   3.968  0.00  0.00    -0.296 N 
ATOM     10  HN  UNK N   1      29.734  17.654   2.973  1.00  0.00     0.187 HD
HETATM   11  C   UNK N   1      28.124  18.901   5.016  0.00  0.00     0.022 A 
HETATM   12  C   UNK N   1      27.550  19.383   3.844  0.00  0.00     0.053 A 
HETATM   13  C   UNK N   1      26.475  20.268   3.907  0.00  0.00     0.069 A 
HETATM   14  C   UNK N   1      25.974  20.667   5.165  0.00  0.00     0.039 A 
HETATM   15  C   UNK N   1      26.545  20.184   6.355  0.00  0.00     0.033 A 
HETATM   16  C   UNK N   1      27.624  19.297   6.299  0.00  0.00     0.045 A 
HETATM   17  N   UNK N   1      28.214  18.819   7.462  0.00  0.00    -0.353 N 
HETATM   18  H   UNK N   1      27.861  19.094   8.338  0.00  0.00     0.166 HD
ENDROOT
BRANCH   1  19
HETATM   19  C   UNK N   1      31.899  16.094   3.725  0.00  0.00     0.151 C 
BRANCH  19  20
HETATM   20  C   UNK N   1      31.528  14.656   3.449  0.00  0.00     0.052 C 
BRANCH  20  21
HETATM   21  C   UNK N   1      32.734  13.810   3.812  0.00  0.00     0.273 C 
BRANCH  21  22
HETATM   22  N   UNK N   1      33.966  14.452   3.381  0.00  0.00     0.080 N 
HETATM   23  C   UNK N   1      34.987  14.064   4.334  0.00  0.00     0.309 C 
HETATM   24  C   UNK N   1      34.360  13.877   2.104  0.00  0.00     0.309 C 
ENDBRANCH  21  22
ENDBRANCH  20  21
ENDBRANCH  19  20
ENDBRANCH   1  19
BRANCH   5  25
HETATM   25  N   UNK N   1      29.662  17.702   9.850  0.00  0.00    -0.113 N 
HETATM   26  O   UNK N   1      29.674  18.824  10.261  0.00  0.00    -0.532 OA
HETATM   27  O   UNK N   1      29.336  16.722  10.667  0.00  0.00    -0.532 OA
ENDBRANCH   5  25
BRANCH  13  28
HETATM   28  O   UNK N   1      25.946  20.720   2.747  0.00  0.00    -0.356 OA
HETATM   29  C   UNK N   1      24.609  20.630   2.437  0.00  0.00     0.210 C 
ENDBRANCH  13  28
TORSDOF 6
ENDMDL
MODEL 7
REMARK VINA RESULT:      -6.5      3.418      6.035
REMARK  6 active torsions:
REMARK  status: ('A' for Active; 'I' for Inactive)
REMARK    1  A    between atoms: N_2  and  C_4 
REMARK    2  A    between atoms: C_4  and  C_5 
REMARK    3  A    between atoms: C_5  and  C_6 
REMARK    4  A    between atoms: C_6  and  N_7 
REMARK    5  A    between atoms: C_11  and  N_26 
REMARK    6  A    between atoms: C_19  and  O_24 
ROOT
HETATM    1  N   UNK N   1      21.912  16.408   4.663  0.00  0.00    -0.291 N 
HETATM    2  C   UNK N   1      21.795  17.574   3.982  0.00  0.00     0.065 A 
HETATM    3  C   UNK N   1      22.326  18.843   4.200  0.00  0.00     0.034 A 
HETATM    4  C   UNK N   1      22.004  19.853   3.249  0.00  0.00     0.041 A 
HETATM    5  C   UNK N   1      21.177  19.573   2.108  0.00  0.00     0.130 A 
HETATM    6  C   UNK N   1      20.674  18.249   1.952  0.00  0.00     0.081 A 
HETATM    7  C   UNK N   1      21.024  17.348   2.915  0.00  0.00     0.050 A 
HETATM    8  C   UNK N   1      20.666  16.061   2.938  0.00  0.00     0.075 A 
HETATM    9  N   UNK N   1      21.211  15.467   4.024  0.00  0.00    -0.296 N 
ATOM     10  HN  UNK N   1      21.107  14.491   4.301  1.00  0.00     0.187 HD
HETATM   11  C   UNK N   1      19.879  15.556   1.918  0.00  0.00     0.022 A 
HETATM   12  C   UNK N   1      19.494  14.220   1.884  0.00  0.00     0.053 A 
HETATM   13  C   UNK N   1      18.718  13.745   0.828  0.00  0.00     0.069 A 
HETATM   14  C   UNK N   1      18.325  14.629  -0.201  0.00  0.00     0.039 A 
HETATM   15  C   UNK N   1      18.707  15.981  -0.174  0.00  0.00     0.033 A 
HETATM   16  C   UNK N   1      19.486  16.464   0.881  0.00  0.00     0.045 A 
HETATM   17  N   UNK N   1      19.888  17.792   0.919  0.00  0.00    -0.353 N 
HETATM   18  H   UNK N   1      19.610  18.408   0.204  0.00  0.00     0.166 HD
ENDROOT
BRANCH   1  19
HETATM   19  C   UNK N   1      22.715  16.141   5.844  0.00  0.00     0.151 C 
BRANCH  19  20
HETATM   20  C   UNK N   1      21.854  15.742   7.019  0.00  0.00     0.052 C 
BRANCH  20  21
HETATM   21  C   UNK N   1      22.414  14.439   7.557  0.00  0.00     0.273 C 
BRANCH  21  22
HETATM   22  N   UNK N   1      21.897  14.162   8.888  0.00  0.00     0.080 N 
HETATM   23  C   UNK N   1      20.704  14.971   9.042  0.00  0.00     0.309 C 
HETATM   24  C   UNK N   1      21.459  12.775   8.931  0.00  0.00     0.309 C 
ENDBRANCH  21  22
ENDBRANCH  20  21
ENDBRANCH  19  20
ENDBRANCH   1  19
BRANCH   5  25
HETATM   25  N   UNK N   1      20.900  20.613   1.174  0.00  0.00    -0.113 N 
HETATM   26  O   UNK N   1      20.702  21.732   1.544  0.00  0.00    -0.532 OA
HETATM   27  O   UNK N   1      20.850  20.345  -0.114  0.00  0.00    -0.532 OA
ENDBRANCH   5  25
BRANCH  13  28
HETATM   28  O   UNK N   1      18.367  12.438   0.826  0.00  0.00    -0.356 OA
HETATM   29  C   UNK N   1      18.042  11.738   1.964  0.00  0.00     0.210 C 
ENDBRANCH  13  28
TORSDOF 6
ENDMDL
MODEL 8
REMARK VINA RESULT:      -6.4      2.737      6.737
REMARK  6 active torsions:
REMARK  status: ('A' for Active; 'I' for Inactive)
REMARK    1  A    between atoms: N_2  and  C_4 
REMARK    2  A    between atoms: C_4  and  C_5 
REMARK    3  A    between atoms: C_5  and  C_6 
REMARK    4  A    between atoms: C_6  and  N_7 
REMARK    5  A    between atoms: C_11  and  N_26 
REMARK    6  A    between atoms: C_19  and  O_24 
ROOT
HETATM    1  N   UNK N   1      26.236  18.296   4.762  0.00  0.00    -0.291 N 
HETATM    2  C   UNK N   1      25.285  19.033   4.139  0.00  0.00     0.065 A 
HETATM    3  C   UNK N   1      25.358  20.162   3.325  0.00  0.00     0.034 A 
HETATM    4  C   UNK N   1      24.131  20.673   2.813  0.00  0.00     0.041 A 
HETATM    5  C   UNK N   1      22.873  20.046   3.112  0.00  0.00     0.130 A 
HETATM    6  C   UNK N   1      22.881  18.892   3.949  0.00  0.00     0.081 A 
HETATM    7  C   UNK N   1      24.099  18.478   4.403  0.00  0.00     0.050 A 
HETATM    8  C   UNK N   1      24.313  17.415   5.183  0.00  0.00     0.075 A 
HETATM    9  N   UNK N   1      25.640  17.294   5.415  0.00  0.00    -0.296 N 
ATOM     10  HN  UNK N   1      26.098  16.577   5.979  1.00  0.00     0.187 HD
HETATM   11  C   UNK N   1      23.242  16.638   5.584  0.00  0.00     0.022 A 
HETATM   12  C   UNK N   1      23.411  15.510   6.380  0.00  0.00     0.053 A 
HETATM   13  C   UNK N   1      22.308  14.741   6.745  0.00  0.00     0.069 A 
HETATM   14  C   UNK N   1      21.020  15.117   6.304  0.00  0.00     0.039 A 
HETATM   15  C   UNK N   1      20.837  16.257   5.502  0.00  0.00     0.033 A 
HETATM   16  C   UNK N   1      21.939  17.031   5.131  0.00  0.00     0.045 A 
HETATM   17  N   UNK N   1      21.785  18.151   4.325  0.00  0.00    -0.353 N 
HETATM   18  H   UNK N   1      20.886  18.416   4.023  0.00  0.00     0.166 HD
ENDROOT
BRANCH   1  19
HETATM   19  C   UNK N   1      27.678  18.465   4.702  0.00  0.00     0.151 C 
BRANCH  19  20
HETATM   20  C   UNK N   1      28.366  17.191   4.272  0.00  0.00     0.052 C 
BRANCH  20  21
HETATM   21  C   UNK N   1      29.853  17.394   4.495  0.00  0.00     0.273 C 
BRANCH  21  22
HETATM   22  N   UNK N   1      30.250  16.912   5.808  0.00  0.00     0.080 N 
HETATM   23  C   UNK N   1      29.981  15.488   5.823  0.00  0.00     0.309 C 
HETATM   24  C   UNK N   1      31.693  17.056   5.933  0.00  0.00     0.309 C 
ENDBRANCH  21  22
ENDBRANCH  20  21
ENDBRANCH  19  20
ENDBRANCH   1  19
BRANCH   5  25
HETATM   25  N   UNK N   1      21.676  20.583   2.558  0.00  0.00    -0.113 N 
HETATM   26  O   UNK N   1      20.775  20.926   3.265  0.00  0.00    -0.532 OA
HETATM   27  O   UNK N   1      21.547  20.696   1.253  0.00  0.00    -0.532 OA
ENDBRANCH   5  25
BRANCH  13  28
HETATM   28  O   UNK N   1      22.512  13.648   7.516  0.00  0.00    -0.356 OA
HETATM   29  C   UNK N   1      21.537  12.716   7.785  0.00  0.00     0.210 C 
ENDBRANCH  13  28
TORSDOF 6
ENDMDL
MODEL 9
REMARK VINA RESULT:      -6.3      7.321     12.065
REMARK  6 active torsions:
REMARK  status: ('A' for Active; 'I' for Inactive)
REMARK    1  A    between atoms: N_2  and  C_4 
REMARK    2  A    between atoms: C_4  and  C_5 
REMARK    3  A    between atoms: C_5  and  C_6 
REMARK    4  A    between atoms: C_6  and  N_7 
REMARK    5  A    between atoms: C_11  and  N_26 
REMARK    6  A    between atoms: C_19  and  O_24 
ROOT
HETATM    1  N   UNK N   1      32.969  15.839   4.842  0.00  0.00    -0.291 N 
HETATM    2  C   UNK N   1      33.622  15.836   6.030  0.00  0.00     0.065 A 
HETATM    3  C   UNK N   1      34.892  15.397   6.399  0.00  0.00     0.034 A 
HETATM    4  C   UNK N   1      35.268  15.572   7.761  0.00  0.00     0.041 A 
HETATM    5  C   UNK N   1      34.382  16.185   8.712  0.00  0.00     0.130 A 
HETATM    6  C   UNK N   1      33.100  16.612   8.257  0.00  0.00     0.081 A 
HETATM    7  C   UNK N   1      32.820  16.396   6.939  0.00  0.00     0.050 A 
HETATM    8  C   UNK N   1      31.684  16.736   6.324  0.00  0.00     0.075 A 
HETATM    9  N   UNK N   1      31.765  16.391   5.018  0.00  0.00    -0.296 N 
ATOM     10  HN  UNK N   1      31.046  16.526   4.307  1.00  0.00     0.187 HD
HETATM   11  C   UNK N   1      30.684  17.366   7.042  0.00  0.00     0.022 A 
HETATM   12  C   UNK N   1      29.490  17.759   6.446  0.00  0.00     0.053 A 
HETATM   13  C   UNK N   1      28.515  18.410   7.199  0.00  0.00     0.069 A 
HETATM   14  C   UNK N   1      28.747  18.664   8.569  0.00  0.00     0.039 A 
HETATM   15  C   UNK N   1      29.949  18.269   9.182  0.00  0.00     0.033 A 
HETATM   16  C   UNK N   1      30.931  17.617   8.431  0.00  0.00     0.045 A 
HETATM   17  N   UNK N   1      32.133  17.233   9.012  0.00  0.00    -0.353 N 
HETATM   18  H   UNK N   1      32.292  17.406   9.967  0.00  0.00     0.166 HD
ENDROOT
BRANCH   1  19
HETATM   19  C   UNK N   1      33.467  15.407   3.548  0.00  0.00     0.151 C 
BRANCH  19  20
HETATM   20  C   UNK N   1      32.628  14.288   2.977  0.00  0.00     0.052 C 
BRANCH  20  21
HETATM   21  C   UNK N   1      33.010  13.024   3.724  0.00  0.00     0.273 C 
BRANCH  21  22
HETATM   22  N   UNK N   1      31.857  12.152   3.889  0.00  0.00     0.080 N 
HETATM   23  C   UNK N   1      32.251  11.124   4.832  0.00  0.00     0.309 C 
HETATM   24  C   UNK N   1      30.796  12.911   4.532  0.00  0.00     0.309 C 
ENDBRANCH  21  22
ENDBRANCH  20  21
ENDBRANCH  19  20
ENDBRANCH   1  19
BRANCH   5  25
HETATM   25  N   UNK N   1      34.813  16.356  10.059  0.00  0.00    -0.113 N 
HETATM   26  O   UNK N   1      34.439  15.617  10.920  0.00  0.00    -0.532 OA
HETATM   27  O   UNK N   1      35.624  17.346  10.370  0.00  0.00    -0.532 OA
ENDBRANCH   5  25
BRANCH  13  28
HETATM   28  O   UNK N   1      27.368  18.781   6.584  0.00  0.00    -0.356 OA
HETATM   29  C   UNK N   1      27.075  20.081   6.246  0.00  0.00     0.210 C 
ENDBRANCH  13  28
TORSDOF 6
ENDMDL
