MODEL 1
REMARK VINA RESULT:      -6.1      0.000      0.000
REMARK WARNING: 32 MAX_TORS EXCEEDED!!!
REMARK  34 active torsions:
REMARK  status: ('A' for Active; 'I' for Inactive)
REMARK    1  A    between atoms: C_2  and  C_3 
REMARK    2  A    between atoms: C_3  and  C_4 
REMARK    3  A    between atoms: C_4  and  C_5 
REMARK    4  A    between atoms: C_5  and  C_6 
REMARK    5  A    between atoms: C_6  and  C_7 
REMARK    6  A    between atoms: C_7  and  C_8 
REMARK    7  A    between atoms: C_8  and  C_9 
REMARK    8  A    between atoms: C_9  and  C_10 
REMARK    9  A    between atoms: C_10  and  C_11 
REMARK   10  A    between atoms: C_11  and  C_12 
REMARK   11  A    between atoms: C_12  and  S_13 
REMARK   12  A    between atoms: S_13  and  C_14 
REMARK   13  A    between atoms: C_14  and  C_15 
REMARK   14  A    between atoms: C_15  and  C_16 
REMARK   15  A    between atoms: C_15  and  O_42 
REMARK   16  A    between atoms: C_16  and  O_17 
REMARK   17  A    between atoms: O_17  and  P_18 
REMARK   18  A    between atoms: P_18  and  O_20 
REMARK   19  A    between atoms: P_18  and  O_21 
REMARK   20  A    between atoms: O_21  and  C_22 
REMARK   21  A    between atoms: C_23  and  C_22 
REMARK   22  A    between atoms: C_24  and  N_37 
REMARK   23  A    between atoms: C_26  and  N_28 
REMARK   24  A    between atoms: N_37  and  N_39 
REMARK   25  A    between atoms: N_39  and  N_40 
REMARK   26  A    between atoms: O_42  and  C_43 
REMARK   27  A    between atoms: C_43  and  C_44 
REMARK   28  A    between atoms: C_44  and  C_45 
REMARK   29  A    between atoms: C_45  and  C_46 
REMARK   30  A    between atoms: C_46  and  C_47 
REMARK   31  A    between atoms: C_47  and  C_48 
REMARK   32  A    between atoms: C_48  and  C_49 
REMARK   33  A    between atoms: C_49  and  C_50 
REMARK   34  A    between atoms: C_50  and  C_51 
ROOT
HETATM    1  O   UNK N   1      35.096  14.945   9.103  0.00  0.00    -0.294 OA
ENDROOT
BRANCH   1   2
HETATM    2  C   UNK N   1      34.507  15.879   8.269  0.00  0.00     0.213 C 
BRANCH   2   3
HETATM    3  C   UNK N   1      33.042  15.506   8.067  0.00  0.00     0.155 C 
BRANCH   3   4
HETATM    4  C   UNK N   1      32.646  14.831   6.770  0.00  0.00     0.108 C 
BRANCH   4   5
HETATM    5  S   UNK N   1      34.030  14.913   5.597  0.00  0.00    -0.167 SA
BRANCH   5   6
HETATM    6  C   UNK N   1      33.617  16.517   4.781  0.00  0.00     0.074 C 
BRANCH   6   7
HETATM    7  C   UNK N   1      32.940  16.419   3.402  0.00  0.00     0.010 C 
BRANCH   7   8
HETATM    8  C   UNK N   1      31.556  17.047   3.248  0.00  0.00     0.001 C 
BRANCH   8   9
HETATM    9  C   UNK N   1      30.943  17.448   4.573  0.00  0.00     0.000 C 
BRANCH   9  10
HETATM   10  C   UNK N   1      29.789  16.511   4.844  0.00  0.00     0.000 C 
BRANCH  10  11
HETATM   11  C   UNK N   1      28.628  16.858   3.938  0.00  0.00     0.000 C 
BRANCH  11  12
HETATM   12  C   UNK N   1      27.497  15.882   4.173  0.00  0.00     0.000 C 
BRANCH  12  13
HETATM   13  C   UNK N   1      26.663  16.335   5.360  0.00  0.00     0.000 C 
BRANCH  13  14
HETATM   14  C   UNK N   1      26.376  15.149   6.252  0.00  0.00     0.000 C 
BRANCH  14  15
HETATM   15  C   UNK N   1      24.926  15.211   6.677  0.00  0.00    -0.000 C 
BRANCH  15  16
HETATM   16  C   UNK N   1      24.045  15.467   5.479  0.00  0.00    -0.005 C 
HETATM   17  C   UNK N   1      23.018  16.514   5.853  0.00  0.00     0.005 C 
ENDBRANCH  15  16
ENDBRANCH  14  15
ENDBRANCH  13  14
ENDBRANCH  12  13
ENDBRANCH  11  12
ENDBRANCH  10  11
ENDBRANCH   9  10
ENDBRANCH   8   9
ENDBRANCH   7   8
ENDBRANCH   6   7
ENDBRANCH   5   6
ENDBRANCH   4   5
ENDBRANCH   3   4
BRANCH   3  18
HETATM   18  O   UNK N   1      32.032  16.174   8.785  0.00  0.00    -0.383 OA
BRANCH  18  19
HETATM   19  C   UNK N   1      31.998  17.519   8.393  0.00  0.00     0.168 C 
BRANCH  19  20
HETATM   20  C   UNK N   1      30.656  18.138   8.721  0.00  0.00     0.026 C 
BRANCH  20  21
HETATM   21  C   UNK N   1      29.548  17.192   8.291  0.00  0.00     0.002 C 
BRANCH  21  22
HETATM   22  C   UNK N   1      28.195  17.822   8.531  0.00  0.00     0.000 C 
BRANCH  22  23
HETATM   23  C   UNK N   1      28.215  19.278   8.097  0.00  0.00     0.000 C 
BRANCH  23  24
HETATM   24  C   UNK N   1      27.859  19.378   6.629  0.00  0.00     0.000 C 
BRANCH  24  25
HETATM   25  C   UNK N   1      27.501  20.809   6.295  0.00  0.00     0.000 C 
BRANCH  25  26
HETATM   26  C   UNK N   1      26.407  20.828   5.256  0.00  0.00    -0.000 C 
BRANCH  26  27
HETATM   27  C   UNK N   1      26.891  20.068   4.043  0.00  0.00    -0.005 C 
HETATM   28  C   UNK N   1      25.714  19.418   3.352  0.00  0.00     0.005 C 
ENDBRANCH  26  27
ENDBRANCH  25  26
ENDBRANCH  24  25
ENDBRANCH  23  24
ENDBRANCH  22  23
ENDBRANCH  21  22
ENDBRANCH  20  21
ENDBRANCH  19  20
ENDBRANCH  18  19
ENDBRANCH   3  18
ENDBRANCH   2   3
ENDBRANCH   1   2
BRANCH   1  29
HETATM   29  P   UNK N   1      35.527  15.820  10.525  0.00  0.00     0.393 P 
HETATM   30  O   UNK N   1      35.182  17.309  10.232  0.00  0.00    -0.631 OA
BRANCH  29  31
HETATM   31  O   UNK N   1      37.218  15.816  10.913  0.00  0.00    -0.307 OA
HETATM   32  H   UNK N   1      37.896  15.163  11.142  0.00  0.00     0.222 HD
ENDBRANCH  29  31
BRANCH  29  33
HETATM   33  O   UNK N   1      34.599  15.211  11.876  0.00  0.00    -0.294 OA
BRANCH  33  34
HETATM   34  C   UNK N   1      34.837  13.838  11.960  0.00  0.00     0.214 C 
BRANCH  34  35
HETATM   35  C   UNK N   1      35.648  13.581  13.208  0.00  0.00     0.173 C 
HETATM   36  C   UNK N   1      36.761  12.564  13.040  0.00  0.00     0.149 C 
HETATM   37  C   UNK N   1      37.219  12.449  14.441  0.00  0.00     0.084 C 
HETATM   38  C   UNK N   1      35.836  12.488  15.021  0.00  0.00     0.234 C 
HETATM   39  O   UNK N   1      34.880  13.213  14.309  0.00  0.00    -0.356 OA
BRANCH  36  40
HETATM   40  N   UNK N   1      37.809  12.991  12.160  0.00  0.00    -0.245 N 
ATOM     41  HN  UNK N   1      38.684  13.355  12.537  1.00  0.00     0.197 HD
BRANCH  40  42
HETATM   42  N   UNK N   1      37.641  12.911  10.957  0.00  0.00    -0.248 NA
BRANCH  42  43
HETATM   43  N   UNK N   1      37.495  12.849   9.751  0.00  0.00    -0.261 N 
HETATM   44  H   UNK N   1      37.627  13.623   9.156  0.00  0.00     0.193 HD
ATOM     45  HN  UNK N   1      37.225  11.957   9.336  1.00  0.00     0.193 HD
ENDBRANCH  42  43
ENDBRANCH  40  42
ENDBRANCH  36  40
BRANCH  38  46
HETATM   46  N   UNK N   1      35.559  12.078  16.368  0.00  0.00    -0.282 N 
HETATM   47  C   UNK N   1      35.340  10.758  16.566  0.00  0.00     0.110 A 
HETATM   48  C   UNK N   1      35.055  10.274  17.826  0.00  0.00     0.022 A 
HETATM   49  C   UNK N   1      34.991  11.176  18.892  0.00  0.00     0.256 A 
HETATM   50  C   UNK N   1      34.825   8.815  18.003  0.00  0.00     0.056 C 
HETATM   51  O   UNK N   1      34.734  10.785  20.015  0.00  0.00    -0.267 OA
HETATM   52  N   UNK N   1      35.218  12.512  18.673  0.00  0.00    -0.275 N 
HETATM   53  C   UNK N   1      35.505  12.969  17.416  0.00  0.00     0.331 A 
HETATM   54  H   UNK N   1      35.175  13.145  19.425  0.00  0.00     0.173 HD
HETATM   55  O   UNK N   1      35.704  14.159  17.233  0.00  0.00    -0.246 OA
ENDBRANCH  38  46
ENDBRANCH  34  35
ENDBRANCH  33  34
ENDBRANCH  29  33
ENDBRANCH   1  29
TORSDOF 34
ENDMDL
MODEL 2
REMARK VINA RESULT:      -6.0      1.634      3.764
REMARK WARNING: 32 MAX_TORS EXCEEDED!!!
REMARK  34 active torsions:
REMARK  status: ('A' for Active; 'I' for Inactive)
REMARK    1  A    between atoms: C_2  and  C_3 
REMARK    2  A    between atoms: C_3  and  C_4 
REMARK    3  A    between atoms: C_4  and  C_5 
REMARK    4  A    between atoms: C_5  and  C_6 
REMARK    5  A    between atoms: C_6  and  C_7 
REMARK    6  A    between atoms: C_7  and  C_8 
REMARK    7  A    between atoms: C_8  and  C_9 
REMARK    8  A    between atoms: C_9  and  C_10 
REMARK    9  A    between atoms: C_10  and  C_11 
REMARK   10  A    between atoms: C_11  and  C_12 
REMARK   11  A    between atoms: C_12  and  S_13 
REMARK   12  A    between atoms: S_13  and  C_14 
REMARK   13  A    between atoms: C_14  and  C_15 
REMARK   14  A    between atoms: C_15  and  C_16 
REMARK   15  A    between atoms: C_15  and  O_42 
REMARK   16  A    between atoms: C_16  and  O_17 
REMARK   17  A    between atoms: O_17  and  P_18 
REMARK   18  A    between atoms: P_18  and  O_20 
REMARK   19  A    between atoms: P_18  and  O_21 
REMARK   20  A    between atoms: O_21  and  C_22 
REMARK   21  A    between atoms: C_23  and  C_22 
REMARK   22  A    between atoms: C_24  and  N_37 
REMARK   23  A    between atoms: C_26  and  N_28 
REMARK   24  A    between atoms: N_37  and  N_39 
REMARK   25  A    between atoms: N_39  and  N_40 
REMARK   26  A    between atoms: O_42  and  C_43 
REMARK   27  A    between atoms: C_43  and  C_44 
REMARK   28  A    between atoms: C_44  and  C_45 
REMARK   29  A    between atoms: C_45  and  C_46 
REMARK   30  A    between atoms: C_46  and  C_47 
REMARK   31  A    between atoms: C_47  and  C_48 
REMARK   32  A    between atoms: C_48  and  C_49 
REMARK   33  A    between atoms: C_49  and  C_50 
REMARK   34  A    between atoms: C_50  and  C_51 
ROOT
HETATM    1  O   UNK N   1      35.182  17.491   9.408  0.00  0.00    -0.294 OA
ENDROOT
BRANCH   1   2
HETATM    2  C   UNK N   1      34.599  16.900   8.301  0.00  0.00     0.213 C 
BRANCH   2   3
HETATM    3  C   UNK N   1      33.588  17.869   7.699  0.00  0.00     0.155 C 
BRANCH   3   4
HETATM    4  C   UNK N   1      32.370  18.238   8.521  0.00  0.00     0.108 C 
BRANCH   4   5
HETATM    5  S   UNK N   1      30.955  17.228   7.993  0.00  0.00    -0.167 SA
BRANCH   5   6
HETATM    6  C   UNK N   1      29.743  17.737   9.289  0.00  0.00     0.074 C 
BRANCH   6   7
HETATM    7  C   UNK N   1      28.484  18.468   8.787  0.00  0.00     0.010 C 
BRANCH   7   8
HETATM    8  C   UNK N   1      28.469  18.927   7.330  0.00  0.00     0.001 C 
BRANCH   8   9
HETATM    9  C   UNK N   1      27.398  19.960   7.051  0.00  0.00     0.000 C 
BRANCH   9  10
HETATM   10  C   UNK N   1      27.831  20.752   5.839  0.00  0.00     0.000 C 
BRANCH  10  11
HETATM   11  C   UNK N   1      27.864  19.848   4.626  0.00  0.00     0.000 C 
BRANCH  11  12
HETATM   12  C   UNK N   1      26.478  19.760   4.026  0.00  0.00     0.000 C 
BRANCH  12  13
HETATM   13  C   UNK N   1      26.148  18.313   3.702  0.00  0.00     0.000 C 
BRANCH  13  14
HETATM   14  C   UNK N   1      24.800  17.962   4.292  0.00  0.00     0.000 C 
BRANCH  14  15
HETATM   15  C   UNK N   1      24.918  16.627   4.992  0.00  0.00    -0.000 C 
BRANCH  15  16
HETATM   16  C   UNK N   1      26.150  16.604   5.862  0.00  0.00    -0.005 C 
HETATM   17  C   UNK N   1      26.150  15.320   6.662  0.00  0.00     0.005 C 
ENDBRANCH  15  16
ENDBRANCH  14  15
ENDBRANCH  13  14
ENDBRANCH  12  13
ENDBRANCH  11  12
ENDBRANCH  10  11
ENDBRANCH   9  10
ENDBRANCH   8   9
ENDBRANCH   7   8
ENDBRANCH   6   7
ENDBRANCH   5   6
ENDBRANCH   4   5
ENDBRANCH   3   4
BRANCH   3  18
HETATM   18  O   UNK N   1      33.501  18.030   6.303  0.00  0.00    -0.383 OA
BRANCH  18  19
HETATM   19  C   UNK N   1      34.016  16.890   5.672  0.00  0.00     0.168 C 
BRANCH  19  20
HETATM   20  C   UNK N   1      33.256  16.594   4.397  0.00  0.00     0.026 C 
BRANCH  20  21
HETATM   21  C   UNK N   1      31.826  16.216   4.741  0.00  0.00     0.002 C 
BRANCH  21  22
HETATM   22  C   UNK N   1      30.856  16.991   3.878  0.00  0.00     0.000 C 
BRANCH  22  23
HETATM   23  C   UNK N   1      29.437  16.509   4.129  0.00  0.00     0.000 C 
BRANCH  23  24
HETATM   24  C   UNK N   1      28.856  15.946   2.849  0.00  0.00     0.000 C 
BRANCH  24  25
HETATM   25  C   UNK N   1      27.796  14.922   3.187  0.00  0.00     0.000 C 
BRANCH  25  26
HETATM   26  C   UNK N   1      27.124  14.453   1.920  0.00  0.00    -0.000 C 
BRANCH  26  27
HETATM   27  C   UNK N   1      26.011  15.419   1.587  0.00  0.00    -0.005 C 
HETATM   28  C   UNK N   1      24.713  14.660   1.430  0.00  0.00     0.005 C 
ENDBRANCH  26  27
ENDBRANCH  25  26
ENDBRANCH  24  25
ENDBRANCH  23  24
ENDBRANCH  22  23
ENDBRANCH  21  22
ENDBRANCH  20  21
ENDBRANCH  19  20
ENDBRANCH  18  19
ENDBRANCH   3  18
ENDBRANCH   2   3
ENDBRANCH   1   2
BRANCH   1  29
HETATM   29  P   UNK N   1      35.620  16.180  10.440  0.00  0.00     0.393 P 
HETATM   30  O   UNK N   1      35.040  16.528  11.842  0.00  0.00    -0.631 OA
BRANCH  29  31
HETATM   31  O   UNK N   1      37.324  15.976  10.694  0.00  0.00    -0.307 OA
HETATM   32  H   UNK N   1      38.002  15.314  10.490  0.00  0.00     0.222 HD
ENDBRANCH  29  31
BRANCH  29  33
HETATM   33  O   UNK N   1      34.923  14.703   9.818  0.00  0.00    -0.294 OA
BRANCH  33  34
HETATM   34  C   UNK N   1      34.158  14.139  10.841  0.00  0.00     0.214 C 
BRANCH  34  35
HETATM   35  C   UNK N   1      35.105  13.570  11.871  0.00  0.00     0.173 C 
HETATM   36  C   UNK N   1      35.757  12.260  11.475  0.00  0.00     0.149 C 
HETATM   37  C   UNK N   1      36.460  11.931  12.733  0.00  0.00     0.084 C 
HETATM   38  C   UNK N   1      35.337  12.382  13.618  0.00  0.00     0.234 C 
HETATM   39  O   UNK N   1      34.532  13.411  13.130  0.00  0.00    -0.356 OA
BRANCH  36  40
HETATM   40  N   UNK N   1      36.657  12.373  10.364  0.00  0.00    -0.245 N 
ATOM     41  HN  UNK N   1      36.395  12.007   9.448  1.00  0.00     0.197 HD
BRANCH  40  42
HETATM   42  N   UNK N   1      37.735  12.912  10.528  0.00  0.00    -0.248 NA
BRANCH  42  43
HETATM   43  N   UNK N   1      38.827  13.426  10.689  0.00  0.00    -0.261 N 
HETATM   44  H   UNK N   1      39.350  13.810   9.948  0.00  0.00     0.193 HD
ATOM     45  HN  UNK N   1      39.217  13.460  11.631  1.00  0.00     0.193 HD
ENDBRANCH  42  43
ENDBRANCH  40  42
ENDBRANCH  36  40
BRANCH  38  46
HETATM   46  N   UNK N   1      35.258  12.013  15.003  0.00  0.00    -0.282 N 
HETATM   47  C   UNK N   1      35.314  13.023  15.901  0.00  0.00     0.110 A 
HETATM   48  C   UNK N   1      35.256  12.763  17.254  0.00  0.00     0.022 A 
HETATM   49  C   UNK N   1      35.145  11.436  17.678  0.00  0.00     0.256 A 
HETATM   50  C   UNK N   1      35.316  13.902  18.211  0.00  0.00     0.056 C 
HETATM   51  O   UNK N   1      35.100  11.169  18.864  0.00  0.00    -0.267 OA
HETATM   52  N   UNK N   1      35.087  10.424  16.753  0.00  0.00    -0.275 N 
HETATM   53  C   UNK N   1      35.141  10.706  15.415  0.00  0.00     0.331 A 
HETATM   54  H   UNK N   1      35.007   9.491  17.053  0.00  0.00     0.173 HD
HETATM   55  O   UNK N   1      35.089   9.798  14.601  0.00  0.00    -0.246 OA
ENDBRANCH  38  46
ENDBRANCH  34  35
ENDBRANCH  33  34
ENDBRANCH  29  33
ENDBRANCH   1  29
TORSDOF 34
ENDMDL
MODEL 3
REMARK VINA RESULT:      -6.0      1.598      3.935
REMARK WARNING: 32 MAX_TORS EXCEEDED!!!
REMARK  34 active torsions:
REMARK  status: ('A' for Active; 'I' for Inactive)
REMARK    1  A    between atoms: C_2  and  C_3 
REMARK    2  A    between atoms: C_3  and  C_4 
REMARK    3  A    between atoms: C_4  and  C_5 
REMARK    4  A    between atoms: C_5  and  C_6 
REMARK    5  A    between atoms: C_6  and  C_7 
REMARK    6  A    between atoms: C_7  and  C_8 
REMARK    7  A    between atoms: C_8  and  C_9 
REMARK    8  A    between atoms: C_9  and  C_10 
REMARK    9  A    between atoms: C_10  and  C_11 
REMARK   10  A    between atoms: C_11  and  C_12 
REMARK   11  A    between atoms: C_12  and  S_13 
REMARK   12  A    between atoms: S_13  and  C_14 
REMARK   13  A    between atoms: C_14  and  C_15 
REMARK   14  A    between atoms: C_15  and  C_16 
REMARK   15  A    between atoms: C_15  and  O_42 
REMARK   16  A    between atoms: C_16  and  O_17 
REMARK   17  A    between atoms: O_17  and  P_18 
REMARK   18  A    between atoms: P_18  and  O_20 
REMARK   19  A    between atoms: P_18  and  O_21 
REMARK   20  A    between atoms: O_21  and  C_22 
REMARK   21  A    between atoms: C_23  and  C_22 
REMARK   22  A    between atoms: C_24  and  N_37 
REMARK   23  A    between atoms: C_26  and  N_28 
REMARK   24  A    between atoms: N_37  and  N_39 
REMARK   25  A    between atoms: N_39  and  N_40 
REMARK   26  A    between atoms: O_42  and  C_43 
REMARK   27  A    between atoms: C_43  and  C_44 
REMARK   28  A    between atoms: C_44  and  C_45 
REMARK   29  A    between atoms: C_45  and  C_46 
REMARK   30  A    between atoms: C_46  and  C_47 
REMARK   31  A    between atoms: C_47  and  C_48 
REMARK   32  A    between atoms: C_48  and  C_49 
REMARK   33  A    between atoms: C_49  and  C_50 
REMARK   34  A    between atoms: C_50  and  C_51 
ROOT
HETATM    1  O   UNK N   1      35.027  17.012   9.558  0.00  0.00    -0.294 OA
ENDROOT
BRANCH   1   2
HETATM    2  C   UNK N   1      34.289  16.503   8.504  0.00  0.00     0.213 C 
BRANCH   2   3
HETATM    3  C   UNK N   1      33.758  17.662   7.667  0.00  0.00     0.155 C 
BRANCH   3   4
HETATM    4  C   UNK N   1      32.423  18.269   8.049  0.00  0.00     0.108 C 
BRANCH   4   5
HETATM    5  S   UNK N   1      31.335  16.972   8.708  0.00  0.00    -0.167 SA
BRANCH   5   6
HETATM    6  C   UNK N   1      29.876  17.238   7.607  0.00  0.00     0.074 C 
BRANCH   6   7
HETATM    7  C   UNK N   1      29.684  16.206   6.481  0.00  0.00     0.010 C 
BRANCH   7   8
HETATM    8  C   UNK N   1      28.497  16.402   5.540  0.00  0.00     0.001 C 
BRANCH   8   9
HETATM    9  C   UNK N   1      27.195  15.898   6.124  0.00  0.00     0.000 C 
BRANCH   9  10
HETATM   10  C   UNK N   1      26.072  16.679   5.481  0.00  0.00     0.000 C 
BRANCH  10  11
HETATM   11  C   UNK N   1      26.647  17.703   4.526  0.00  0.00     0.000 C 
BRANCH  11  12
HETATM   12  C   UNK N   1      25.542  18.252   3.651  0.00  0.00     0.000 C 
BRANCH  12  13
HETATM   13  C   UNK N   1      25.770  19.733   3.401  0.00  0.00     0.000 C 
BRANCH  13  14
HETATM   14  C   UNK N   1      26.856  20.236   4.326  0.00  0.00     0.000 C 
BRANCH  14  15
HETATM   15  C   UNK N   1      26.289  21.361   5.161  0.00  0.00    -0.000 C 
BRANCH  15  16
HETATM   16  C   UNK N   1      26.901  21.344   6.540  0.00  0.00    -0.005 C 
HETATM   17  C   UNK N   1      27.740  20.093   6.678  0.00  0.00     0.005 C 
ENDBRANCH  15  16
ENDBRANCH  14  15
ENDBRANCH  13  14
ENDBRANCH  12  13
ENDBRANCH  11  12
ENDBRANCH  10  11
ENDBRANCH   9  10
ENDBRANCH   8   9
ENDBRANCH   7   8
ENDBRANCH   6   7
ENDBRANCH   5   6
ENDBRANCH   4   5
ENDBRANCH   3   4
BRANCH   3  18
HETATM   18  O   UNK N   1      34.198  17.845   6.343  0.00  0.00    -0.383 OA
BRANCH  18  19
HETATM   19  C   UNK N   1      33.204  17.400   5.460  0.00  0.00     0.168 C 
BRANCH  19  20
HETATM   20  C   UNK N   1      33.594  16.076   4.838  0.00  0.00     0.026 C 
BRANCH  20  21
HETATM   21  C   UNK N   1      32.485  15.610   3.911  0.00  0.00     0.002 C 
BRANCH  21  22
HETATM   22  C   UNK N   1      31.745  16.797   3.339  0.00  0.00     0.000 C 
BRANCH  22  23
HETATM   23  C   UNK N   1      30.450  16.340   2.689  0.00  0.00     0.000 C 
BRANCH  23  24
HETATM   24  C   UNK N   1      30.266  14.854   2.909  0.00  0.00     0.000 C 
BRANCH  24  25
HETATM   25  C   UNK N   1      29.132  14.354   2.043  0.00  0.00     0.000 C 
BRANCH  25  26
HETATM   26  C   UNK N   1      27.824  14.513   2.780  0.00  0.00    -0.000 C 
BRANCH  26  27
HETATM   27  C   UNK N   1      26.831  15.168   1.848  0.00  0.00    -0.005 C 
HETATM   28  C   UNK N   1      25.433  14.711   2.199  0.00  0.00     0.005 C 
ENDBRANCH  26  27
ENDBRANCH  25  26
ENDBRANCH  24  25
ENDBRANCH  23  24
ENDBRANCH  22  23
ENDBRANCH  21  22
ENDBRANCH  20  21
ENDBRANCH  19  20
ENDBRANCH  18  19
ENDBRANCH   3  18
ENDBRANCH   2   3
ENDBRANCH   1   2
BRANCH   1  29
HETATM   29  P   UNK N   1      35.680  15.631  10.359  0.00  0.00     0.393 P 
HETATM   30  O   UNK N   1      37.039  16.090  10.963  0.00  0.00    -0.631 OA
BRANCH  29  31
HETATM   31  O   UNK N   1      36.074  14.295   9.325  0.00  0.00    -0.307 OA
HETATM   32  H   UNK N   1      36.175  13.334   9.407  0.00  0.00     0.222 HD
ENDBRANCH  29  31
BRANCH  29  33
HETATM   33  O   UNK N   1      34.573  15.117  11.610  0.00  0.00    -0.294 OA
BRANCH  33  34
HETATM   34  C   UNK N   1      34.659  13.727  11.698  0.00  0.00     0.214 C 
BRANCH  34  35
HETATM   35  C   UNK N   1      35.446  13.386  12.942  0.00  0.00     0.173 C 
HETATM   36  C   UNK N   1      36.670  12.524  12.699  0.00  0.00     0.149 C 
HETATM   37  C   UNK N   1      37.084  12.265  14.094  0.00  0.00     0.084 C 
HETATM   38  C   UNK N   1      35.685  12.078  14.600  0.00  0.00     0.234 C 
HETATM   39  O   UNK N   1      34.682  12.790  13.942  0.00  0.00    -0.356 OA
BRANCH  36  40
HETATM   40  N   UNK N   1      37.697  13.177  11.940  0.00  0.00    -0.245 N 
ATOM     41  HN  UNK N   1      38.127  14.035  12.284  1.00  0.00     0.197 HD
BRANCH  40  42
HETATM   42  N   UNK N   1      38.049  12.691  10.881  0.00  0.00    -0.248 NA
BRANCH  42  43
HETATM   43  N   UNK N   1      38.410  12.232   9.814  0.00  0.00    -0.261 N 
HETATM   44  H   UNK N   1      38.453  12.767   8.989  0.00  0.00     0.193 HD
ATOM     45  HN  UNK N   1      38.682  11.249   9.772  1.00  0.00     0.193 HD
ENDBRANCH  42  43
ENDBRANCH  40  42
ENDBRANCH  36  40
BRANCH  38  46
HETATM   46  N   UNK N   1      35.404  11.460  15.864  0.00  0.00    -0.282 N 
HETATM   47  C   UNK N   1      35.478  12.255  16.956  0.00  0.00     0.110 A 
HETATM   48  C   UNK N   1      35.234  11.744  18.214  0.00  0.00     0.022 A 
HETATM   49  C   UNK N   1      34.917  10.388  18.338  0.00  0.00     0.256 A 
HETATM   50  C   UNK N   1      35.321  12.652  19.391  0.00  0.00     0.056 C 
HETATM   51  O   UNK N   1      34.704   9.903  19.433  0.00  0.00    -0.267 OA
HETATM   52  N   UNK N   1      34.844   9.597  17.219  0.00  0.00    -0.275 N 
HETATM   53  C   UNK N   1      35.084  10.126  15.981  0.00  0.00     0.331 A 
HETATM   54  H   UNK N   1      34.618   8.644  17.308  0.00  0.00     0.173 HD
HETATM   55  O   UNK N   1      35.017   9.413  14.992  0.00  0.00    -0.246 OA
ENDBRANCH  38  46
ENDBRANCH  34  35
ENDBRANCH  33  34
ENDBRANCH  29  33
ENDBRANCH   1  29
TORSDOF 34
ENDMDL
MODEL 4
REMARK VINA RESULT:      -5.9      1.020      1.638
REMARK WARNING: 32 MAX_TORS EXCEEDED!!!
REMARK  34 active torsions:
REMARK  status: ('A' for Active; 'I' for Inactive)
REMARK    1  A    between atoms: C_2  and  C_3 
REMARK    2  A    between atoms: C_3  and  C_4 
REMARK    3  A    between atoms: C_4  and  C_5 
REMARK    4  A    between atoms: C_5  and  C_6 
REMARK    5  A    between atoms: C_6  and  C_7 
REMARK    6  A    between atoms: C_7  and  C_8 
REMARK    7  A    between atoms: C_8  and  C_9 
REMARK    8  A    between atoms: C_9  and  C_10 
REMARK    9  A    between atoms: C_10  and  C_11 
REMARK   10  A    between atoms: C_11  and  C_12 
REMARK   11  A    between atoms: C_12  and  S_13 
REMARK   12  A    between atoms: S_13  and  C_14 
REMARK   13  A    between atoms: C_14  and  C_15 
REMARK   14  A    between atoms: C_15  and  C_16 
REMARK   15  A    between atoms: C_15  and  O_42 
REMARK   16  A    between atoms: C_16  and  O_17 
REMARK   17  A    between atoms: O_17  and  P_18 
REMARK   18  A    between atoms: P_18  and  O_20 
REMARK   19  A    between atoms: P_18  and  O_21 
REMARK   20  A    between atoms: O_21  and  C_22 
REMARK   21  A    between atoms: C_23  and  C_22 
REMARK   22  A    between atoms: C_24  and  N_37 
REMARK   23  A    between atoms: C_26  and  N_28 
REMARK   24  A    between atoms: N_37  and  N_39 
REMARK   25  A    between atoms: N_39  and  N_40 
REMARK   26  A    between atoms: O_42  and  C_43 
REMARK   27  A    between atoms: C_43  and  C_44 
REMARK   28  A    between atoms: C_44  and  C_45 
REMARK   29  A    between atoms: C_45  and  C_46 
REMARK   30  A    between atoms: C_46  and  C_47 
REMARK   31  A    between atoms: C_47  and  C_48 
REMARK   32  A    between atoms: C_48  and  C_49 
REMARK   33  A    between atoms: C_49  and  C_50 
REMARK   34  A    between atoms: C_50  and  C_51 
ROOT
HETATM    1  O   UNK N   1      33.879  15.428   9.618  0.00  0.00    -0.294 OA
ENDROOT
BRANCH   1   2
HETATM    2  C   UNK N   1      34.016  15.944   8.341  0.00  0.00     0.213 C 
BRANCH   2   3
HETATM    3  C   UNK N   1      32.673  16.504   7.887  0.00  0.00     0.155 C 
BRANCH   3   4
HETATM    4  C   UNK N   1      32.671  17.623   6.865  0.00  0.00     0.108 C 
BRANCH   4   5
HETATM    5  S   UNK N   1      33.383  17.020   5.307  0.00  0.00    -0.167 SA
BRANCH   5   6
HETATM    6  C   UNK N   1      31.855  17.038   4.270  0.00  0.00     0.074 C 
BRANCH   6   7
HETATM    7  C   UNK N   1      30.521  17.121   5.035  0.00  0.00     0.010 C 
BRANCH   7   8
HETATM    8  C   UNK N   1      29.326  16.367   4.453  0.00  0.00     0.001 C 
BRANCH   8   9
HETATM    9  C   UNK N   1      29.224  16.500   2.949  0.00  0.00     0.000 C 
BRANCH   9  10
HETATM   10  C   UNK N   1      28.785  15.163   2.400  0.00  0.00     0.000 C 
BRANCH  10  11
HETATM   11  C   UNK N   1      27.369  14.870   2.848  0.00  0.00     0.000 C 
BRANCH  11  12
HETATM   12  C   UNK N   1      26.428  15.884   2.236  0.00  0.00     0.000 C 
BRANCH  12  13
HETATM   13  C   UNK N   1      25.193  16.034   3.110  0.00  0.00     0.000 C 
BRANCH  13  14
HETATM   14  C   UNK N   1      25.437  15.359   4.441  0.00  0.00     0.000 C 
BRANCH  14  15
HETATM   15  C   UNK N   1      25.765  16.423   5.463  0.00  0.00    -0.000 C 
BRANCH  15  16
HETATM   16  C   UNK N   1      26.305  15.787   6.720  0.00  0.00    -0.005 C 
HETATM   17  C   UNK N   1      25.915  14.325   6.725  0.00  0.00     0.005 C 
ENDBRANCH  15  16
ENDBRANCH  14  15
ENDBRANCH  13  14
ENDBRANCH  12  13
ENDBRANCH  11  12
ENDBRANCH  10  11
ENDBRANCH   9  10
ENDBRANCH   8   9
ENDBRANCH   7   8
ENDBRANCH   6   7
ENDBRANCH   5   6
ENDBRANCH   4   5
ENDBRANCH   3   4
BRANCH   3  18
HETATM   18  O   UNK N   1      31.533  16.368   8.702  0.00  0.00    -0.383 OA
BRANCH  18  19
HETATM   19  C   UNK N   1      30.798  17.561   8.671  0.00  0.00     0.168 C 
BRANCH  19  20
HETATM   20  C   UNK N   1      29.322  17.275   8.490  0.00  0.00     0.026 C 
BRANCH  20  21
HETATM   21  C   UNK N   1      28.553  18.585   8.489  0.00  0.00     0.002 C 
BRANCH  21  22
HETATM   22  C   UNK N   1      28.162  18.965   7.080  0.00  0.00     0.000 C 
BRANCH  22  23
HETATM   23  C   UNK N   1      27.559  20.359   7.064  0.00  0.00     0.000 C 
BRANCH  23  24
HETATM   24  C   UNK N   1      26.851  20.594   5.746  0.00  0.00     0.000 C 
BRANCH  24  25
HETATM   25  C   UNK N   1      27.472  19.721   4.679  0.00  0.00     0.000 C 
BRANCH  25  26
HETATM   26  C   UNK N   1      26.812  19.998   3.351  0.00  0.00    -0.000 C 
BRANCH  26  27
HETATM   27  C   UNK N   1      25.371  19.548   3.434  0.00  0.00    -0.005 C 
HETATM   28  C   UNK N   1      24.474  20.617   2.852  0.00  0.00     0.005 C 
ENDBRANCH  26  27
ENDBRANCH  25  26
ENDBRANCH  24  25
ENDBRANCH  23  24
ENDBRANCH  22  23
ENDBRANCH  21  22
ENDBRANCH  20  21
ENDBRANCH  19  20
ENDBRANCH  18  19
ENDBRANCH   3  18
ENDBRANCH   2   3
ENDBRANCH   1   2
BRANCH   1  29
HETATM   29  P   UNK N   1      35.312  15.903  10.452  0.00  0.00     0.393 P 
HETATM   30  O   UNK N   1      35.474  17.428  10.190  0.00  0.00    -0.631 OA
BRANCH  29  31
HETATM   31  O   UNK N   1      36.780  15.186   9.867  0.00  0.00    -0.307 OA
HETATM   32  H   UNK N   1      37.090  14.753   9.057  0.00  0.00     0.222 HD
ENDBRANCH  29  31
BRANCH  29  33
HETATM   33  O   UNK N   1      35.119  15.572  12.157  0.00  0.00    -0.294 OA
BRANCH  33  34
HETATM   34  C   UNK N   1      34.916  14.197  12.295  0.00  0.00     0.214 C 
BRANCH  34  35
HETATM   35  C   UNK N   1      35.736  13.720  13.471  0.00  0.00     0.173 C 
HETATM   36  C   UNK N   1      36.721  12.614  13.147  0.00  0.00     0.149 C 
HETATM   37  C   UNK N   1      37.211  12.299  14.506  0.00  0.00     0.084 C 
HETATM   38  C   UNK N   1      35.863  12.423  15.150  0.00  0.00     0.234 C 
HETATM   39  O   UNK N   1      34.970  13.319  14.562  0.00  0.00    -0.356 OA
BRANCH  36  40
HETATM   40  N   UNK N   1      37.780  13.019  12.269  0.00  0.00    -0.245 N 
ATOM     41  HN  UNK N   1      38.542  13.604  12.613  1.00  0.00     0.197 HD
BRANCH  40  42
HETATM   42  N   UNK N   1      37.758  12.655  11.108  0.00  0.00    -0.248 NA
BRANCH  42  43
HETATM   43  N   UNK N   1      37.763  12.300   9.944  0.00  0.00    -0.261 N 
HETATM   44  H   UNK N   1      36.959  12.321   9.375  0.00  0.00     0.193 HD
ATOM     45  HN  UNK N   1      38.638  11.966   9.539  1.00  0.00     0.193 HD
ENDBRANCH  42  43
ENDBRANCH  40  42
ENDBRANCH  36  40
BRANCH  38  46
HETATM   46  N   UNK N   1      35.588  11.901  16.458  0.00  0.00    -0.282 N 
HETATM   47  C   UNK N   1      35.445  10.560  16.556  0.00  0.00     0.110 A 
HETATM   48  C   UNK N   1      35.168   9.970  17.772  0.00  0.00     0.022 A 
HETATM   49  C   UNK N   1      35.032  10.788  18.898  0.00  0.00     0.256 A 
HETATM   50  C   UNK N   1      35.022   8.491  17.841  0.00  0.00     0.056 C 
HETATM   51  O   UNK N   1      34.780  10.302  19.985  0.00  0.00    -0.267 OA
HETATM   52  N   UNK N   1      35.183  12.146  18.780  0.00  0.00    -0.275 N 
HETATM   53  C   UNK N   1      35.463  12.709  17.565  0.00  0.00     0.331 A 
HETATM   54  H   UNK N   1      35.089  12.720  19.574  0.00  0.00     0.173 HD
HETATM   55  O   UNK N   1      35.594  13.919  17.472  0.00  0.00    -0.246 OA
ENDBRANCH  38  46
ENDBRANCH  34  35
ENDBRANCH  33  34
ENDBRANCH  29  33
ENDBRANCH   1  29
TORSDOF 34
ENDMDL
MODEL 5
REMARK VINA RESULT:      -5.9      2.158      4.084
REMARK WARNING: 32 MAX_TORS EXCEEDED!!!
REMARK  34 active torsions:
REMARK  status: ('A' for Active; 'I' for Inactive)
REMARK    1  A    between atoms: C_2  and  C_3 
REMARK    2  A    between atoms: C_3  and  C_4 
REMARK    3  A    between atoms: C_4  and  C_5 
REMARK    4  A    between atoms: C_5  and  C_6 
REMARK    5  A    between atoms: C_6  and  C_7 
REMARK    6  A    between atoms: C_7  and  C_8 
REMARK    7  A    between atoms: C_8  and  C_9 
REMARK    8  A    between atoms: C_9  and  C_10 
REMARK    9  A    between atoms: C_10  and  C_11 
REMARK   10  A    between atoms: C_11  and  C_12 
REMARK   11  A    between atoms: C_12  and  S_13 
REMARK   12  A    between atoms: S_13  and  C_14 
REMARK   13  A    between atoms: C_14  and  C_15 
REMARK   14  A    between atoms: C_15  and  C_16 
REMARK   15  A    between atoms: C_15  and  O_42 
REMARK   16  A    between atoms: C_16  and  O_17 
REMARK   17  A    between atoms: O_17  and  P_18 
REMARK   18  A    between atoms: P_18  and  O_20 
REMARK   19  A    between atoms: P_18  and  O_21 
REMARK   20  A    between atoms: O_21  and  C_22 
REMARK   21  A    between atoms: C_23  and  C_22 
REMARK   22  A    between atoms: C_24  and  N_37 
REMARK   23  A    between atoms: C_26  and  N_28 
REMARK   24  A    between atoms: N_37  and  N_39 
REMARK   25  A    between atoms: N_39  and  N_40 
REMARK   26  A    between atoms: O_42  and  C_43 
REMARK   27  A    between atoms: C_43  and  C_44 
REMARK   28  A    between atoms: C_44  and  C_45 
REMARK   29  A    between atoms: C_45  and  C_46 
REMARK   30  A    between atoms: C_46  and  C_47 
REMARK   31  A    between atoms: C_47  and  C_48 
REMARK   32  A    between atoms: C_48  and  C_49 
REMARK   33  A    between atoms: C_49  and  C_50 
REMARK   34  A    between atoms: C_50  and  C_51 
ROOT
HETATM    1  O   UNK N   1      31.850  14.486   8.207  0.00  0.00    -0.294 OA
ENDROOT
BRANCH   1   2
HETATM    2  C   UNK N   1      31.975  15.370   9.264  0.00  0.00     0.213 C 
BRANCH   2   3
HETATM    3  C   UNK N   1      32.180  16.776   8.711  0.00  0.00     0.155 C 
BRANCH   3   4
HETATM    4  C   UNK N   1      30.987  17.491   8.108  0.00  0.00     0.108 C 
BRANCH   4   5
HETATM    5  S   UNK N   1      29.772  17.845   9.411  0.00  0.00    -0.167 SA
BRANCH   5   6
HETATM    6  C   UNK N   1      28.234  17.779   8.391  0.00  0.00     0.074 C 
BRANCH   6   7
HETATM    7  C   UNK N   1      28.278  18.538   7.053  0.00  0.00     0.010 C 
BRANCH   7   8
HETATM    8  C   UNK N   1      27.638  19.925   7.007  0.00  0.00     0.001 C 
BRANCH   8   9
HETATM    9  C   UNK N   1      27.809  20.606   5.666  0.00  0.00     0.000 C 
BRANCH   9  10
HETATM   10  C   UNK N   1      27.511  19.584   4.593  0.00  0.00     0.000 C 
BRANCH  10  11
HETATM   11  C   UNK N   1      26.720  20.234   3.478  0.00  0.00     0.000 C 
BRANCH  11  12
HETATM   12  C   UNK N   1      25.426  19.479   3.273  0.00  0.00     0.000 C 
BRANCH  12  13
HETATM   13  C   UNK N   1      25.334  18.334   4.269  0.00  0.00     0.000 C 
BRANCH  13  14
HETATM   14  C   UNK N   1      23.949  18.309   4.876  0.00  0.00     0.000 C 
BRANCH  14  15
HETATM   15  C   UNK N   1      22.957  18.748   3.823  0.00  0.00    -0.000 C 
BRANCH  15  16
HETATM   16  C   UNK N   1      21.564  18.775   4.400  0.00  0.00    -0.005 C 
HETATM   17  C   UNK N   1      20.588  18.356   3.323  0.00  0.00     0.005 C 
ENDBRANCH  15  16
ENDBRANCH  14  15
ENDBRANCH  13  14
ENDBRANCH  12  13
ENDBRANCH  11  12
ENDBRANCH  10  11
ENDBRANCH   9  10
ENDBRANCH   8   9
ENDBRANCH   7   8
ENDBRANCH   6   7
ENDBRANCH   5   6
ENDBRANCH   4   5
ENDBRANCH   3   4
BRANCH   3  18
HETATM   18  O   UNK N   1      33.460  17.206   8.315  0.00  0.00    -0.383 OA
BRANCH  18  19
HETATM   19  C   UNK N   1      33.368  17.857   7.077  0.00  0.00     0.168 C 
BRANCH  19  20
HETATM   20  C   UNK N   1      33.991  17.016   5.983  0.00  0.00     0.026 C 
BRANCH  20  21
HETATM   21  C   UNK N   1      32.896  16.484   5.074  0.00  0.00     0.002 C 
BRANCH  21  22
HETATM   22  C   UNK N   1      32.263  17.615   4.296  0.00  0.00     0.000 C 
BRANCH  22  23
HETATM   23  C   UNK N   1      30.750  17.538   4.404  0.00  0.00     0.000 C 
BRANCH  23  24
HETATM   24  C   UNK N   1      30.344  16.182   4.940  0.00  0.00     0.000 C 
BRANCH  24  25
HETATM   25  C   UNK N   1      28.924  15.879   4.517  0.00  0.00     0.000 C 
BRANCH  25  26
HETATM   26  C   UNK N   1      28.919  14.714   3.557  0.00  0.00    -0.000 C 
BRANCH  26  27
HETATM   27  C   UNK N   1      28.322  15.178   2.249  0.00  0.00    -0.005 C 
HETATM   28  C   UNK N   1      26.895  15.626   2.477  0.00  0.00     0.005 C 
ENDBRANCH  26  27
ENDBRANCH  25  26
ENDBRANCH  24  25
ENDBRANCH  23  24
ENDBRANCH  22  23
ENDBRANCH  21  22
ENDBRANCH  20  21
ENDBRANCH  19  20
ENDBRANCH  18  19
ENDBRANCH   3  18
ENDBRANCH   2   3
ENDBRANCH   1   2
BRANCH   1  29
HETATM   29  P   UNK N   1      33.261  13.496   8.279  0.00  0.00     0.393 P 
HETATM   30  O   UNK N   1      33.935  13.610   6.881  0.00  0.00    -0.631 OA
BRANCH  29  31
HETATM   31  O   UNK N   1      32.964  11.801   8.499  0.00  0.00    -0.307 OA
HETATM   32  H   UNK N   1      32.943  11.169   9.234  0.00  0.00     0.222 HD
ENDBRANCH  29  31
BRANCH  29  33
HETATM   33  O   UNK N   1      34.315  14.091   9.540  0.00  0.00    -0.294 OA
BRANCH  33  34
HETATM   34  C   UNK N   1      34.668  13.000  10.337  0.00  0.00     0.214 C 
BRANCH  34  35
HETATM   35  C   UNK N   1      34.968  13.515  11.725  0.00  0.00     0.173 C 
HETATM   36  C   UNK N   1      36.394  13.991  11.928  0.00  0.00     0.149 C 
HETATM   37  C   UNK N   1      36.372  14.261  13.381  0.00  0.00     0.084 C 
HETATM   38  C   UNK N   1      35.554  13.049  13.714  0.00  0.00     0.234 C 
HETATM   39  O   UNK N   1      34.660  12.610  12.737  0.00  0.00    -0.356 OA
BRANCH  36  40
HETATM   40  N   UNK N   1      36.730  15.158  11.165  0.00  0.00    -0.245 N 
ATOM     41  HN  UNK N   1      37.642  15.236  10.715  1.00  0.00     0.197 HD
BRANCH  40  42
HETATM   42  N   UNK N   1      35.911  16.052  11.060  0.00  0.00    -0.248 NA
BRANCH  42  43
HETATM   43  N   UNK N   1      35.072  16.929  10.967  0.00  0.00    -0.261 N 
HETATM   44  H   UNK N   1      35.136  17.662  10.313  0.00  0.00     0.193 HD
ATOM     45  HN  UNK N   1      34.268  16.904  11.595  1.00  0.00     0.193 HD
ENDBRANCH  42  43
ENDBRANCH  40  42
ENDBRANCH  36  40
BRANCH  38  46
HETATM   46  N   UNK N   1      35.452  12.537  15.051  0.00  0.00    -0.282 N 
HETATM   47  C   UNK N   1      35.341  13.452  16.041  0.00  0.00     0.110 A 
HETATM   48  C   UNK N   1      35.248  13.053  17.359  0.00  0.00     0.022 A 
HETATM   49  C   UNK N   1      35.279  11.686  17.649  0.00  0.00     0.256 A 
HETATM   50  C   UNK N   1      35.123  14.090  18.420  0.00  0.00     0.056 C 
HETATM   51  O   UNK N   1      35.208  11.299  18.801  0.00  0.00    -0.267 OA
HETATM   52  N   UNK N   1      35.390  10.773  16.632  0.00  0.00    -0.275 N 
HETATM   53  C   UNK N   1      35.475  11.190  15.332  0.00  0.00     0.331 A 
HETATM   54  H   UNK N   1      35.409   9.810  16.838  0.00  0.00     0.173 HD
HETATM   55  O   UNK N   1      35.574  10.368  14.435  0.00  0.00    -0.246 OA
ENDBRANCH  38  46
ENDBRANCH  34  35
ENDBRANCH  33  34
ENDBRANCH  29  33
ENDBRANCH   1  29
TORSDOF 34
ENDMDL
MODEL 6
REMARK VINA RESULT:      -5.9      1.790      2.479
REMARK WARNING: 32 MAX_TORS EXCEEDED!!!
REMARK  34 active torsions:
REMARK  status: ('A' for Active; 'I' for Inactive)
REMARK    1  A    between atoms: C_2  and  C_3 
REMARK    2  A    between atoms: C_3  and  C_4 
REMARK    3  A    between atoms: C_4  and  C_5 
REMARK    4  A    between atoms: C_5  and  C_6 
REMARK    5  A    between atoms: C_6  and  C_7 
REMARK    6  A    between atoms: C_7  and  C_8 
REMARK    7  A    between atoms: C_8  and  C_9 
REMARK    8  A    between atoms: C_9  and  C_10 
REMARK    9  A    between atoms: C_10  and  C_11 
REMARK   10  A    between atoms: C_11  and  C_12 
REMARK   11  A    between atoms: C_12  and  S_13 
REMARK   12  A    between atoms: S_13  and  C_14 
REMARK   13  A    between atoms: C_14  and  C_15 
REMARK   14  A    between atoms: C_15  and  C_16 
REMARK   15  A    between atoms: C_15  and  O_42 
REMARK   16  A    between atoms: C_16  and  O_17 
REMARK   17  A    between atoms: O_17  and  P_18 
REMARK   18  A    between atoms: P_18  and  O_20 
REMARK   19  A    between atoms: P_18  and  O_21 
REMARK   20  A    between atoms: O_21  and  C_22 
REMARK   21  A    between atoms: C_23  and  C_22 
REMARK   22  A    between atoms: C_24  and  N_37 
REMARK   23  A    between atoms: C_26  and  N_28 
REMARK   24  A    between atoms: N_37  and  N_39 
REMARK   25  A    between atoms: N_39  and  N_40 
REMARK   26  A    between atoms: O_42  and  C_43 
REMARK   27  A    between atoms: C_43  and  C_44 
REMARK   28  A    between atoms: C_44  and  C_45 
REMARK   29  A    between atoms: C_45  and  C_46 
REMARK   30  A    between atoms: C_46  and  C_47 
REMARK   31  A    between atoms: C_47  and  C_48 
REMARK   32  A    between atoms: C_48  and  C_49 
REMARK   33  A    between atoms: C_49  and  C_50 
REMARK   34  A    between atoms: C_50  and  C_51 
ROOT
HETATM    1  O   UNK N   1      35.271  13.560  10.434  0.00  0.00    -0.294 OA
ENDROOT
BRANCH   1   2
HETATM    2  C   UNK N   1      34.222  14.310   9.935  0.00  0.00     0.213 C 
BRANCH   2   3
HETATM    3  C   UNK N   1      34.640  14.918   8.601  0.00  0.00     0.155 C 
BRANCH   3   4
HETATM    4  C   UNK N   1      35.089  13.984   7.495  0.00  0.00     0.108 C 
BRANCH   4   5
HETATM    5  S   UNK N   1      35.477  14.950   6.007  0.00  0.00    -0.167 SA
BRANCH   5   6
HETATM    6  C   UNK N   1      33.756  15.305   5.441  0.00  0.00     0.074 C 
BRANCH   6   7
HETATM    7  C   UNK N   1      33.598  15.686   3.957  0.00  0.00     0.010 C 
BRANCH   7   8
HETATM    8  C   UNK N   1      32.267  16.297   3.524  0.00  0.00     0.001 C 
BRANCH   8   9
HETATM    9  C   UNK N   1      31.912  17.544   4.304  0.00  0.00     0.000 C 
BRANCH   9  10
HETATM   10  C   UNK N   1      30.448  17.456   4.666  0.00  0.00     0.000 C 
BRANCH  10  11
HETATM   11  C   UNK N   1      30.171  16.132   5.346  0.00  0.00     0.000 C 
BRANCH  11  12
HETATM   12  C   UNK N   1      28.698  15.807   5.235  0.00  0.00     0.000 C 
BRANCH  12  13
HETATM   13  C   UNK N   1      28.200  16.146   3.839  0.00  0.00     0.000 C 
BRANCH  13  14
HETATM   14  C   UNK N   1      26.795  15.612   3.666  0.00  0.00     0.000 C 
BRANCH  14  15
HETATM   15  C   UNK N   1      25.970  16.662   2.957  0.00  0.00    -0.000 C 
BRANCH  15  16
HETATM   16  C   UNK N   1      26.089  17.986   3.672  0.00  0.00    -0.005 C 
HETATM   17  C   UNK N   1      25.069  18.023   4.789  0.00  0.00     0.005 C 
ENDBRANCH  15  16
ENDBRANCH  14  15
ENDBRANCH  13  14
ENDBRANCH  12  13
ENDBRANCH  11  12
ENDBRANCH  10  11
ENDBRANCH   9  10
ENDBRANCH   8   9
ENDBRANCH   7   8
ENDBRANCH   6   7
ENDBRANCH   5   6
ENDBRANCH   4   5
ENDBRANCH   3   4
BRANCH   3  18
HETATM   18  O   UNK N   1      35.069  16.257   8.532  0.00  0.00    -0.383 OA
BRANCH  18  19
HETATM   19  C   UNK N   1      34.102  17.084   9.119  0.00  0.00     0.168 C 
BRANCH  19  20
HETATM   20  C   UNK N   1      33.645  18.148   8.144  0.00  0.00     0.026 C 
BRANCH  20  21
HETATM   21  C   UNK N   1      32.169  17.954   7.844  0.00  0.00     0.002 C 
BRANCH  21  22
HETATM   22  C   UNK N   1      31.608  16.822   8.673  0.00  0.00     0.000 C 
BRANCH  22  23
HETATM   23  C   UNK N   1      30.159  17.106   9.030  0.00  0.00     0.000 C 
BRANCH  23  24
HETATM   24  C   UNK N   1      29.741  18.439   8.448  0.00  0.00     0.000 C 
BRANCH  24  25
HETATM   25  C   UNK N   1      28.286  18.377   8.042  0.00  0.00     0.000 C 
BRANCH  25  26
HETATM   26  C   UNK N   1      28.087  19.136   6.753  0.00  0.00    -0.000 C 
BRANCH  26  27
HETATM   27  C   UNK N   1      27.258  20.365   7.049  0.00  0.00    -0.005 C 
HETATM   28  C   UNK N   1      27.165  21.221   5.806  0.00  0.00     0.005 C 
ENDBRANCH  26  27
ENDBRANCH  25  26
ENDBRANCH  24  25
ENDBRANCH  23  24
ENDBRANCH  22  23
ENDBRANCH  21  22
ENDBRANCH  20  21
ENDBRANCH  19  20
ENDBRANCH  18  19
ENDBRANCH   3  18
ENDBRANCH   2   3
ENDBRANCH   1   2
BRANCH   1  29
HETATM   29  P   UNK N   1      36.115  14.620  11.502  0.00  0.00     0.393 P 
HETATM   30  O   UNK N   1      35.031  15.539  12.136  0.00  0.00    -0.631 OA
BRANCH  29  31
HETATM   31  O   UNK N   1      37.234  15.703  10.736  0.00  0.00    -0.307 OA
HETATM   32  H   UNK N   1      37.427  16.653  10.745  0.00  0.00     0.222 HD
ENDBRANCH  29  31
BRANCH  29  33
HETATM   33  O   UNK N   1      36.934  13.673  12.722  0.00  0.00    -0.294 OA
BRANCH  33  34
HETATM   34  C   UNK N   1      36.414  14.051  13.961  0.00  0.00     0.214 C 
BRANCH  34  35
HETATM   35  C   UNK N   1      35.990  12.798  14.690  0.00  0.00     0.173 C 
HETATM   36  C   UNK N   1      34.561  12.365  14.423  0.00  0.00     0.149 C 
HETATM   37  C   UNK N   1      34.446  11.248  15.385  0.00  0.00     0.084 C 
HETATM   38  C   UNK N   1      35.202  11.950  16.473  0.00  0.00     0.234 C 
HETATM   39  O   UNK N   1      36.178  12.861  16.068  0.00  0.00    -0.356 OA
BRANCH  36  40
HETATM   40  N   UNK N   1      34.325  11.944  13.073  0.00  0.00    -0.245 N 
ATOM     41  HN  UNK N   1      33.656  12.443  12.486  1.00  0.00     0.197 HD
BRANCH  40  42
HETATM   42  N   UNK N   1      34.935  10.986  12.637  0.00  0.00    -0.248 NA
BRANCH  42  43
HETATM   43  N   UNK N   1      35.556  10.023  12.227  0.00  0.00    -0.261 N 
HETATM   44  H   UNK N   1      36.171   9.503  12.794  0.00  0.00     0.193 HD
ATOM     45  HN  UNK N   1      35.434   9.740  11.254  1.00  0.00     0.193 HD
ENDBRANCH  42  43
ENDBRANCH  40  42
ENDBRANCH  36  40
BRANCH  38  46
HETATM   46  N   UNK N   1      35.162  11.512  17.839  0.00  0.00    -0.282 N 
HETATM   47  C   UNK N   1      35.056  10.179  18.044  0.00  0.00     0.110 A 
HETATM   48  C   UNK N   1      35.000   9.668  19.324  0.00  0.00     0.022 A 
HETATM   49  C   UNK N   1      35.048  10.555  20.403  0.00  0.00     0.256 A 
HETATM   50  C   UNK N   1      34.887   8.195  19.508  0.00  0.00     0.056 C 
HETATM   51  O   UNK N   1      34.992  10.139  21.545  0.00  0.00    -0.267 OA
HETATM   52  N   UNK N   1      35.158  11.903  20.177  0.00  0.00    -0.275 N 
HETATM   53  C   UNK N   1      35.218  12.389  18.899  0.00  0.00     0.331 A 
HETATM   54  H   UNK N   1      35.194  12.526  20.938  0.00  0.00     0.173 HD
HETATM   55  O   UNK N   1      35.315  13.591  18.710  0.00  0.00    -0.246 OA
ENDBRANCH  38  46
ENDBRANCH  34  35
ENDBRANCH  33  34
ENDBRANCH  29  33
ENDBRANCH   1  29
TORSDOF 34
ENDMDL
MODEL 7
REMARK VINA RESULT:      -5.8      8.709     13.107
REMARK WARNING: 32 MAX_TORS EXCEEDED!!!
REMARK  34 active torsions:
REMARK  status: ('A' for Active; 'I' for Inactive)
REMARK    1  A    between atoms: C_2  and  C_3 
REMARK    2  A    between atoms: C_3  and  C_4 
REMARK    3  A    between atoms: C_4  and  C_5 
REMARK    4  A    between atoms: C_5  and  C_6 
REMARK    5  A    between atoms: C_6  and  C_7 
REMARK    6  A    between atoms: C_7  and  C_8 
REMARK    7  A    between atoms: C_8  and  C_9 
REMARK    8  A    between atoms: C_9  and  C_10 
REMARK    9  A    between atoms: C_10  and  C_11 
REMARK   10  A    between atoms: C_11  and  C_12 
REMARK   11  A    between atoms: C_12  and  S_13 
REMARK   12  A    between atoms: S_13  and  C_14 
REMARK   13  A    between atoms: C_14  and  C_15 
REMARK   14  A    between atoms: C_15  and  C_16 
REMARK   15  A    between atoms: C_15  and  O_42 
REMARK   16  A    between atoms: C_16  and  O_17 
REMARK   17  A    between atoms: O_17  and  P_18 
REMARK   18  A    between atoms: P_18  and  O_20 
REMARK   19  A    between atoms: P_18  and  O_21 
REMARK   20  A    between atoms: O_21  and  C_22 
REMARK   21  A    between atoms: C_23  and  C_22 
REMARK   22  A    between atoms: C_24  and  N_37 
REMARK   23  A    between atoms: C_26  and  N_28 
REMARK   24  A    between atoms: N_37  and  N_39 
REMARK   25  A    between atoms: N_39  and  N_40 
REMARK   26  A    between atoms: O_42  and  C_43 
REMARK   27  A    between atoms: C_43  and  C_44 
REMARK   28  A    between atoms: C_44  and  C_45 
REMARK   29  A    between atoms: C_45  and  C_46 
REMARK   30  A    between atoms: C_46  and  C_47 
REMARK   31  A    between atoms: C_47  and  C_48 
REMARK   32  A    between atoms: C_48  and  C_49 
REMARK   33  A    between atoms: C_49  and  C_50 
REMARK   34  A    between atoms: C_50  and  C_51 
ROOT
HETATM    1  O   UNK N   1      27.667  18.857   3.858  0.00  0.00    -0.294 OA
ENDROOT
BRANCH   1   2
HETATM    2  C   UNK N   1      28.472  18.902   4.983  0.00  0.00     0.213 C 
BRANCH   2   3
HETATM    3  C   UNK N   1      28.508  17.518   5.621  0.00  0.00     0.155 C 
BRANCH   3   4
HETATM    4  C   UNK N   1      28.468  16.307   4.712  0.00  0.00     0.108 C 
BRANCH   4   5
HETATM    5  S   UNK N   1      27.047  15.265   5.154  0.00  0.00    -0.167 SA
BRANCH   5   6
HETATM    6  C   UNK N   1      25.877  15.802   3.831  0.00  0.00     0.074 C 
BRANCH   6   7
HETATM    7  C   UNK N   1      25.608  14.779   2.712  0.00  0.00     0.010 C 
BRANCH   7   8
HETATM    8  C   UNK N   1      24.305  14.920   1.926  0.00  0.00     0.001 C 
BRANCH   8   9
HETATM    9  C   UNK N   1      24.141  13.852   0.866  0.00  0.00     0.000 C 
BRANCH   9  10
HETATM   10  C   UNK N   1      22.666  13.729   0.565  0.00  0.00     0.000 C 
BRANCH  10  11
HETATM   11  C   UNK N   1      21.865  14.362   1.682  0.00  0.00     0.000 C 
BRANCH  11  12
HETATM   12  C   UNK N   1      20.845  15.312   1.095  0.00  0.00     0.000 C 
BRANCH  12  13
HETATM   13  C   UNK N   1      19.467  15.002   1.659  0.00  0.00     0.000 C 
BRANCH  13  14
HETATM   14  C   UNK N   1      19.248  13.506   1.651  0.00  0.00     0.000 C 
BRANCH  14  15
HETATM   15  C   UNK N   1      18.558  13.131   0.360  0.00  0.00    -0.000 C 
BRANCH  15  16
HETATM   16  C   UNK N   1      18.826  11.683   0.030  0.00  0.00    -0.005 C 
HETATM   17  C   UNK N   1      19.709  11.098   1.109  0.00  0.00     0.005 C 
ENDBRANCH  15  16
ENDBRANCH  14  15
ENDBRANCH  13  14
ENDBRANCH  12  13
ENDBRANCH  11  12
ENDBRANCH  10  11
ENDBRANCH   9  10
ENDBRANCH   8   9
ENDBRANCH   7   8
ENDBRANCH   6   7
ENDBRANCH   5   6
ENDBRANCH   4   5
ENDBRANCH   3   4
BRANCH   3  18
HETATM   18  O   UNK N   1      28.099  17.340   6.956  0.00  0.00    -0.383 OA
BRANCH  18  19
HETATM   19  C   UNK N   1      28.214  18.557   7.642  0.00  0.00     0.168 C 
BRANCH  19  20
HETATM   20  C   UNK N   1      28.742  18.335   9.043  0.00  0.00     0.026 C 
BRANCH  20  21
HETATM   21  C   UNK N   1      30.209  18.725   9.095  0.00  0.00     0.002 C 
BRANCH  21  22
HETATM   22  C   UNK N   1      31.074  17.581   8.619  0.00  0.00     0.000 C 
BRANCH  22  23
HETATM   23  C   UNK N   1      32.518  18.036   8.497  0.00  0.00     0.000 C 
BRANCH  23  24
HETATM   24  C   UNK N   1      33.332  16.969   7.795  0.00  0.00     0.000 C 
BRANCH  24  25
HETATM   25  C   UNK N   1      33.928  17.544   6.529  0.00  0.00     0.000 C 
BRANCH  25  26
HETATM   26  C   UNK N   1      33.687  16.596   5.381  0.00  0.00    -0.000 C 
BRANCH  26  27
HETATM   27  C   UNK N   1      32.217  16.637   5.031  0.00  0.00    -0.005 C 
HETATM   28  C   UNK N   1      32.004  17.567   3.857  0.00  0.00     0.005 C 
ENDBRANCH  26  27
ENDBRANCH  25  26
ENDBRANCH  24  25
ENDBRANCH  23  24
ENDBRANCH  22  23
ENDBRANCH  21  22
ENDBRANCH  20  21
ENDBRANCH  19  20
ENDBRANCH  18  19
ENDBRANCH   3  18
ENDBRANCH   2   3
ENDBRANCH   1   2
BRANCH   1  29
HETATM   29  P   UNK N   1      26.239  19.721   4.292  0.00  0.00     0.393 P 
HETATM   30  O   UNK N   1      26.717  21.120   4.781  0.00  0.00    -0.631 OA
BRANCH  29  31
HETATM   31  O   UNK N   1      25.349  19.057   5.625  0.00  0.00    -0.307 OA
HETATM   32  H   UNK N   1      24.551  19.275   6.129  0.00  0.00     0.222 HD
ENDBRANCH  29  31
BRANCH  29  33
HETATM   33  O   UNK N   1      25.206  19.862   2.889  0.00  0.00    -0.294 OA
BRANCH  33  34
HETATM   34  C   UNK N   1      23.995  20.410   3.316  0.00  0.00     0.214 C 
BRANCH  34  35
HETATM   35  C   UNK N   1      22.969  19.302   3.357  0.00  0.00     0.173 C 
HETATM   36  C   UNK N   1      21.571  19.720   2.943  0.00  0.00     0.149 C 
HETATM   37  C   UNK N   1      20.830  18.478   3.247  0.00  0.00     0.084 C 
HETATM   38  C   UNK N   1      21.569  18.208   4.523  0.00  0.00     0.234 C 
HETATM   39  O   UNK N   1      22.888  18.660   4.589  0.00  0.00    -0.356 OA
BRANCH  36  40
HETATM   40  N   UNK N   1      21.462  20.093   1.563  0.00  0.00    -0.245 N 
ATOM     41  HN  UNK N   1      21.920  19.538   0.840  1.00  0.00     0.197 HD
BRANCH  40  42
HETATM   42  N   UNK N   1      20.815  21.080   1.266  0.00  0.00    -0.248 NA
BRANCH  42  43
HETATM   43  N   UNK N   1      20.145  22.057   0.987  0.00  0.00    -0.261 N 
HETATM   44  H   UNK N   1      20.381  22.675   0.257  0.00  0.00     0.193 HD
ATOM     45  HN  UNK N   1      19.303  22.244   1.532  1.00  0.00     0.193 HD
ENDBRANCH  42  43
ENDBRANCH  40  42
ENDBRANCH  36  40
BRANCH  38  46
HETATM   46  N   UNK N   1      21.086  17.282   5.508  0.00  0.00    -0.282 N 
HETATM   47  C   UNK N   1      20.866  16.015   5.089  0.00  0.00     0.110 A 
HETATM   48  C   UNK N   1      20.391  15.059   5.964  0.00  0.00     0.022 A 
HETATM   49  C   UNK N   1      20.135  15.429   7.287  0.00  0.00     0.256 A 
HETATM   50  C   UNK N   1      20.167  13.674   5.467  0.00  0.00     0.056 C 
HETATM   51  O   UNK N   1      19.708  14.614   8.083  0.00  0.00    -0.267 OA
HETATM   52  N   UNK N   1      20.366  16.719   7.694  0.00  0.00    -0.275 N 
HETATM   53  C   UNK N   1      20.843  17.649   6.812  0.00  0.00     0.331 A 
HETATM   54  H   UNK N   1      20.187  16.977   8.627  0.00  0.00     0.173 HD
HETATM   55  O   UNK N   1      21.043  18.794   7.185  0.00  0.00    -0.246 OA
ENDBRANCH  38  46
ENDBRANCH  34  35
ENDBRANCH  33  34
ENDBRANCH  29  33
ENDBRANCH   1  29
TORSDOF 34
ENDMDL
MODEL 8
REMARK VINA RESULT:      -5.8      1.904      3.877
REMARK WARNING: 32 MAX_TORS EXCEEDED!!!
REMARK  34 active torsions:
REMARK  status: ('A' for Active; 'I' for Inactive)
REMARK    1  A    between atoms: C_2  and  C_3 
REMARK    2  A    between atoms: C_3  and  C_4 
REMARK    3  A    between atoms: C_4  and  C_5 
REMARK    4  A    between atoms: C_5  and  C_6 
REMARK    5  A    between atoms: C_6  and  C_7 
REMARK    6  A    between atoms: C_7  and  C_8 
REMARK    7  A    between atoms: C_8  and  C_9 
REMARK    8  A    between atoms: C_9  and  C_10 
REMARK    9  A    between atoms: C_10  and  C_11 
REMARK   10  A    between atoms: C_11  and  C_12 
REMARK   11  A    between atoms: C_12  and  S_13 
REMARK   12  A    between atoms: S_13  and  C_14 
REMARK   13  A    between atoms: C_14  and  C_15 
REMARK   14  A    between atoms: C_15  and  C_16 
REMARK   15  A    between atoms: C_15  and  O_42 
REMARK   16  A    between atoms: C_16  and  O_17 
REMARK   17  A    between atoms: O_17  and  P_18 
REMARK   18  A    between atoms: P_18  and  O_20 
REMARK   19  A    between atoms: P_18  and  O_21 
REMARK   20  A    between atoms: O_21  and  C_22 
REMARK   21  A    between atoms: C_23  and  C_22 
REMARK   22  A    between atoms: C_24  and  N_37 
REMARK   23  A    between atoms: C_26  and  N_28 
REMARK   24  A    between atoms: N_37  and  N_39 
REMARK   25  A    between atoms: N_39  and  N_40 
REMARK   26  A    between atoms: O_42  and  C_43 
REMARK   27  A    between atoms: C_43  and  C_44 
REMARK   28  A    between atoms: C_44  and  C_45 
REMARK   29  A    between atoms: C_45  and  C_46 
REMARK   30  A    between atoms: C_46  and  C_47 
REMARK   31  A    between atoms: C_47  and  C_48 
REMARK   32  A    between atoms: C_48  and  C_49 
REMARK   33  A    between atoms: C_49  and  C_50 
REMARK   34  A    between atoms: C_50  and  C_51 
ROOT
HETATM    1  O   UNK N   1      34.723  15.558   8.648  0.00  0.00    -0.294 OA
ENDROOT
BRANCH   1   2
HETATM    2  C   UNK N   1      34.254  16.742   9.188  0.00  0.00     0.213 C 
BRANCH   2   3
HETATM    3  C   UNK N   1      33.828  17.668   8.055  0.00  0.00     0.155 C 
BRANCH   3   4
HETATM    4  C   UNK N   1      32.401  18.180   8.043  0.00  0.00     0.108 C 
BRANCH   4   5
HETATM    5  S   UNK N   1      31.262  16.803   8.367  0.00  0.00    -0.167 SA
BRANCH   5   6
HETATM    6  C   UNK N   1      29.734  17.775   8.726  0.00  0.00     0.074 C 
BRANCH   6   7
HETATM    7  C   UNK N   1      28.870  18.150   7.509  0.00  0.00     0.010 C 
BRANCH   7   8
HETATM    8  C   UNK N   1      28.094  19.465   7.572  0.00  0.00     0.001 C 
BRANCH   8   9
HETATM    9  C   UNK N   1      27.724  19.994   6.203  0.00  0.00     0.000 C 
BRANCH   9  10
HETATM   10  C   UNK N   1      26.883  18.941   5.518  0.00  0.00     0.000 C 
BRANCH  10  11
HETATM   11  C   UNK N   1      27.044  19.060   4.018  0.00  0.00     0.000 C 
BRANCH  11  12
HETATM   12  C   UNK N   1      25.679  19.098   3.367  0.00  0.00     0.000 C 
BRANCH  12  13
HETATM   13  C   UNK N   1      24.615  18.703   4.377  0.00  0.00     0.000 C 
BRANCH  13  14
HETATM   14  C   UNK N   1      23.247  18.882   3.759  0.00  0.00     0.000 C 
BRANCH  14  15
HETATM   15  C   UNK N   1      23.197  20.238   3.093  0.00  0.00    -0.000 C 
BRANCH  15  16
HETATM   16  C   UNK N   1      21.799  20.527   2.605  0.00  0.00    -0.005 C 
HETATM   17  C   UNK N   1      20.816  19.855   3.538  0.00  0.00     0.005 C 
ENDBRANCH  15  16
ENDBRANCH  14  15
ENDBRANCH  13  14
ENDBRANCH  12  13
ENDBRANCH  11  12
ENDBRANCH  10  11
ENDBRANCH   9  10
ENDBRANCH   8   9
ENDBRANCH   7   8
ENDBRANCH   6   7
ENDBRANCH   5   6
ENDBRANCH   4   5
ENDBRANCH   3   4
BRANCH   3  18
HETATM   18  O   UNK N   1      34.523  17.662   6.831  0.00  0.00    -0.383 OA
BRANCH  18  19
HETATM   19  C   UNK N   1      33.602  17.639   5.775  0.00  0.00     0.168 C 
BRANCH  19  20
HETATM   20  C   UNK N   1      33.476  16.242   5.205  0.00  0.00     0.026 C 
BRANCH  20  21
HETATM   21  C   UNK N   1      32.088  16.063   4.615  0.00  0.00     0.002 C 
BRANCH  21  22
HETATM   22  C   UNK N   1      31.348  17.381   4.603  0.00  0.00     0.000 C 
BRANCH  22  23
HETATM   23  C   UNK N   1      30.000  17.216   3.922  0.00  0.00     0.000 C 
BRANCH  23  24
HETATM   24  C   UNK N   1      29.574  15.764   3.980  0.00  0.00     0.000 C 
BRANCH  24  25
HETATM   25  C   UNK N   1      28.410  15.619   4.934  0.00  0.00     0.000 C 
BRANCH  25  26
HETATM   26  C   UNK N   1      27.184  15.178   4.173  0.00  0.00    -0.000 C 
BRANCH  26  27
HETATM   27  C   UNK N   1      27.381  15.522   2.714  0.00  0.00    -0.005 C 
HETATM   28  C   UNK N   1      26.035  15.611   2.031  0.00  0.00     0.005 C 
ENDBRANCH  26  27
ENDBRANCH  25  26
ENDBRANCH  24  25
ENDBRANCH  23  24
ENDBRANCH  22  23
ENDBRANCH  21  22
ENDBRANCH  20  21
ENDBRANCH  19  20
ENDBRANCH  18  19
ENDBRANCH   3  18
ENDBRANCH   2   3
ENDBRANCH   1   2
BRANCH   1  29
HETATM   29  P   UNK N   1      33.980  14.312   9.581  0.00  0.00     0.393 P 
HETATM   30  O   UNK N   1      32.917  13.657   8.651  0.00  0.00    -0.631 OA
BRANCH  29  31
HETATM   31  O   UNK N   1      33.091  14.856  10.968  0.00  0.00    -0.307 OA
HETATM   32  H   UNK N   1      32.985  15.679  11.470  0.00  0.00     0.222 HD
ENDBRANCH  29  31
BRANCH  29  33
HETATM   33  O   UNK N   1      35.197  13.153  10.063  0.00  0.00    -0.294 OA
BRANCH  33  34
HETATM   34  C   UNK N   1      34.666  12.404  11.114  0.00  0.00     0.214 C 
BRANCH  34  35
HETATM   35  C   UNK N   1      35.552  12.600  12.321  0.00  0.00     0.173 C 
HETATM   36  C   UNK N   1      36.576  11.503  12.539  0.00  0.00     0.149 C 
HETATM   37  C   UNK N   1      37.132  11.923  13.842  0.00  0.00     0.084 C 
HETATM   38  C   UNK N   1      35.805  12.325  14.414  0.00  0.00     0.234 C 
HETATM   39  O   UNK N   1      34.848  12.785  13.508  0.00  0.00    -0.356 OA
BRANCH  36  40
HETATM   40  N   UNK N   1      37.579  11.435  11.517  0.00  0.00    -0.245 N 
ATOM     41  HN  UNK N   1      37.806  10.545  11.074  1.00  0.00     0.197 HD
BRANCH  40  42
HETATM   42  N   UNK N   1      38.155  12.454  11.185  0.00  0.00    -0.248 NA
BRANCH  42  43
HETATM   43  N   UNK N   1      38.720  13.487  10.877  0.00  0.00    -0.261 N 
HETATM   44  H   UNK N   1      38.295  14.372  10.953  0.00  0.00     0.193 HD
ATOM     45  HN  UNK N   1      39.676  13.434  10.523  1.00  0.00     0.193 HD
ENDBRANCH  42  43
ENDBRANCH  40  42
ENDBRANCH  36  40
BRANCH  38  46
HETATM   46  N   UNK N   1      35.606  12.526  15.821  0.00  0.00    -0.282 N 
HETATM   47  C   UNK N   1      35.825  13.775  16.290  0.00  0.00     0.110 A 
HETATM   48  C   UNK N   1      35.669  14.059  17.631  0.00  0.00     0.022 A 
HETATM   49  C   UNK N   1      35.287  13.029  18.495  0.00  0.00     0.256 A 
HETATM   50  C   UNK N   1      35.914  15.448  18.108  0.00  0.00     0.056 C 
HETATM   51  O   UNK N   1      35.148  13.242  19.684  0.00  0.00    -0.267 OA
HETATM   52  N   UNK N   1      35.067  11.768  18.000  0.00  0.00    -0.275 N 
HETATM   53  C   UNK N   1      35.222  11.510  16.666  0.00  0.00     0.331 A 
HETATM   54  H   UNK N   1      34.796  11.044  18.610  0.00  0.00     0.173 HD
HETATM   55  O   UNK N   1      35.024  10.384  16.238  0.00  0.00    -0.246 OA
ENDBRANCH  38  46
ENDBRANCH  34  35
ENDBRANCH  33  34
ENDBRANCH  29  33
ENDBRANCH   1  29
TORSDOF 34
ENDMDL
MODEL 9
REMARK VINA RESULT:      -5.7      9.890     14.098
REMARK WARNING: 32 MAX_TORS EXCEEDED!!!
REMARK  34 active torsions:
REMARK  status: ('A' for Active; 'I' for Inactive)
REMARK    1  A    between atoms: C_2  and  C_3 
REMARK    2  A    between atoms: C_3  and  C_4 
REMARK    3  A    between atoms: C_4  and  C_5 
REMARK    4  A    between atoms: C_5  and  C_6 
REMARK    5  A    between atoms: C_6  and  C_7 
REMARK    6  A    between atoms: C_7  and  C_8 
REMARK    7  A    between atoms: C_8  and  C_9 
REMARK    8  A    between atoms: C_9  and  C_10 
REMARK    9  A    between atoms: C_10  and  C_11 
REMARK   10  A    between atoms: C_11  and  C_12 
REMARK   11  A    between atoms: C_12  and  S_13 
REMARK   12  A    between atoms: S_13  and  C_14 
REMARK   13  A    between atoms: C_14  and  C_15 
REMARK   14  A    between atoms: C_15  and  C_16 
REMARK   15  A    between atoms: C_15  and  O_42 
REMARK   16  A    between atoms: C_16  and  O_17 
REMARK   17  A    between atoms: O_17  and  P_18 
REMARK   18  A    between atoms: P_18  and  O_20 
REMARK   19  A    between atoms: P_18  and  O_21 
REMARK   20  A    between atoms: O_21  and  C_22 
REMARK   21  A    between atoms: C_23  and  C_22 
REMARK   22  A    between atoms: C_24  and  N_37 
REMARK   23  A    between atoms: C_26  and  N_28 
REMARK   24  A    between atoms: N_37  and  N_39 
REMARK   25  A    between atoms: N_39  and  N_40 
REMARK   26  A    between atoms: O_42  and  C_43 
REMARK   27  A    between atoms: C_43  and  C_44 
REMARK   28  A    between atoms: C_44  and  C_45 
REMARK   29  A    between atoms: C_45  and  C_46 
REMARK   30  A    between atoms: C_46  and  C_47 
REMARK   31  A    between atoms: C_47  and  C_48 
REMARK   32  A    between atoms: C_48  and  C_49 
REMARK   33  A    between atoms: C_49  and  C_50 
REMARK   34  A    between atoms: C_50  and  C_51 
ROOT
HETATM    1  O   UNK N   1      19.618  14.114   5.566  0.00  0.00    -0.294 OA
ENDROOT
BRANCH   1   2
HETATM    2  C   UNK N   1      20.506  13.922   4.523  0.00  0.00     0.213 C 
BRANCH   2   3
HETATM    3  C   UNK N   1      20.632  12.427   4.249  0.00  0.00     0.155 C 
BRANCH   3   4
HETATM    4  C   UNK N   1      20.317  11.924   2.855  0.00  0.00     0.108 C 
BRANCH   4   5
HETATM    5  S   UNK N   1      19.042  12.978   2.105  0.00  0.00    -0.167 SA
BRANCH   5   6
HETATM    6  C   UNK N   1      20.122  13.993   1.004  0.00  0.00     0.074 C 
BRANCH   6   7
HETATM    7  C   UNK N   1      21.585  13.529   0.879  0.00  0.00     0.010 C 
BRANCH   7   8
HETATM    8  C   UNK N   1      22.679  14.563   1.143  0.00  0.00     0.001 C 
BRANCH   8   9
HETATM    9  C   UNK N   1      24.063  14.049   0.812  0.00  0.00     0.000 C 
BRANCH   9  10
HETATM   10  C   UNK N   1      24.129  12.602   1.240  0.00  0.00     0.000 C 
BRANCH  10  11
HETATM   11  C   UNK N   1      25.565  12.220   1.523  0.00  0.00     0.000 C 
BRANCH  11  12
HETATM   12  C   UNK N   1      25.688  11.751   2.956  0.00  0.00     0.000 C 
BRANCH  12  13
HETATM   13  C   UNK N   1      24.530  12.295   3.777  0.00  0.00     0.000 C 
BRANCH  13  14
HETATM   14  C   UNK N   1      25.056  13.288   4.789  0.00  0.00     0.000 C 
BRANCH  14  15
HETATM   15  C   UNK N   1      23.911  14.170   5.232  0.00  0.00    -0.000 C 
BRANCH  15  16
HETATM   16  C   UNK N   1      24.299  14.942   6.469  0.00  0.00    -0.005 C 
HETATM   17  C   UNK N   1      25.688  14.515   6.887  0.00  0.00     0.005 C 
ENDBRANCH  15  16
ENDBRANCH  14  15
ENDBRANCH  13  14
ENDBRANCH  12  13
ENDBRANCH  11  12
ENDBRANCH  10  11
ENDBRANCH   9  10
ENDBRANCH   8   9
ENDBRANCH   7   8
ENDBRANCH   6   7
ENDBRANCH   5   6
ENDBRANCH   4   5
ENDBRANCH   3   4
BRANCH   3  18
HETATM   18  O   UNK N   1      20.551  11.501   5.306  0.00  0.00    -0.383 OA
BRANCH  18  19
HETATM   19  C   UNK N   1      21.295  10.358   4.977  0.00  0.00     0.168 C 
BRANCH  19  20
HETATM   20  C   UNK N   1      22.332  10.071   6.042  0.00  0.00     0.026 C 
BRANCH  20  21
HETATM   21  C   UNK N   1      22.425  11.257   6.986  0.00  0.00     0.002 C 
BRANCH  21  22
HETATM   22  C   UNK N   1      23.819  11.363   7.561  0.00  0.00     0.000 C 
BRANCH  22  23
HETATM   23  C   UNK N   1      23.776  11.177   9.068  0.00  0.00     0.000 C 
BRANCH  23  24
HETATM   24  C   UNK N   1      24.056  12.498   9.753  0.00  0.00     0.000 C 
BRANCH  24  25
HETATM   25  C   UNK N   1      23.084  12.687  10.896  0.00  0.00     0.000 C 
BRANCH  25  26
HETATM   26  C   UNK N   1      21.775  12.013  10.564  0.00  0.00    -0.000 C 
BRANCH  26  27
HETATM   27  C   UNK N   1      20.688  13.062  10.561  0.00  0.00    -0.005 C 
HETATM   28  C   UNK N   1      20.728  13.828   9.258  0.00  0.00     0.005 C 
ENDBRANCH  26  27
ENDBRANCH  25  26
ENDBRANCH  24  25
ENDBRANCH  23  24
ENDBRANCH  22  23
ENDBRANCH  21  22
ENDBRANCH  20  21
ENDBRANCH  19  20
ENDBRANCH  18  19
ENDBRANCH   3  18
ENDBRANCH   2   3
ENDBRANCH   1   2
BRANCH   1  29
HETATM   29  P   UNK N   1      19.471  15.825   5.723  0.00  0.00     0.393 P 
HETATM   30  O   UNK N   1      18.438  16.062   6.863  0.00  0.00    -0.631 OA
BRANCH  29  31
HETATM   31  O   UNK N   1      18.813  16.641   4.341  0.00  0.00    -0.307 OA
HETATM   32  H   UNK N   1      18.833  17.532   3.962  0.00  0.00     0.222 HD
ENDBRANCH  29  31
BRANCH  29  33
HETATM   33  O   UNK N   1      21.031  16.499   6.133  0.00  0.00    -0.294 OA
BRANCH  33  34
HETATM   34  C   UNK N   1      20.879  17.885   6.210  0.00  0.00     0.214 C 
BRANCH  34  35
HETATM   35  C   UNK N   1      22.000  18.521   5.422  0.00  0.00     0.173 C 
HETATM   36  C   UNK N   1      21.739  18.637   3.933  0.00  0.00     0.149 C 
HETATM   37  C   UNK N   1      23.054  19.133   3.478  0.00  0.00     0.084 C 
HETATM   38  C   UNK N   1      23.840  18.245   4.395  0.00  0.00     0.234 C 
HETATM   39  O   UNK N   1      23.233  17.902   5.604  0.00  0.00    -0.356 OA
BRANCH  36  40
HETATM   40  N   UNK N   1      20.674  19.537   3.599  0.00  0.00    -0.245 N 
ATOM     41  HN  UNK N   1      20.704  20.509   3.906  1.00  0.00     0.197 HD
BRANCH  40  42
HETATM   42  N   UNK N   1      19.735  19.126   2.943  0.00  0.00    -0.248 NA
BRANCH  42  43
HETATM   43  N   UNK N   1      18.784  18.703   2.312  0.00  0.00    -0.261 N 
HETATM   44  H   UNK N   1      18.155  19.292   1.835  0.00  0.00     0.193 HD
ATOM     45  HN  UNK N   1      18.631  17.694   2.276  1.00  0.00     0.193 HD
ENDBRANCH  42  43
ENDBRANCH  40  42
ENDBRANCH  36  40
BRANCH  38  46
HETATM   46  N   UNK N   1      25.242  17.999   4.209  0.00  0.00    -0.282 N 
HETATM   47  C   UNK N   1      25.574  16.887   3.515  0.00  0.00     0.110 A 
HETATM   48  C   UNK N   1      26.897  16.565   3.296  0.00  0.00     0.022 A 
HETATM   49  C   UNK N   1      27.887  17.407   3.812  0.00  0.00     0.256 A 
HETATM   50  C   UNK N   1      27.222  15.335   2.524  0.00  0.00     0.056 C 
HETATM   51  O   UNK N   1      29.064  17.148   3.646  0.00  0.00    -0.267 OA
HETATM   52  N   UNK N   1      27.531  18.532   4.512  0.00  0.00    -0.275 N 
HETATM   53  C   UNK N   1      26.212  18.835   4.712  0.00  0.00     0.331 A 
HETATM   54  H   UNK N   1      28.229  19.125   4.873  0.00  0.00     0.173 HD
HETATM   55  O   UNK N   1      25.908  19.839   5.337  0.00  0.00    -0.246 OA
ENDBRANCH  38  46
ENDBRANCH  34  35
ENDBRANCH  33  34
ENDBRANCH  29  33
ENDBRANCH   1  29
TORSDOF 34
ENDMDL
