MODEL 1
REMARK VINA RESULT:      -9.7      0.000      0.000
REMARK  2 active torsions:
REMARK  status: ('A' for Active; 'I' for Inactive)
REMARK    1  A    between atoms: C_5  and  N_34 
REMARK       I    between atoms: N_34  and  C_35 
REMARK    2  A    between atoms: C_35  and  C_37 
ROOT
HETATM    1  C   UNK N   1      38.065  12.611  10.366  0.00  0.00     0.017 C 
HETATM    2  C   UNK N   1      36.710  12.109  10.864  0.00  0.00    -0.022 C 
HETATM    3  C   UNK N   1      36.724  10.580  10.840  0.00  0.00     0.013 C 
HETATM    4  C   UNK N   1      35.473  10.095  11.602  0.00  0.00     0.032 C 
HETATM    5  C   UNK N   1      35.423  10.517  13.085  0.00  0.00     0.037 C 
HETATM    6  C   UNK N   1      34.172  11.315  13.454  0.00  0.00     0.032 C 
HETATM    7  C   UNK N   1      34.138  11.511  14.984  0.00  0.00     0.011 C 
HETATM    8  C   UNK N   1      35.390  12.172  15.598  0.00  0.00    -0.047 C 
HETATM    9  C   UNK N   1      36.710  11.810  14.893  0.00  0.00     0.016 C 
HETATM   10  C   UNK N   1      36.601  11.441  13.407  0.00  0.00     0.027 C 
HETATM   11  C   UNK N   1      36.702  12.585  12.341  0.00  0.00     0.075 C 
HETATM   12  C   UNK N   1      36.095  13.947  12.530  0.00  0.00     0.155 C 
HETATM   13  O   UNK N   1      36.442  14.635  13.472  0.00  0.00    -0.293 OA
HETATM   14  C   UNK N   1      35.215  14.542  11.509  0.00  0.00     0.055 C 
HETATM   15  C   UNK N   1      34.958  13.987  10.305  0.00  0.00    -0.055 C 
HETATM   16  C   UNK N   1      35.530  12.635   9.917  0.00  0.00    -0.011 C 
HETATM   17  C   UNK N   1      36.057  12.614   8.466  0.00  0.00     0.015 C 
HETATM   18  C   UNK N   1      35.573  13.758   7.594  0.00  0.00     0.008 C 
HETATM   19  C   UNK N   1      34.106  14.059   7.894  0.00  0.00     0.017 C 
HETATM   20  C   UNK N   1      33.972  14.669   9.343  0.00  0.00     0.004 C 
HETATM   21  C   UNK N   1      34.256  16.153   9.361  0.00  0.00     0.014 C 
HETATM   22  C   UNK N   1      34.377  16.915   8.274  0.00  0.00     0.088 C 
HETATM   23  C   UNK N   1      34.179  16.338   6.921  0.00  0.00     0.178 C 
HETATM   24  O   UNK N   1      34.553  16.954   5.933  0.00  0.00    -0.291 OA
HETATM   25  C   UNK N   1      33.535  14.972   6.790  0.00  0.00     0.024 C 
HETATM   26  C   UNK N   1      32.032  15.103   6.956  0.00  0.00     0.024 C 
HETATM   27  C   UNK N   1      33.768  14.367   5.404  0.00  0.00     0.024 C 
HETATM   28  C   UNK N   1      34.820  18.270   8.457  0.00  0.00     0.103 C 
HETATM   29  N   UNK N   1      35.196  19.353   8.606  0.00  0.00    -0.191 NA
HETATM   30  C   UNK N   1      32.555  14.472   9.873  0.00  0.00     0.025 C 
HETATM   31  C   UNK N   1      34.268  11.760   9.878  0.00  0.00     0.021 C 
HETATM   32  C   UNK N   1      35.513  11.678  17.025  0.00  0.00     0.015 C 
HETATM   33  C   UNK N   1      35.206  13.671  15.683  0.00  0.00     0.015 C 
ENDROOT
BRANCH   5  34
HETATM   34  N   UNK N   1      35.366   9.253  13.782  0.00  0.00    -0.346 N 
HETATM   35  C   UNK N   1      36.375   8.351  13.775  0.00  0.00     0.290 C 
HETATM   36  O   UNK N   1      37.529   8.703  13.569  0.00  0.00    -0.267 OA
HETATM   37  H   UNK N   1      34.551   9.037  14.288  0.00  0.00     0.163 HD
BRANCH  35  38
HETATM   38  C   UNK N   1      36.003   6.899  13.797  0.00  0.00     0.318 C 
HETATM   39  C   UNK N   1      37.180   5.994  13.479  0.00  0.00     0.101 C 
HETATM   40  F   UNK N   1      35.466   6.555  15.021  0.00  0.00    -0.196 F 
HETATM   41  F   UNK N   1      35.039   6.710  12.818  0.00  0.00    -0.196 F 
ENDBRANCH  35  38
ENDBRANCH   5  34
TORSDOF 2
ENDMDL
MODEL 2
REMARK VINA RESULT:      -9.3      4.319      9.580
REMARK  2 active torsions:
REMARK  status: ('A' for Active; 'I' for Inactive)
REMARK    1  A    between atoms: C_5  and  N_34 
REMARK       I    between atoms: N_34  and  C_35 
REMARK    2  A    between atoms: C_35  and  C_37 
ROOT
HETATM    1  C   UNK N   1      34.937  17.937   8.688  0.00  0.00     0.017 C 
HETATM    2  C   UNK N   1      33.726  17.070   8.340  0.00  0.00    -0.022 C 
HETATM    3  C   UNK N   1      32.459  17.855   8.681  0.00  0.00     0.013 C 
HETATM    4  C   UNK N   1      31.265  17.092   8.069  0.00  0.00     0.032 C 
HETATM    5  C   UNK N   1      31.309  16.961   6.534  0.00  0.00     0.037 C 
HETATM    6  C   UNK N   1      31.264  15.514   6.040  0.00  0.00     0.032 C 
HETATM    7  C   UNK N   1      31.117  15.516   4.504  0.00  0.00     0.011 C 
HETATM    8  C   UNK N   1      32.194  16.306   3.733  0.00  0.00    -0.047 C 
HETATM    9  C   UNK N   1      32.705  17.563   4.463  0.00  0.00     0.016 C 
HETATM   10  C   UNK N   1      32.625  17.530   5.996  0.00  0.00     0.027 C 
HETATM   11  C   UNK N   1      33.838  16.947   6.798  0.00  0.00     0.075 C 
HETATM   12  C   UNK N   1      34.629  15.752   6.346  0.00  0.00     0.155 C 
HETATM   13  O   UNK N   1      35.203  15.780   5.273  0.00  0.00    -0.293 OA
HETATM   14  C   UNK N   1      34.871  14.609   7.244  0.00  0.00     0.055 C 
HETATM   15  C   UNK N   1      34.506  14.568   8.543  0.00  0.00    -0.055 C 
HETATM   16  C   UNK N   1      33.742  15.711   9.188  0.00  0.00    -0.011 C 
HETATM   17  C   UNK N   1      34.273  16.051  10.598  0.00  0.00     0.015 C 
HETATM   18  C   UNK N   1      35.149  14.983  11.225  0.00  0.00     0.008 C 
HETATM   19  C   UNK N   1      34.591  13.597  10.908  0.00  0.00     0.017 C 
HETATM   20  C   UNK N   1      34.754  13.295   9.368  0.00  0.00     0.004 C 
HETATM   21  C   UNK N   1      36.138  12.788   9.035  0.00  0.00     0.014 C 
HETATM   22  C   UNK N   1      37.046  12.413   9.936  0.00  0.00     0.088 C 
HETATM   23  C   UNK N   1      36.721  12.422  11.384  0.00  0.00     0.178 C 
HETATM   24  O   UNK N   1      37.617  12.346  12.212  0.00  0.00    -0.291 OA
HETATM   25  C   UNK N   1      35.272  12.551  11.813  0.00  0.00     0.024 C 
HETATM   26  C   UNK N   1      34.579  11.209  11.663  0.00  0.00     0.024 C 
HETATM   27  C   UNK N   1      35.152  12.940  13.288  0.00  0.00     0.024 C 
HETATM   28  C   UNK N   1      38.372  12.122   9.464  0.00  0.00     0.103 C 
HETATM   29  N   UNK N   1      39.442  11.908   9.084  0.00  0.00    -0.191 NA
HETATM   30  C   UNK N   1      33.761  12.224   8.928  0.00  0.00     0.025 C 
HETATM   31  C   UNK N   1      32.370  15.069   9.442  0.00  0.00     0.021 C 
HETATM   32  C   UNK N   1      31.571  16.783   2.438  0.00  0.00     0.015 C 
HETATM   33  C   UNK N   1      33.338  15.396   3.343  0.00  0.00     0.015 C 
ENDROOT
BRANCH   5  34
HETATM   34  N   UNK N   1      30.089  17.612   6.116  0.00  0.00    -0.346 N 
HETATM   35  C   UNK N   1      28.871  17.310   6.622  0.00  0.00     0.290 C 
HETATM   36  O   UNK N   1      28.760  16.812   7.734  0.00  0.00    -0.267 OA
HETATM   37  H   UNK N   1      30.147  18.312   5.426  0.00  0.00     0.163 HD
BRANCH  35  38
HETATM   38  C   UNK N   1      27.697  17.389   5.692  0.00  0.00     0.318 C 
HETATM   39  C   UNK N   1      28.116  17.563   4.243  0.00  0.00     0.101 C 
HETATM   40  F   UNK N   1      26.904  16.267   5.818  0.00  0.00    -0.196 F 
HETATM   41  F   UNK N   1      26.957  18.502   6.062  0.00  0.00    -0.196 F 
ENDBRANCH  35  38
ENDBRANCH   5  34
TORSDOF 2
ENDMDL
MODEL 3
REMARK VINA RESULT:      -8.8     18.044     22.320
REMARK  2 active torsions:
REMARK  status: ('A' for Active; 'I' for Inactive)
REMARK    1  A    between atoms: C_5  and  N_34 
REMARK       I    between atoms: N_34  and  C_35 
REMARK    2  A    between atoms: C_35  and  C_37 
ROOT
HETATM    1  C   UNK N   1      31.766  26.185  -6.975  0.00  0.00     0.017 C 
HETATM    2  C   UNK N   1      30.915  25.841  -5.752  0.00  0.00    -0.022 C 
HETATM    3  C   UNK N   1      31.032  26.988  -4.747  0.00  0.00     0.013 C 
HETATM    4  C   UNK N   1      29.960  26.760  -3.660  0.00  0.00     0.032 C 
HETATM    5  C   UNK N   1      28.509  26.769  -4.181  0.00  0.00     0.037 C 
HETATM    6  C   UNK N   1      27.736  25.487  -3.868  0.00  0.00     0.032 C 
HETATM    7  C   UNK N   1      26.257  25.687  -4.260  0.00  0.00     0.011 C 
HETATM    8  C   UNK N   1      26.007  26.114  -5.721  0.00  0.00    -0.047 C 
HETATM    9  C   UNK N   1      27.095  27.033  -6.310  0.00  0.00     0.016 C 
HETATM   10  C   UNK N   1      28.500  26.884  -5.708  0.00  0.00     0.027 C 
HETATM   11  C   UNK N   1      29.479  25.835  -6.338  0.00  0.00     0.075 C 
HETATM   12  C   UNK N   1      29.037  24.486  -6.832  0.00  0.00     0.155 C 
HETATM   13  O   UNK N   1      28.203  24.412  -7.715  0.00  0.00    -0.293 OA
HETATM   14  C   UNK N   1      29.712  23.251  -6.395  0.00  0.00     0.055 C 
HETATM   15  C   UNK N   1      30.814  23.218  -5.616  0.00  0.00    -0.055 C 
HETATM   16  C   UNK N   1      31.433  24.491  -5.065  0.00  0.00    -0.011 C 
HETATM   17  C   UNK N   1      32.975  24.484  -5.162  0.00  0.00     0.015 C 
HETATM   18  C   UNK N   1      33.593  23.120  -5.403  0.00  0.00     0.008 C 
HETATM   19  C   UNK N   1      32.852  22.059  -4.592  0.00  0.00     0.017 C 
HETATM   20  C   UNK N   1      31.396  21.867  -5.169  0.00  0.00     0.004 C 
HETATM   21  C   UNK N   1      31.377  20.937  -6.360  0.00  0.00     0.014 C 
HETATM   22  C   UNK N   1      32.404  20.180  -6.747  0.00  0.00     0.088 C 
HETATM   23  C   UNK N   1      33.667  20.165  -5.969  0.00  0.00     0.178 C 
HETATM   24  O   UNK N   1      34.683  19.698  -6.462  0.00  0.00    -0.291 OA
HETATM   25  C   UNK N   1      33.679  20.757  -4.574  0.00  0.00     0.024 C 
HETATM   26  C   UNK N   1      33.064  19.769  -3.599  0.00  0.00     0.024 C 
HETATM   27  C   UNK N   1      35.104  21.021  -4.084  0.00  0.00     0.024 C 
HETATM   28  C   UNK N   1      32.282  19.485  -7.999  0.00  0.00     0.103 C 
HETATM   29  N   UNK N   1      32.189  18.942  -9.016  0.00  0.00    -0.191 NA
HETATM   30  C   UNK N   1      30.479  21.265  -4.109  0.00  0.00     0.025 C 
HETATM   31  C   UNK N   1      31.145  24.355  -3.562  0.00  0.00     0.021 C 
HETATM   32  C   UNK N   1      24.715  26.903  -5.752  0.00  0.00     0.015 C 
HETATM   33  C   UNK N   1      25.784  24.900  -6.594  0.00  0.00     0.015 C 
ENDROOT
BRANCH   5  34
HETATM   34  N   UNK N   1      27.902  27.847  -3.435  0.00  0.00    -0.346 N 
HETATM   35  C   UNK N   1      28.287  29.140  -3.544  0.00  0.00     0.290 C 
HETATM   36  O   UNK N   1      28.840  29.545  -4.558  0.00  0.00    -0.267 OA
HETATM   37  H   UNK N   1      27.169  27.630  -2.815  0.00  0.00     0.163 HD
BRANCH  35  38
HETATM   38  C   UNK N   1      28.225  29.986  -2.308  0.00  0.00     0.318 C 
HETATM   39  C   UNK N   1      29.594  30.475  -1.870  0.00  0.00     0.101 C 
HETATM   40  F   UNK N   1      27.383  31.062  -2.500  0.00  0.00    -0.196 F 
HETATM   41  F   UNK N   1      27.708  29.192  -1.295  0.00  0.00    -0.196 F 
ENDBRANCH  35  38
ENDBRANCH   5  34
TORSDOF 2
ENDMDL
MODEL 4
REMARK VINA RESULT:      -8.5      3.419      8.747
REMARK  2 active torsions:
REMARK  status: ('A' for Active; 'I' for Inactive)
REMARK    1  A    between atoms: C_5  and  N_34 
REMARK       I    between atoms: N_34  and  C_35 
REMARK    2  A    between atoms: C_35  and  C_37 
ROOT
HETATM    1  C   UNK N   1      38.535  12.004  10.003  0.00  0.00     0.017 C 
HETATM    2  C   UNK N   1      37.192  12.704  10.210  0.00  0.00    -0.022 C 
HETATM    3  C   UNK N   1      37.434  14.215  10.229  0.00  0.00     0.013 C 
HETATM    4  C   UNK N   1      36.056  14.904  10.153  0.00  0.00     0.032 C 
HETATM    5  C   UNK N   1      35.256  14.597   8.871  0.00  0.00     0.037 C 
HETATM    6  C   UNK N   1      33.878  13.989   9.138  0.00  0.00     0.032 C 
HETATM    7  C   UNK N   1      33.103  13.907   7.807  0.00  0.00     0.011 C 
HETATM    8  C   UNK N   1      33.810  13.141   6.670  0.00  0.00    -0.047 C 
HETATM    9  C   UNK N   1      35.344  13.285   6.664  0.00  0.00     0.016 C 
HETATM   10  C   UNK N   1      35.999  13.559   8.026  0.00  0.00     0.027 C 
HETATM   11  C   UNK N   1      36.424  12.339   8.912  0.00  0.00     0.075 C 
HETATM   12  C   UNK N   1      35.611  11.080   9.030  0.00  0.00     0.155 C 
HETATM   13  O   UNK N   1      35.373  10.422   8.034  0.00  0.00    -0.293 OA
HETATM   14  C   UNK N   1      35.239  10.528  10.345  0.00  0.00     0.055 C 
HETATM   15  C   UNK N   1      35.659  11.024  11.527  0.00  0.00    -0.055 C 
HETATM   16  C   UNK N   1      36.533  12.264  11.602  0.00  0.00    -0.011 C 
HETATM   17  C   UNK N   1      37.677  12.117  12.629  0.00  0.00     0.015 C 
HETATM   18  C   UNK N   1      37.501  10.983  13.622  0.00  0.00     0.008 C 
HETATM   19  C   UNK N   1      36.039  10.889  14.054  0.00  0.00     0.017 C 
HETATM   20  C   UNK N   1      35.154  10.404  12.840  0.00  0.00     0.004 C 
HETATM   21  C   UNK N   1      35.181   8.902  12.685  0.00  0.00     0.014 C 
HETATM   22  C   UNK N   1      35.688   8.055  13.583  0.00  0.00     0.088 C 
HETATM   23  C   UNK N   1      36.233   8.556  14.869  0.00  0.00     0.178 C 
HETATM   24  O   UNK N   1      36.934   7.830  15.559  0.00  0.00    -0.291 OA
HETATM   25  C   UNK N   1      35.929   9.979  15.294  0.00  0.00     0.024 C 
HETATM   26  C   UNK N   1      34.523  10.047  15.861  0.00  0.00     0.024 C 
HETATM   27  C   UNK N   1      36.869  10.450  16.405  0.00  0.00     0.024 C 
HETATM   28  C   UNK N   1      35.794   6.672  13.206  0.00  0.00     0.103 C 
HETATM   29  N   UNK N   1      35.896   5.564  12.894  0.00  0.00    -0.191 NA
HETATM   30  C   UNK N   1      33.699  10.813  13.047  0.00  0.00     0.025 C 
HETATM   31  C   UNK N   1      35.578  13.284  12.238  0.00  0.00     0.021 C 
HETATM   32  C   UNK N   1      33.319  13.715   5.357  0.00  0.00     0.015 C 
HETATM   33  C   UNK N   1      33.396  11.686   6.678  0.00  0.00     0.015 C 
ENDROOT
BRANCH   5  34
HETATM   34  N   UNK N   1      35.060  15.904   8.288  0.00  0.00    -0.346 N 
HETATM   35  C   UNK N   1      34.516  16.946   8.959  0.00  0.00     0.290 C 
HETATM   36  O   UNK N   1      34.562  16.997  10.180  0.00  0.00    -0.267 OA
HETATM   37  H   UNK N   1      35.336  16.044   7.354  0.00  0.00     0.163 HD
BRANCH  35  38
HETATM   38  C   UNK N   1      33.666  17.902   8.177  0.00  0.00     0.318 C 
HETATM   39  C   UNK N   1      33.620  17.562   6.699  0.00  0.00     0.101 C 
HETATM   40  F   UNK N   1      32.384  17.939   8.689  0.00  0.00    -0.196 F 
HETATM   41  F   UNK N   1      34.235  19.160   8.312  0.00  0.00    -0.196 F 
ENDBRANCH  35  38
ENDBRANCH   5  34
TORSDOF 2
ENDMDL
MODEL 5
REMARK VINA RESULT:      -8.5     17.992     20.814
REMARK  2 active torsions:
REMARK  status: ('A' for Active; 'I' for Inactive)
REMARK    1  A    between atoms: C_5  and  N_34 
REMARK       I    between atoms: N_34  and  C_35 
REMARK    2  A    between atoms: C_35  and  C_37 
ROOT
HETATM    1  C   UNK N   1      30.576  20.897  -3.311  0.00  0.00     0.017 C 
HETATM    2  C   UNK N   1      31.364  21.685  -4.358  0.00  0.00    -0.022 C 
HETATM    3  C   UNK N   1      32.640  22.215  -3.701  0.00  0.00     0.013 C 
HETATM    4  C   UNK N   1      33.547  22.757  -4.826  0.00  0.00     0.032 C 
HETATM    5  C   UNK N   1      33.983  21.700  -5.861  0.00  0.00     0.037 C 
HETATM    6  C   UNK N   1      33.599  22.054  -7.298  0.00  0.00     0.032 C 
HETATM    7  C   UNK N   1      34.251  21.033  -8.254  0.00  0.00     0.011 C 
HETATM    8  C   UNK N   1      33.929  19.552  -7.967  0.00  0.00    -0.047 C 
HETATM    9  C   UNK N   1      33.761  19.215  -6.473  0.00  0.00     0.016 C 
HETATM   10  C   UNK N   1      33.289  20.366  -5.573  0.00  0.00     0.027 C 
HETATM   11  C   UNK N   1      31.749  20.585  -5.381  0.00  0.00     0.075 C 
HETATM   12  C   UNK N   1      30.746  20.416  -6.488  0.00  0.00     0.155 C 
HETATM   13  O   UNK N   1      30.642  19.340  -7.046  0.00  0.00    -0.293 OA
HETATM   14  C   UNK N   1      29.765  21.470  -6.801  0.00  0.00     0.055 C 
HETATM   15  C   UNK N   1      29.612  22.605  -6.087  0.00  0.00    -0.055 C 
HETATM   16  C   UNK N   1      30.503  22.923  -4.899  0.00  0.00    -0.011 C 
HETATM   17  C   UNK N   1      29.710  23.493  -3.704  0.00  0.00     0.015 C 
HETATM   18  C   UNK N   1      28.317  23.991  -4.041  0.00  0.00     0.008 C 
HETATM   19  C   UNK N   1      28.330  24.707  -5.390  0.00  0.00     0.017 C 
HETATM   20  C   UNK N   1      28.597  23.666  -6.545  0.00  0.00     0.004 C 
HETATM   21  C   UNK N   1      27.334  22.950  -6.964  0.00  0.00     0.014 C 
HETATM   22  C   UNK N   1      26.104  23.300  -6.589  0.00  0.00     0.088 C 
HETATM   23  C   UNK N   1      25.885  24.497  -5.740  0.00  0.00     0.178 C 
HETATM   24  O   UNK N   1      24.812  24.659  -5.177  0.00  0.00    -0.291 OA
HETATM   25  C   UNK N   1      27.014  25.493  -5.566  0.00  0.00     0.024 C 
HETATM   26  C   UNK N   1      27.103  26.378  -6.796  0.00  0.00     0.024 C 
HETATM   27  C   UNK N   1      26.769  26.424  -4.377  0.00  0.00     0.024 C 
HETATM   28  C   UNK N   1      25.026  22.412  -6.932  0.00  0.00     0.103 C 
HETATM   29  N   UNK N   1      24.164  21.687  -7.192  0.00  0.00    -0.191 NA
HETATM   30  C   UNK N   1      29.149  24.371  -7.779  0.00  0.00     0.025 C 
HETATM   31  C   UNK N   1      31.313  24.117  -5.425  0.00  0.00     0.021 C 
HETATM   32  C   UNK N   1      35.096  18.726  -8.467  0.00  0.00     0.015 C 
HETATM   33  C   UNK N   1      32.723  19.110  -8.767  0.00  0.00     0.015 C 
ENDROOT
BRANCH   5  34
HETATM   34  N   UNK N   1      35.424  21.728  -5.766  0.00  0.00    -0.346 N 
HETATM   35  C   UNK N   1      36.107  21.346  -4.661  0.00  0.00     0.290 C 
HETATM   36  O   UNK N   1      35.615  20.562  -3.861  0.00  0.00    -0.267 OA
HETATM   37  H   UNK N   1      35.937  22.041  -6.545  0.00  0.00     0.163 HD
BRANCH  35  38
HETATM   38  C   UNK N   1      37.371  22.086  -4.340  0.00  0.00     0.318 C 
HETATM   39  C   UNK N   1      37.263  23.571  -4.633  0.00  0.00     0.101 C 
HETATM   40  F   UNK N   1      37.721  21.894  -3.019  0.00  0.00    -0.196 F 
HETATM   41  F   UNK N   1      38.369  21.559  -5.146  0.00  0.00    -0.196 F 
ENDBRANCH  35  38
ENDBRANCH   5  34
TORSDOF 2
ENDMDL
MODEL 6
REMARK VINA RESULT:      -8.4      5.611     10.686
REMARK  2 active torsions:
REMARK  status: ('A' for Active; 'I' for Inactive)
REMARK    1  A    between atoms: C_5  and  N_34 
REMARK       I    between atoms: N_34  and  C_35 
REMARK    2  A    between atoms: C_35  and  C_37 
ROOT
HETATM    1  C   UNK N   1      33.030  17.544   4.584  0.00  0.00     0.017 C 
HETATM    2  C   UNK N   1      31.882  16.820   5.288  0.00  0.00    -0.022 C 
HETATM    3  C   UNK N   1      30.718  17.801   5.445  0.00  0.00     0.013 C 
HETATM    4  C   UNK N   1      29.486  16.986   5.893  0.00  0.00     0.032 C 
HETATM    5  C   UNK N   1      29.031  15.909   4.887  0.00  0.00     0.037 C 
HETATM    6  C   UNK N   1      28.992  14.497   5.475  0.00  0.00     0.032 C 
HETATM    7  C   UNK N   1      28.344  13.547   4.448  0.00  0.00     0.011 C 
HETATM    8  C   UNK N   1      29.002  13.523   3.053  0.00  0.00    -0.047 C 
HETATM    9  C   UNK N   1      29.577  14.878   2.598  0.00  0.00     0.016 C 
HETATM   10  C   UNK N   1      30.016  15.833   3.718  0.00  0.00     0.027 C 
HETATM   11  C   UNK N   1      31.486  15.737   4.251  0.00  0.00     0.075 C 
HETATM   12  C   UNK N   1      32.216  14.435   4.434  0.00  0.00     0.155 C 
HETATM   13  O   UNK N   1      32.391  13.704   3.477  0.00  0.00    -0.293 OA
HETATM   14  C   UNK N   1      32.875  14.098   5.708  0.00  0.00     0.055 C 
HETATM   15  C   UNK N   1      32.970  14.936   6.762  0.00  0.00    -0.055 C 
HETATM   16  C   UNK N   1      32.337  16.316   6.739  0.00  0.00    -0.011 C 
HETATM   17  C   UNK N   1      33.264  17.398   7.335  0.00  0.00     0.015 C 
HETATM   18  C   UNK N   1      34.417  16.865   8.165  0.00  0.00     0.008 C 
HETATM   19  C   UNK N   1      33.951  15.678   9.006  0.00  0.00     0.017 C 
HETATM   20  C   UNK N   1      33.626  14.452   8.066  0.00  0.00     0.004 C 
HETATM   21  C   UNK N   1      34.869  13.675   7.700  0.00  0.00     0.014 C 
HETATM   22  C   UNK N   1      36.063  13.841   8.271  0.00  0.00     0.088 C 
HETATM   23  C   UNK N   1      36.240  14.805   9.385  0.00  0.00     0.178 C 
HETATM   24  O   UNK N   1      37.363  15.154   9.719  0.00  0.00    -0.291 OA
HETATM   25  C   UNK N   1      35.013  15.363  10.079  0.00  0.00     0.024 C 
HETATM   26  C   UNK N   1      34.470  14.333  11.053  0.00  0.00     0.024 C 
HETATM   27  C   UNK N   1      35.345  16.608  10.903  0.00  0.00     0.024 C 
HETATM   28  C   UNK N   1      37.179  13.148   7.690  0.00  0.00     0.103 C 
HETATM   29  N   UNK N   1      38.079  12.604   7.209  0.00  0.00    -0.191 NA
HETATM   30  C   UNK N   1      32.675  13.486   8.764  0.00  0.00     0.025 C 
HETATM   31  C   UNK N   1      31.214  16.164   7.774  0.00  0.00     0.021 C 
HETATM   32  C   UNK N   1      27.932  13.150   2.049  0.00  0.00     0.015 C 
HETATM   33  C   UNK N   1      30.049  12.433   2.983  0.00  0.00     0.015 C 
ENDROOT
BRANCH   5  34
HETATM   34  N   UNK N   1      27.674  16.301   4.582  0.00  0.00    -0.346 N 
HETATM   35  C   UNK N   1      27.344  17.507   4.064  0.00  0.00     0.290 C 
HETATM   36  O   UNK N   1      28.159  18.156   3.422  0.00  0.00    -0.267 OA
HETATM   37  H   UNK N   1      26.952  15.657   4.761  0.00  0.00     0.163 HD
BRANCH  35  38
HETATM   38  C   UNK N   1      26.042  18.111   4.496  0.00  0.00     0.318 C 
HETATM   39  C   UNK N   1      26.228  19.432   5.220  0.00  0.00     0.101 C 
HETATM   40  F   UNK N   1      25.207  18.286   3.411  0.00  0.00    -0.196 F 
HETATM   41  F   UNK N   1      25.449  17.218   5.375  0.00  0.00    -0.196 F 
ENDBRANCH  35  38
ENDBRANCH   5  34
TORSDOF 2
ENDMDL
MODEL 7
REMARK VINA RESULT:      -8.3      8.618     13.250
REMARK  2 active torsions:
REMARK  status: ('A' for Active; 'I' for Inactive)
REMARK    1  A    between atoms: C_5  and  N_34 
REMARK       I    between atoms: N_34  and  C_35 
REMARK    2  A    between atoms: C_35  and  C_37 
ROOT
HETATM    1  C   UNK N   1      26.521  15.340   1.940  0.00  0.00     0.017 C 
HETATM    2  C   UNK N   1      26.835  15.490   3.429  0.00  0.00    -0.022 C 
HETATM    3  C   UNK N   1      28.313  15.164   3.644  0.00  0.00     0.013 C 
HETATM    4  C   UNK N   1      28.674  15.590   5.083  0.00  0.00     0.032 C 
HETATM    5  C   UNK N   1      28.503  17.096   5.366  0.00  0.00     0.037 C 
HETATM    6  C   UNK N   1      27.557  17.399   6.529  0.00  0.00     0.032 C 
HETATM    7  C   UNK N   1      27.617  18.909   6.841  0.00  0.00     0.011 C 
HETATM    8  C   UNK N   1      27.315  19.846   5.653  0.00  0.00    -0.047 C 
HETATM    9  C   UNK N   1      27.796  19.319   4.288  0.00  0.00     0.016 C 
HETATM   10  C   UNK N   1      27.885  17.792   4.150  0.00  0.00     0.027 C 
HETATM   11  C   UNK N   1      26.619  17.008   3.662  0.00  0.00     0.075 C 
HETATM   12  C   UNK N   1      25.218  17.359   4.079  0.00  0.00     0.155 C 
HETATM   13  O   UNK N   1      24.774  18.464   3.828  0.00  0.00    -0.293 OA
HETATM   14  C   UNK N   1      24.306  16.343   4.632  0.00  0.00     0.055 C 
HETATM   15  C   UNK N   1      24.594  15.027   4.722  0.00  0.00    -0.055 C 
HETATM   16  C   UNK N   1      25.946  14.480   4.298  0.00  0.00    -0.011 C 
HETATM   17  C   UNK N   1      25.823  13.165   3.498  0.00  0.00     0.015 C 
HETATM   18  C   UNK N   1      24.480  12.470   3.614  0.00  0.00     0.008 C 
HETATM   19  C   UNK N   1      23.962  12.569   5.047  0.00  0.00     0.017 C 
HETATM   20  C   UNK N   1      23.588  14.066   5.377  0.00  0.00     0.004 C 
HETATM   21  C   UNK N   1      22.208  14.428   4.878  0.00  0.00     0.014 C 
HETATM   22  C   UNK N   1      21.312  13.551   4.425  0.00  0.00     0.088 C 
HETATM   23  C   UNK N   1      21.608  12.097   4.431  0.00  0.00     0.178 C 
HETATM   24  O   UNK N   1      20.917  11.330   3.776  0.00  0.00    -0.291 OA
HETATM   25  C   UNK N   1      22.787  11.588   5.237  0.00  0.00     0.024 C 
HETATM   26  C   UNK N   1      22.405  11.519   6.704  0.00  0.00     0.024 C 
HETATM   27  C   UNK N   1      23.185  10.170   4.824  0.00  0.00     0.024 C 
HETATM   28  C   UNK N   1      20.115  14.074   3.826  0.00  0.00     0.103 C 
HETATM   29  N   UNK N   1      19.162  14.497   3.327  0.00  0.00    -0.191 NA
HETATM   30  C   UNK N   1      23.600  14.297   6.885  0.00  0.00     0.025 C 
HETATM   31  C   UNK N   1      26.548  14.053   5.644  0.00  0.00     0.021 C 
HETATM   32  C   UNK N   1      28.054  21.145   5.898  0.00  0.00     0.015 C 
HETATM   33  C   UNK N   1      25.844  20.196   5.618  0.00  0.00     0.015 C 
ENDROOT
BRANCH   5  34
HETATM   34  N   UNK N   1      29.832  17.508   5.755  0.00  0.00    -0.346 N 
HETATM   35  C   UNK N   1      30.927  17.328   4.980  0.00  0.00     0.290 C 
HETATM   36  O   UNK N   1      30.823  17.223   3.765  0.00  0.00    -0.267 OA
HETATM   37  H   UNK N   1      29.948  17.941   6.631  0.00  0.00     0.163 HD
BRANCH  35  38
HETATM   38  C   UNK N   1      32.224  17.033   5.672  0.00  0.00     0.318 C 
HETATM   39  C   UNK N   1      32.148  17.270   7.169  0.00  0.00     0.101 C 
HETATM   40  F   UNK N   1      32.620  15.735   5.423  0.00  0.00    -0.196 F 
HETATM   41  F   UNK N   1      33.173  17.897   5.147  0.00  0.00    -0.196 F 
ENDBRANCH  35  38
ENDBRANCH   5  34
TORSDOF 2
ENDMDL
MODEL 8
REMARK VINA RESULT:      -7.9     10.224     14.788
REMARK  2 active torsions:
REMARK  status: ('A' for Active; 'I' for Inactive)
REMARK    1  A    between atoms: C_5  and  N_34 
REMARK       I    between atoms: N_34  and  C_35 
REMARK    2  A    between atoms: C_35  and  C_37 
ROOT
HETATM    1  C   UNK N   1      22.965  14.994   7.109  0.00  0.00     0.017 C 
HETATM    2  C   UNK N   1      23.421  14.598   5.704  0.00  0.00    -0.022 C 
HETATM    3  C   UNK N   1      23.402  13.071   5.605  0.00  0.00     0.013 C 
HETATM    4  C   UNK N   1      23.587  12.703   4.118  0.00  0.00     0.032 C 
HETATM    5  C   UNK N   1      22.474  13.224   3.187  0.00  0.00     0.037 C 
HETATM    6  C   UNK N   1      22.989  14.109   2.050  0.00  0.00     0.032 C 
HETATM    7  C   UNK N   1      21.825  14.406   1.082  0.00  0.00     0.011 C 
HETATM    8  C   UNK N   1      20.572  15.040   1.723  0.00  0.00    -0.047 C 
HETATM    9  C   UNK N   1      20.283  14.565   3.159  0.00  0.00     0.016 C 
HETATM   10  C   UNK N   1      21.500  14.105   3.974  0.00  0.00     0.027 C 
HETATM   11  C   UNK N   1      22.287  15.169   4.813  0.00  0.00     0.075 C 
HETATM   12  C   UNK N   1      22.547  16.570   4.335  0.00  0.00     0.155 C 
HETATM   13  O   UNK N   1      21.609  17.300   4.071  0.00  0.00    -0.293 OA
HETATM   14  C   UNK N   1      23.905  17.142   4.340  0.00  0.00     0.055 C 
HETATM   15  C   UNK N   1      24.992  16.523   4.848  0.00  0.00    -0.055 C 
HETATM   16  C   UNK N   1      24.908  15.120   5.424  0.00  0.00    -0.011 C 
HETATM   17  C   UNK N   1      25.705  14.976   6.740  0.00  0.00     0.015 C 
HETATM   18  C   UNK N   1      26.708  16.084   7.003  0.00  0.00     0.008 C 
HETATM   19  C   UNK N   1      27.403  16.480   5.702  0.00  0.00     0.017 C 
HETATM   20  C   UNK N   1      26.373  17.191   4.741  0.00  0.00     0.004 C 
HETATM   21  C   UNK N   1      26.207  18.655   5.072  0.00  0.00     0.014 C 
HETATM   22  C   UNK N   1      26.991  19.337   5.908  0.00  0.00     0.088 C 
HETATM   23  C   UNK N   1      28.156  18.683   6.554  0.00  0.00     0.178 C 
HETATM   24  O   UNK N   1      28.700  19.213   7.512  0.00  0.00    -0.291 OA
HETATM   25  C   UNK N   1      28.637  17.346   6.025  0.00  0.00     0.024 C 
HETATM   26  C   UNK N   1      29.456  17.566   4.766  0.00  0.00     0.024 C 
HETATM   27  C   UNK N   1      29.557  16.641   7.023  0.00  0.00     0.024 C 
HETATM   28  C   UNK N   1      26.595  20.676   6.247  0.00  0.00     0.103 C 
HETATM   29  N   UNK N   1      26.263  21.746   6.534  0.00  0.00    -0.191 NA
HETATM   30  C   UNK N   1      26.848  17.102   3.294  0.00  0.00     0.025 C 
HETATM   31  C   UNK N   1      25.716  14.311   4.399  0.00  0.00     0.021 C 
HETATM   32  C   UNK N   1      19.377  14.635   0.886  0.00  0.00     0.015 C 
HETATM   33  C   UNK N   1      20.650  16.549   1.650  0.00  0.00     0.015 C 
ENDROOT
BRANCH   5  34
HETATM   34  N   UNK N   1      21.944  12.014   2.603  0.00  0.00    -0.346 N 
HETATM   35  C   UNK N   1      22.677  11.170   1.839  0.00  0.00     0.290 C 
HETATM   36  O   UNK N   1      23.895  11.125   1.947  0.00  0.00    -0.267 OA
HETATM   37  H   UNK N   1      21.001  11.791   2.769  0.00  0.00     0.163 HD
BRANCH  35  38
HETATM   38  C   UNK N   1      21.976  10.475   0.710  0.00  0.00     0.318 C 
HETATM   39  C   UNK N   1      20.539  10.936   0.549  0.00  0.00     0.101 C 
HETATM   40  F   UNK N   1      22.663  10.660  -0.472  0.00  0.00    -0.196 F 
HETATM   41  F   UNK N   1      21.963   9.121   1.010  0.00  0.00    -0.196 F 
ENDBRANCH  35  38
ENDBRANCH   5  34
TORSDOF 2
ENDMDL
MODEL 9
REMARK VINA RESULT:      -7.9      8.897     12.438
REMARK  2 active torsions:
REMARK  status: ('A' for Active; 'I' for Inactive)
REMARK    1  A    between atoms: C_5  and  N_34 
REMARK       I    between atoms: N_34  and  C_35 
REMARK    2  A    between atoms: C_35  and  C_37 
ROOT
HETATM    1  C   UNK N   1      25.165  15.036   2.124  0.00  0.00     0.017 C 
HETATM    2  C   UNK N   1      26.158  14.446   3.126  0.00  0.00    -0.022 C 
HETATM    3  C   UNK N   1      27.016  13.409   2.399  0.00  0.00     0.013 C 
HETATM    4  C   UNK N   1      28.183  13.036   3.338  0.00  0.00     0.032 C 
HETATM    5  C   UNK N   1      29.113  14.211   3.700  0.00  0.00     0.037 C 
HETATM    6  C   UNK N   1      29.234  14.459   5.204  0.00  0.00     0.032 C 
HETATM    7  C   UNK N   1      30.329  15.517   5.450  0.00  0.00     0.011 C 
HETATM    8  C   UNK N   1      30.141  16.855   4.705  0.00  0.00    -0.047 C 
HETATM    9  C   UNK N   1      29.490  16.723   3.315  0.00  0.00     0.016 C 
HETATM   10  C   UNK N   1      28.562  15.516   3.119  0.00  0.00     0.027 C 
HETATM   11  C   UNK N   1      27.044  15.671   3.474  0.00  0.00     0.075 C 
HETATM   12  C   UNK N   1      26.549  16.452   4.660  0.00  0.00     0.155 C 
HETATM   13  O   UNK N   1      26.811  17.637   4.751  0.00  0.00    -0.293 OA
HETATM   14  C   UNK N   1      25.609  15.862   5.629  0.00  0.00     0.055 C 
HETATM   15  C   UNK N   1      25.044  14.643   5.498  0.00  0.00    -0.055 C 
HETATM   16  C   UNK N   1      25.386  13.731   4.332  0.00  0.00    -0.011 C 
HETATM   17  C   UNK N   1      24.137  13.041   3.740  0.00  0.00     0.015 C 
HETATM   18  C   UNK N   1      22.907  13.075   4.627  0.00  0.00     0.008 C 
HETATM   19  C   UNK N   1      23.308  12.857   6.085  0.00  0.00     0.017 C 
HETATM   20  C   UNK N   1      24.125  14.103   6.606  0.00  0.00     0.004 C 
HETATM   21  C   UNK N   1      23.219  15.228   7.048  0.00  0.00     0.014 C 
HETATM   22  C   UNK N   1      21.900  15.122   7.208  0.00  0.00     0.088 C 
HETATM   23  C   UNK N   1      21.217  13.821   7.002  0.00  0.00     0.178 C 
HETATM   24  O   UNK N   1      20.001  13.781   6.879  0.00  0.00    -0.291 OA
HETATM   25  C   UNK N   1      22.049  12.556   6.923  0.00  0.00     0.024 C 
HETATM   26  C   UNK N   1      22.451  12.127   8.322  0.00  0.00     0.024 C 
HETATM   27  C   UNK N   1      21.256  11.394   6.322  0.00  0.00     0.024 C 
HETATM   28  C   UNK N   1      21.162  16.328   7.463  0.00  0.00     0.103 C 
HETATM   29  N   UNK N   1      20.568  17.302   7.649  0.00  0.00    -0.191 NA
HETATM   30  C   UNK N   1      24.982  13.712   7.806  0.00  0.00     0.025 C 
HETATM   31  C   UNK N   1      26.150  12.598   5.034  0.00  0.00     0.021 C 
HETATM   32  C   UNK N   1      31.515  17.451   4.483  0.00  0.00     0.015 C 
HETATM   33  C   UNK N   1      29.387  17.839   5.572  0.00  0.00     0.015 C 
ENDROOT
BRANCH   5  34
HETATM   34  N   UNK N   1      30.401  13.767   3.218  0.00  0.00    -0.346 N 
HETATM   35  C   UNK N   1      31.192  12.900   3.892  0.00  0.00     0.290 C 
HETATM   36  O   UNK N   1      30.714  12.113   4.698  0.00  0.00    -0.267 OA
HETATM   37  H   UNK N   1      30.720  14.114   2.354  0.00  0.00     0.163 HD
BRANCH  35  38
HETATM   38  C   UNK N   1      32.675  13.095   3.791  0.00  0.00     0.318 C 
HETATM   39  C   UNK N   1      33.044  14.307   2.955  0.00  0.00     0.101 C 
HETATM   40  F   UNK N   1      33.235  13.205   5.047  0.00  0.00    -0.196 F 
HETATM   41  F   UNK N   1      33.193  11.969   3.169  0.00  0.00    -0.196 F 
ENDBRANCH  35  38
ENDBRANCH   5  34
TORSDOF 2
ENDMDL
