MODEL 1
REMARK VINA RESULT:      -8.0      0.000      0.000
REMARK  6 active torsions:
REMARK  status: ('A' for Active; 'I' for Inactive)
REMARK    1  A    between atoms: C_2  and  N_3 
REMARK    2  A    between atoms: N_3  and  C_4 
REMARK       I    between atoms: N_3  and  C_11 
REMARK    3  A    between atoms: C_4  and  C_5 
REMARK    4  A    between atoms: C_11  and  C_13 
REMARK    5  A    between atoms: C_13  and  N_14 
REMARK    6  A    between atoms: C_20  and  C_23 
ROOT
HETATM    1  N   UNK N   1      36.422  13.946  10.539  0.00  0.00    -0.274 N 
HETATM    2  C   UNK N   1      36.684  13.410  11.736  0.00  0.00     0.142 A 
HETATM    3  C   UNK N   1      37.356  12.242  11.591  0.00  0.00     0.098 A 
HETATM    4  C   UNK N   1      37.792  11.551  12.709  0.00  0.00     0.123 A 
HETATM    5  N   UNK N   1      37.510  12.093  13.936  0.00  0.00    -0.349 N 
ATOM      6  HN  UNK N   1      37.817  11.607  14.778  1.00  0.00     0.167 HD
HETATM    7  C   UNK N   1      36.820  13.281  14.058  0.00  0.00     0.117 A 
HETATM    8  N   UNK N   1      36.410  13.951  12.940  0.00  0.00    -0.326 N 
ATOM      9  HN  UNK N   1      35.909  14.836  13.015  1.00  0.00     0.169 HD
HETATM   10  N   UNK N   1      37.536  11.994  10.276  0.00  0.00    -0.299 N 
HETATM   11  C   UNK N   1      36.961  13.064   9.647  0.00  0.00     0.331 A 
HETATM   12  O   UNK N   1      36.987  13.240   8.438  0.00  0.00    -0.246 OA
HETATM   13  C   UNK N   1      38.263  10.889   9.674  0.00  0.00     0.161 C 
ENDROOT
BRANCH   1  14
HETATM   14  C   UNK N   1      35.951  15.297  10.320  0.00  0.00     0.238 C 
BRANCH  14  15
HETATM   15  C   UNK N   1      34.481  15.603  10.378  0.00  0.00     0.238 C 
HETATM   16  N   UNK N   1      33.878  16.086   9.251  0.00  0.00    -0.347 N 
HETATM   17  O   UNK N   1      33.811  15.116  11.276  0.00  0.00    -0.272 OA
BRANCH  16  18
HETATM   18  C   UNK N   1      34.688  16.715   8.227  0.00  0.00     0.121 C 
HETATM   19  C   UNK N   1      34.458  18.218   8.228  0.00  0.00     0.026 C 
ENDBRANCH  16  18
BRANCH  16  20
HETATM   20  C   UNK N   1      32.743  15.320   8.784  0.00  0.00     0.164 C 
BRANCH  20  21
HETATM   21  C   UNK N   1      31.604  15.990   8.111  0.00  0.00    -0.040 A 
HETATM   22  C   UNK N   1      30.851  17.009   8.704  0.00  0.00     0.009 A 
HETATM   23  C   UNK N   1      29.897  17.695   7.940  0.00  0.00     0.001 A 
HETATM   24  C   UNK N   1      29.719  17.384   6.586  0.00  0.00     0.000 A 
HETATM   25  C   UNK N   1      30.488  16.381   5.994  0.00  0.00     0.001 A 
HETATM   26  C   UNK N   1      31.432  15.695   6.754  0.00  0.00     0.009 A 
ENDBRANCH  20  21
ENDBRANCH  16  20
ENDBRANCH  14  15
ENDBRANCH   1  14
BRANCH   7  27
HETATM   27  C   UNK N   1      36.521  13.845  15.385  0.00  0.00     0.008 A 
HETATM   28  C   UNK N   1      37.176  14.998  15.836  0.00  0.00     0.015 A 
HETATM   29  C   UNK N   1      36.883  15.525  17.098  0.00  0.00     0.001 A 
HETATM   30  C   UNK N   1      35.941  14.898  17.918  0.00  0.00     0.000 A 
HETATM   31  C   UNK N   1      35.285  13.745  17.476  0.00  0.00     0.001 A 
HETATM   32  C   UNK N   1      35.572  13.224  16.213  0.00  0.00     0.015 A 
ENDBRANCH   7  27
TORSDOF 6
ENDMDL
MODEL 2
REMARK VINA RESULT:      -7.7     12.168     15.477
REMARK  6 active torsions:
REMARK  status: ('A' for Active; 'I' for Inactive)
REMARK    1  A    between atoms: C_2  and  N_3 
REMARK    2  A    between atoms: N_3  and  C_4 
REMARK       I    between atoms: N_3  and  C_11 
REMARK    3  A    between atoms: C_4  and  C_5 
REMARK    4  A    between atoms: C_11  and  C_13 
REMARK    5  A    between atoms: C_13  and  N_14 
REMARK    6  A    between atoms: C_20  and  C_23 
ROOT
HETATM    1  N   UNK N   1      21.717  16.435   4.062  0.00  0.00    -0.274 N 
HETATM    2  C   UNK N   1      22.401  17.564   3.847  0.00  0.00     0.142 A 
HETATM    3  C   UNK N   1      21.590  18.510   3.313  0.00  0.00     0.098 A 
HETATM    4  C   UNK N   1      22.077  19.785   3.076  0.00  0.00     0.123 A 
HETATM    5  N   UNK N   1      23.386  20.030   3.395  0.00  0.00    -0.349 N 
ATOM      6  HN  UNK N   1      23.774  20.959   3.231  1.00  0.00     0.167 HD
HETATM    7  C   UNK N   1      24.194  19.049   3.933  0.00  0.00     0.117 A 
HETATM    8  N   UNK N   1      23.688  17.802   4.169  0.00  0.00    -0.326 N 
ATOM      9  HN  UNK N   1      24.270  17.070   4.577  1.00  0.00     0.169 HD
HETATM   10  N   UNK N   1      20.350  17.998   3.163  0.00  0.00    -0.299 N 
HETATM   11  C   UNK N   1      20.449  16.720   3.642  0.00  0.00     0.331 A 
HETATM   12  O   UNK N   1      19.504  15.953   3.742  0.00  0.00    -0.246 OA
HETATM   13  C   UNK N   1      19.158  18.684   2.692  0.00  0.00     0.161 C 
ENDROOT
BRANCH   1  14
HETATM   14  C   UNK N   1      22.192  15.314   4.846  0.00  0.00     0.238 C 
BRANCH  14  15
HETATM   15  C   UNK N   1      21.796  15.181   6.289  0.00  0.00     0.238 C 
HETATM   16  N   UNK N   1      21.999  13.979   6.906  0.00  0.00    -0.347 N 
HETATM   17  O   UNK N   1      21.628  16.194   6.951  0.00  0.00    -0.272 OA
BRANCH  16  18
HETATM   18  C   UNK N   1      22.134  12.782   6.100  0.00  0.00     0.121 C 
HETATM   19  C   UNK N   1      20.929  11.877   6.303  0.00  0.00     0.026 C 
ENDBRANCH  16  18
BRANCH  16  20
HETATM   20  C   UNK N   1      22.804  14.032   8.107  0.00  0.00     0.164 C 
BRANCH  20  21
HETATM   21  C   UNK N   1      22.301  13.462   9.380  0.00  0.00    -0.040 A 
HETATM   22  C   UNK N   1      20.947  13.437   9.730  0.00  0.00     0.009 A 
HETATM   23  C   UNK N   1      20.544  12.739  10.876  0.00  0.00     0.001 A 
HETATM   24  C   UNK N   1      21.485  12.046  11.649  0.00  0.00     0.000 A 
HETATM   25  C   UNK N   1      22.831  12.056  11.283  0.00  0.00     0.001 A 
HETATM   26  C   UNK N   1      23.233  12.755  10.148  0.00  0.00     0.009 A 
ENDBRANCH  20  21
ENDBRANCH  16  20
ENDBRANCH  14  15
ENDBRANCH   1  14
BRANCH   7  27
HETATM   27  C   UNK N   1      25.601  19.329   4.264  0.00  0.00     0.008 A 
HETATM   28  C   UNK N   1      25.956  20.499   4.949  0.00  0.00     0.015 A 
HETATM   29  C   UNK N   1      27.295  20.754   5.258  0.00  0.00     0.001 A 
HETATM   30  C   UNK N   1      28.288  19.846   4.877  0.00  0.00     0.000 A 
HETATM   31  C   UNK N   1      27.942  18.679   4.191  0.00  0.00     0.001 A 
HETATM   32  C   UNK N   1      26.603  18.420   3.889  0.00  0.00     0.015 A 
ENDBRANCH   7  27
TORSDOF 6
ENDMDL
MODEL 3
REMARK VINA RESULT:      -7.7      3.199      8.069
REMARK  6 active torsions:
REMARK  status: ('A' for Active; 'I' for Inactive)
REMARK    1  A    between atoms: C_2  and  N_3 
REMARK    2  A    between atoms: N_3  and  C_4 
REMARK       I    between atoms: N_3  and  C_11 
REMARK    3  A    between atoms: C_4  and  C_5 
REMARK    4  A    between atoms: C_11  and  C_13 
REMARK    5  A    between atoms: C_13  and  N_14 
REMARK    6  A    between atoms: C_20  and  C_23 
ROOT
HETATM    1  N   UNK N   1      35.805  14.128  11.154  0.00  0.00    -0.274 N 
HETATM    2  C   UNK N   1      34.816  13.430  10.586  0.00  0.00     0.142 A 
HETATM    3  C   UNK N   1      34.075  14.234   9.784  0.00  0.00     0.098 A 
HETATM    4  C   UNK N   1      33.038  13.700   9.039  0.00  0.00     0.123 A 
HETATM    5  N   UNK N   1      32.802  12.355   9.156  0.00  0.00    -0.349 N 
ATOM      6  HN  UNK N   1      32.044  11.933   8.621  1.00  0.00     0.167 HD
HETATM    7  C   UNK N   1      33.567  11.559   9.983  0.00  0.00     0.117 A 
HETATM    8  N   UNK N   1      34.593  12.106  10.701  0.00  0.00    -0.326 N 
ATOM      9  HN  UNK N   1      35.174  11.527  11.307  1.00  0.00     0.169 HD
HETATM   10  N   UNK N   1      34.576  15.487   9.827  0.00  0.00    -0.299 N 
HETATM   11  C   UNK N   1      35.649  15.395  10.670  0.00  0.00     0.331 A 
HETATM   12  O   UNK N   1      36.413  16.319  10.907  0.00  0.00    -0.246 OA
HETATM   13  C   UNK N   1      34.132  16.645   9.070  0.00  0.00     0.161 C 
ENDROOT
BRANCH   1  14
HETATM   14  C   UNK N   1      36.929  13.550  11.861  0.00  0.00     0.238 C 
BRANCH  14  15
HETATM   15  C   UNK N   1      36.706  12.779  13.132  0.00  0.00     0.238 C 
HETATM   16  N   UNK N   1      36.326  13.470  14.247  0.00  0.00    -0.347 N 
HETATM   17  O   UNK N   1      36.542  11.570  13.068  0.00  0.00    -0.272 OA
BRANCH  16  18
HETATM   18  C   UNK N   1      36.589  14.893  14.324  0.00  0.00     0.121 C 
HETATM   19  C   UNK N   1      37.354  15.215  15.598  0.00  0.00     0.026 C 
ENDBRANCH  16  18
BRANCH  16  20
HETATM   20  C   UNK N   1      35.099  13.014  14.864  0.00  0.00     0.164 C 
BRANCH  20  21
HETATM   21  C   UNK N   1      35.108  12.441  16.231  0.00  0.00    -0.040 A 
HETATM   22  C   UNK N   1      35.457  11.114  16.506  0.00  0.00     0.009 A 
HETATM   23  C   UNK N   1      35.593  10.700  17.839  0.00  0.00     0.001 A 
HETATM   24  C   UNK N   1      35.410  11.613  18.885  0.00  0.00     0.000 A 
HETATM   25  C   UNK N   1      35.084  12.940  18.604  0.00  0.00     0.001 A 
HETATM   26  C   UNK N   1      34.943  13.350  17.281  0.00  0.00     0.009 A 
ENDBRANCH  20  21
ENDBRANCH  16  20
ENDBRANCH  14  15
ENDBRANCH   1  14
BRANCH   7  27
HETATM   27  C   UNK N   1      33.295  10.116  10.102  0.00  0.00     0.008 A 
HETATM   28  C   UNK N   1      32.181   9.544   9.475  0.00  0.00     0.015 A 
HETATM   29  C   UNK N   1      31.933   8.174   9.595  0.00  0.00     0.001 A 
HETATM   30  C   UNK N   1      32.792   7.369  10.348  0.00  0.00     0.000 A 
HETATM   31  C   UNK N   1      33.904   7.933  10.980  0.00  0.00     0.001 A 
HETATM   32  C   UNK N   1      34.156   9.301  10.853  0.00  0.00     0.015 A 
ENDBRANCH   7  27
TORSDOF 6
ENDMDL
MODEL 4
REMARK VINA RESULT:      -7.7      1.336      2.072
REMARK  6 active torsions:
REMARK  status: ('A' for Active; 'I' for Inactive)
REMARK    1  A    between atoms: C_2  and  N_3 
REMARK    2  A    between atoms: N_3  and  C_4 
REMARK       I    between atoms: N_3  and  C_11 
REMARK    3  A    between atoms: C_4  and  C_5 
REMARK    4  A    between atoms: C_11  and  C_13 
REMARK    5  A    between atoms: C_13  and  N_14 
REMARK    6  A    between atoms: C_20  and  C_23 
ROOT
HETATM    1  N   UNK N   1      35.567  14.040  10.992  0.00  0.00    -0.274 N 
HETATM    2  C   UNK N   1      36.088  13.565  12.129  0.00  0.00     0.142 A 
HETATM    3  C   UNK N   1      37.020  12.619  11.858  0.00  0.00     0.098 A 
HETATM    4  C   UNK N   1      37.740  12.042  12.891  0.00  0.00     0.123 A 
HETATM    5  N   UNK N   1      37.462  12.461  14.166  0.00  0.00    -0.349 N 
ATOM      6  HN  UNK N   1      37.974  12.053  14.947  1.00  0.00     0.167 HD
HETATM    7  C   UNK N   1      36.504  13.422  14.416  0.00  0.00     0.117 A 
HETATM    8  N   UNK N   1      35.815  13.986  13.379  0.00  0.00    -0.326 N 
ATOM      9  HN  UNK N   1      35.112  14.705  13.549  1.00  0.00     0.169 HD
HETATM   10  N   UNK N   1      37.115  12.458  10.521  0.00  0.00    -0.299 N 
HETATM   11  C   UNK N   1      36.217  13.353  10.007  0.00  0.00     0.331 A 
HETATM   12  O   UNK N   1      36.064  13.558   8.812  0.00  0.00    -0.246 OA
HETATM   13  C   UNK N   1      38.034  11.599   9.794  0.00  0.00     0.161 C 
ENDROOT
BRANCH   1  14
HETATM   14  C   UNK N   1      34.739  15.224  10.890  0.00  0.00     0.238 C 
BRANCH  14  15
HETATM   15  C   UNK N   1      34.659  15.980   9.594  0.00  0.00     0.238 C 
HETATM   16  N   UNK N   1      33.567  15.780   8.797  0.00  0.00    -0.347 N 
HETATM   17  O   UNK N   1      35.364  16.967   9.441  0.00  0.00    -0.272 OA
BRANCH  16  18
HETATM   18  C   UNK N   1      32.783  14.572   8.957  0.00  0.00     0.121 C 
HETATM   19  C   UNK N   1      32.788  13.771   7.665  0.00  0.00     0.026 C 
ENDBRANCH  16  18
BRANCH  16  20
HETATM   20  C   UNK N   1      32.830  16.977   8.454  0.00  0.00     0.164 C 
BRANCH  20  21
HETATM   21  C   UNK N   1      32.504  17.285   7.041  0.00  0.00    -0.040 A 
HETATM   22  C   UNK N   1      33.475  17.483   6.054  0.00  0.00     0.009 A 
HETATM   23  C   UNK N   1      33.080  17.611   4.714  0.00  0.00     0.001 A 
HETATM   24  C   UNK N   1      31.728  17.512   4.364  0.00  0.00     0.000 A 
HETATM   25  C   UNK N   1      30.765  17.293   5.350  0.00  0.00     0.001 A 
HETATM   26  C   UNK N   1      31.157  17.172   6.681  0.00  0.00     0.009 A 
ENDBRANCH  20  21
ENDBRANCH  16  20
ENDBRANCH  14  15
ENDBRANCH   1  14
BRANCH   7  27
HETATM   27  C   UNK N   1      36.214  13.855  15.793  0.00  0.00     0.008 A 
HETATM   28  C   UNK N   1      35.310  13.143  16.592  0.00  0.00     0.015 A 
HETATM   29  C   UNK N   1      35.043  13.564  17.898  0.00  0.00     0.001 A 
HETATM   30  C   UNK N   1      35.671  14.703  18.410  0.00  0.00     0.000 A 
HETATM   31  C   UNK N   1      36.571  15.421  17.618  0.00  0.00     0.001 A 
HETATM   32  C   UNK N   1      36.845  14.996  16.316  0.00  0.00     0.015 A 
ENDBRANCH   7  27
TORSDOF 6
ENDMDL
MODEL 5
REMARK VINA RESULT:      -7.7      8.400     12.463
REMARK  6 active torsions:
REMARK  status: ('A' for Active; 'I' for Inactive)
REMARK    1  A    between atoms: C_2  and  N_3 
REMARK    2  A    between atoms: N_3  and  C_4 
REMARK       I    between atoms: N_3  and  C_11 
REMARK    3  A    between atoms: C_4  and  C_5 
REMARK    4  A    between atoms: C_11  and  C_13 
REMARK    5  A    between atoms: C_13  and  N_14 
REMARK    6  A    between atoms: C_20  and  C_23 
ROOT
HETATM    1  N   UNK N   1      24.870  16.332   4.833  0.00  0.00    -0.274 N 
HETATM    2  C   UNK N   1      25.701  17.299   5.237  0.00  0.00     0.142 A 
HETATM    3  C   UNK N   1      25.237  18.510   4.842  0.00  0.00     0.098 A 
HETATM    4  C   UNK N   1      25.908  19.663   5.216  0.00  0.00     0.123 A 
HETATM    5  N   UNK N   1      27.037  19.517   5.978  0.00  0.00    -0.349 N 
ATOM      6  HN  UNK N   1      27.554  20.348   6.268  1.00  0.00     0.167 HD
HETATM    7  C   UNK N   1      27.493  18.273   6.362  0.00  0.00     0.117 A 
HETATM    8  N   UNK N   1      26.807  17.151   5.992  0.00  0.00    -0.326 N 
ATOM      9  HN  UNK N   1      27.126  16.225   6.278  1.00  0.00     0.169 HD
HETATM   10  N   UNK N   1      24.084  18.344   4.160  0.00  0.00    -0.299 N 
HETATM   11  C   UNK N   1      23.872  16.993   4.177  0.00  0.00     0.331 A 
HETATM   12  O   UNK N   1      22.877  16.452   3.718  0.00  0.00    -0.246 OA
HETATM   13  C   UNK N   1      23.217  19.377   3.618  0.00  0.00     0.161 C 
ENDROOT
BRANCH   1  14
HETATM   14  C   UNK N   1      24.914  14.958   5.288  0.00  0.00     0.238 C 
BRANCH  14  15
HETATM   15  C   UNK N   1      24.709  14.637   6.742  0.00  0.00     0.238 C 
HETATM   16  N   UNK N   1      23.609  13.906   7.093  0.00  0.00    -0.347 N 
HETATM   17  O   UNK N   1      25.657  14.732   7.507  0.00  0.00    -0.272 OA
BRANCH  16  18
HETATM   18  C   UNK N   1      22.473  13.859   6.195  0.00  0.00     0.121 C 
HETATM   19  C   UNK N   1      21.407  14.843   6.649  0.00  0.00     0.026 C 
ENDBRANCH  16  18
BRANCH  16  20
HETATM   20  C   UNK N   1      23.887  12.694   7.833  0.00  0.00     0.164 C 
BRANCH  20  21
HETATM   21  C   UNK N   1      23.486  12.568   9.255  0.00  0.00    -0.040 A 
HETATM   22  C   UNK N   1      22.153  12.508   9.675  0.00  0.00     0.009 A 
HETATM   23  C   UNK N   1      21.866  12.229  11.019  0.00  0.00     0.001 A 
HETATM   24  C   UNK N   1      22.903  11.982  11.927  0.00  0.00     0.000 A 
HETATM   25  C   UNK N   1      24.230  12.021  11.497  0.00  0.00     0.001 A 
HETATM   26  C   UNK N   1      24.516  12.305  10.164  0.00  0.00     0.009 A 
ENDBRANCH  20  21
ENDBRANCH  16  20
ENDBRANCH  14  15
ENDBRANCH   1  14
BRANCH   7  27
HETATM   27  C   UNK N   1      28.712  18.136   7.176  0.00  0.00     0.008 A 
HETATM   28  C   UNK N   1      29.797  17.377   6.717  0.00  0.00     0.015 A 
HETATM   29  C   UNK N   1      30.950  17.254   7.498  0.00  0.00     0.001 A 
HETATM   30  C   UNK N   1      31.022  17.881   8.745  0.00  0.00     0.000 A 
HETATM   31  C   UNK N   1      29.943  18.637   9.212  0.00  0.00     0.001 A 
HETATM   32  C   UNK N   1      28.794  18.767   8.428  0.00  0.00     0.015 A 
ENDBRANCH   7  27
TORSDOF 6
ENDMDL
MODEL 6
REMARK VINA RESULT:      -7.6      8.476     13.994
REMARK  6 active torsions:
REMARK  status: ('A' for Active; 'I' for Inactive)
REMARK    1  A    between atoms: C_2  and  N_3 
REMARK    2  A    between atoms: N_3  and  C_4 
REMARK       I    between atoms: N_3  and  C_11 
REMARK    3  A    between atoms: C_4  and  C_5 
REMARK    4  A    between atoms: C_11  and  C_13 
REMARK    5  A    between atoms: C_13  and  N_14 
REMARK    6  A    between atoms: C_20  and  C_23 
ROOT
HETATM    1  N   UNK N   1      24.130  19.295   3.850  0.00  0.00    -0.274 N 
HETATM    2  C   UNK N   1      23.108  18.663   4.437  0.00  0.00     0.142 A 
HETATM    3  C   UNK N   1      21.929  19.131   3.958  0.00  0.00     0.098 A 
HETATM    4  C   UNK N   1      20.738  18.565   4.379  0.00  0.00     0.123 A 
HETATM    5  N   UNK N   1      20.811  17.539   5.285  0.00  0.00    -0.349 N 
ATOM      6  HN  UNK N   1      19.951  17.103   5.615  1.00  0.00     0.167 HD
HETATM    7  C   UNK N   1      22.023  17.084   5.762  0.00  0.00     0.117 A 
HETATM    8  N   UNK N   1      23.186  17.650   5.323  0.00  0.00    -0.326 N 
ATOM      9  HN  UNK N   1      24.090  17.316   5.658  1.00  0.00     0.169 HD
HETATM   10  N   UNK N   1      22.172  20.095   3.044  0.00  0.00    -0.299 N 
HETATM   11  C   UNK N   1      23.537  20.171   2.986  0.00  0.00     0.331 A 
HETATM   12  O   UNK N   1      24.149  20.887   2.208  0.00  0.00    -0.246 OA
HETATM   13  C   UNK N   1      21.203  20.815   2.236  0.00  0.00     0.161 C 
ENDROOT
BRANCH   1  14
HETATM   14  C   UNK N   1      25.516  18.882   3.927  0.00  0.00     0.238 C 
BRANCH  14  15
HETATM   15  C   UNK N   1      26.298  19.097   5.192  0.00  0.00     0.238 C 
HETATM   16  N   UNK N   1      27.033  18.055   5.682  0.00  0.00    -0.347 N 
HETATM   17  O   UNK N   1      26.528  20.241   5.557  0.00  0.00    -0.272 OA
BRANCH  16  18
HETATM   18  C   UNK N   1      26.700  16.702   5.283  0.00  0.00     0.121 C 
HETATM   19  C   UNK N   1      26.566  15.814   6.509  0.00  0.00     0.026 C 
ENDBRANCH  16  18
BRANCH  16  20
HETATM   20  C   UNK N   1      28.439  18.334   5.878  0.00  0.00     0.164 C 
BRANCH  20  21
HETATM   21  C   UNK N   1      29.064  18.169   7.213  0.00  0.00    -0.040 A 
HETATM   22  C   UNK N   1      28.505  18.677   8.391  0.00  0.00     0.009 A 
HETATM   23  C   UNK N   1      29.076  18.339   9.626  0.00  0.00     0.001 A 
HETATM   24  C   UNK N   1      30.179  17.477   9.683  0.00  0.00     0.000 A 
HETATM   25  C   UNK N   1      30.718  16.956   8.506  0.00  0.00     0.001 A 
HETATM   26  C   UNK N   1      30.154  17.296   7.279  0.00  0.00     0.009 A 
ENDBRANCH  20  21
ENDBRANCH  16  20
ENDBRANCH  14  15
ENDBRANCH   1  14
BRANCH   7  27
HETATM   27  C   UNK N   1      22.083  15.984   6.740  0.00  0.00     0.008 A 
HETATM   28  C   UNK N   1      23.074  14.998   6.648  0.00  0.00     0.015 A 
HETATM   29  C   UNK N   1      23.121  13.959   7.583  0.00  0.00     0.001 A 
HETATM   30  C   UNK N   1      22.173  13.896   8.609  0.00  0.00     0.000 A 
HETATM   31  C   UNK N   1      21.179  14.874   8.705  0.00  0.00     0.001 A 
HETATM   32  C   UNK N   1      21.138  15.917   7.776  0.00  0.00     0.015 A 
ENDBRANCH   7  27
TORSDOF 6
ENDMDL
MODEL 7
REMARK VINA RESULT:      -7.6      8.189     13.018
REMARK  6 active torsions:
REMARK  status: ('A' for Active; 'I' for Inactive)
REMARK    1  A    between atoms: C_2  and  N_3 
REMARK    2  A    between atoms: N_3  and  C_4 
REMARK       I    between atoms: N_3  and  C_11 
REMARK    3  A    between atoms: C_4  and  C_5 
REMARK    4  A    between atoms: C_11  and  C_13 
REMARK    5  A    between atoms: C_13  and  N_14 
REMARK    6  A    between atoms: C_20  and  C_23 
ROOT
HETATM    1  N   UNK N   1      23.884  16.221   5.462  0.00  0.00    -0.274 N 
HETATM    2  C   UNK N   1      22.919  15.970   6.353  0.00  0.00     0.142 A 
HETATM    3  C   UNK N   1      21.833  16.740   6.100  0.00  0.00     0.098 A 
HETATM    4  C   UNK N   1      20.686  16.591   6.861  0.00  0.00     0.123 A 
HETATM    5  N   UNK N   1      20.710  15.654   7.861  0.00  0.00    -0.349 N 
ATOM      6  HN  UNK N   1      19.880  15.522   8.440  1.00  0.00     0.167 HD
HETATM    7  C   UNK N   1      21.829  14.886   8.103  0.00  0.00     0.117 A 
HETATM    8  N   UNK N   1      22.946  15.043   7.331  0.00  0.00    -0.326 N 
ATOM      9  HN  UNK N   1      23.777  14.473   7.491  1.00  0.00     0.169 HD
HETATM   10  N   UNK N   1      22.083  17.521   5.027  0.00  0.00    -0.299 N 
HETATM   11  C   UNK N   1      23.350  17.175   4.644  0.00  0.00     0.331 A 
HETATM   12  O   UNK N   1      23.909  17.619   3.651  0.00  0.00    -0.246 OA
HETATM   13  C   UNK N   1      21.174  18.446   4.372  0.00  0.00     0.161 C 
ENDROOT
BRANCH   1  14
HETATM   14  C   UNK N   1      25.071  15.413   5.274  0.00  0.00     0.238 C 
BRANCH  14  15
HETATM   15  C   UNK N   1      26.278  15.632   6.142  0.00  0.00     0.238 C 
HETATM   16  N   UNK N   1      27.270  16.448   5.676  0.00  0.00    -0.347 N 
HETATM   17  O   UNK N   1      26.204  15.368   7.333  0.00  0.00    -0.272 OA
BRANCH  16  18
HETATM   18  C   UNK N   1      27.373  16.695   4.252  0.00  0.00     0.121 C 
HETATM   19  C   UNK N   1      27.368  18.191   3.979  0.00  0.00     0.026 C 
ENDBRANCH  16  18
BRANCH  16  20
HETATM   20  C   UNK N   1      27.613  17.555   6.541  0.00  0.00     0.164 C 
BRANCH  20  21
HETATM   21  C   UNK N   1      28.885  17.553   7.303  0.00  0.00    -0.040 A 
HETATM   22  C   UNK N   1      30.030  16.866   6.886  0.00  0.00     0.009 A 
HETATM   23  C   UNK N   1      31.234  17.047   7.580  0.00  0.00     0.001 A 
HETATM   24  C   UNK N   1      31.299  17.932   8.664  0.00  0.00     0.000 A 
HETATM   25  C   UNK N   1      30.159  18.632   9.062  0.00  0.00     0.001 A 
HETATM   26  C   UNK N   1      28.961  18.447   8.376  0.00  0.00     0.009 A 
ENDBRANCH  20  21
ENDBRANCH  16  20
ENDBRANCH  14  15
ENDBRANCH   1  14
BRANCH   7  27
HETATM   27  C   UNK N   1      21.838  13.888   9.187  0.00  0.00     0.008 A 
HETATM   28  C   UNK N   1      23.021  13.225   9.538  0.00  0.00     0.015 A 
HETATM   29  C   UNK N   1      23.017  12.280  10.569  0.00  0.00     0.001 A 
HETATM   30  C   UNK N   1      21.831  11.988  11.248  0.00  0.00     0.000 A 
HETATM   31  C   UNK N   1      20.646  12.643  10.901  0.00  0.00     0.001 A 
HETATM   32  C   UNK N   1      20.652  13.593   9.877  0.00  0.00     0.015 A 
ENDBRANCH   7  27
TORSDOF 6
ENDMDL
MODEL 8
REMARK VINA RESULT:      -7.5      2.133      8.200
REMARK  6 active torsions:
REMARK  status: ('A' for Active; 'I' for Inactive)
REMARK    1  A    between atoms: C_2  and  N_3 
REMARK    2  A    between atoms: N_3  and  C_4 
REMARK       I    between atoms: N_3  and  C_11 
REMARK    3  A    between atoms: C_4  and  C_5 
REMARK    4  A    between atoms: C_11  and  C_13 
REMARK    5  A    between atoms: C_13  and  N_14 
REMARK    6  A    between atoms: C_20  and  C_23 
ROOT
HETATM    1  N   UNK N   1      36.289  13.013  10.320  0.00  0.00    -0.274 N 
HETATM    2  C   UNK N   1      36.375  13.506   9.080  0.00  0.00     0.142 A 
HETATM    3  C   UNK N   1      37.446  12.977   8.438  0.00  0.00     0.098 A 
HETATM    4  C   UNK N   1      37.684  13.296   7.112  0.00  0.00     0.123 A 
HETATM    5  N   UNK N   1      36.809  14.156   6.502  0.00  0.00    -0.349 N 
ATOM      6  HN  UNK N   1      36.959  14.411   5.526  1.00  0.00     0.167 HD
HETATM    7  C   UNK N   1      35.730  14.686   7.178  0.00  0.00     0.117 A 
HETATM    8  N   UNK N   1      35.508  14.347   8.483  0.00  0.00    -0.326 N 
ATOM      9  HN  UNK N   1      34.707  14.722   8.992  1.00  0.00     0.169 HD
HETATM   10  N   UNK N   1      38.084  12.125   9.268  0.00  0.00    -0.299 N 
HETATM   11  C   UNK N   1      37.346  12.155  10.420  0.00  0.00     0.331 A 
HETATM   12  O   UNK N   1      37.569  11.451  11.393  0.00  0.00    -0.246 OA
HETATM   13  C   UNK N   1      39.237  11.292   8.969  0.00  0.00     0.161 C 
ENDROOT
BRANCH   1  14
HETATM   14  C   UNK N   1      35.142  13.158  11.192  0.00  0.00     0.238 C 
BRANCH  14  15
HETATM   15  C   UNK N   1      35.316  13.694  12.585  0.00  0.00     0.238 C 
HETATM   16  N   UNK N   1      35.282  12.810  13.626  0.00  0.00    -0.347 N 
HETATM   17  O   UNK N   1      35.804  14.805  12.734  0.00  0.00    -0.272 OA
BRANCH  16  18
HETATM   18  C   UNK N   1      34.642  11.522  13.442  0.00  0.00     0.121 C 
HETATM   19  C   UNK N   1      33.811  11.172  14.666  0.00  0.00     0.026 C 
ENDBRANCH  16  18
BRANCH  16  20
HETATM   20  C   UNK N   1      36.446  12.826  14.485  0.00  0.00     0.164 C 
BRANCH  20  21
HETATM   21  C   UNK N   1      36.482  13.685  15.693  0.00  0.00    -0.040 A 
HETATM   22  C   UNK N   1      37.228  14.865  15.776  0.00  0.00     0.009 A 
HETATM   23  C   UNK N   1      37.080  15.698  16.894  0.00  0.00     0.001 A 
HETATM   24  C   UNK N   1      36.171  15.366  17.906  0.00  0.00     0.000 A 
HETATM   25  C   UNK N   1      35.413  14.198  17.808  0.00  0.00     0.001 A 
HETATM   26  C   UNK N   1      35.564  13.368  16.700  0.00  0.00     0.009 A 
ENDBRANCH  20  21
ENDBRANCH  16  20
ENDBRANCH  14  15
ENDBRANCH   1  14
BRANCH   7  27
HETATM   27  C   UNK N   1      34.804  15.614   6.508  0.00  0.00     0.008 A 
HETATM   28  C   UNK N   1      34.399  15.391   5.186  0.00  0.00     0.015 A 
HETATM   29  C   UNK N   1      33.519  16.279   4.560  0.00  0.00     0.001 A 
HETATM   30  C   UNK N   1      33.045  17.398   5.250  0.00  0.00     0.000 A 
HETATM   31  C   UNK N   1      33.446  17.630   6.568  0.00  0.00     0.001 A 
HETATM   32  C   UNK N   1      34.319  16.738   7.196  0.00  0.00     0.015 A 
ENDBRANCH   7  27
TORSDOF 6
ENDMDL
MODEL 9
REMARK VINA RESULT:      -7.5     11.677     15.291
REMARK  6 active torsions:
REMARK  status: ('A' for Active; 'I' for Inactive)
REMARK    1  A    between atoms: C_2  and  N_3 
REMARK    2  A    between atoms: N_3  and  C_4 
REMARK       I    between atoms: N_3  and  C_11 
REMARK    3  A    between atoms: C_4  and  C_5 
REMARK    4  A    between atoms: C_11  and  C_13 
REMARK    5  A    between atoms: C_13  and  N_14 
REMARK    6  A    between atoms: C_20  and  C_23 
ROOT
HETATM    1  N   UNK N   1      21.345  18.274   4.016  0.00  0.00    -0.274 N 
HETATM    2  C   UNK N   1      22.523  18.895   3.896  0.00  0.00     0.142 A 
HETATM    3  C   UNK N   1      22.450  19.862   2.949  0.00  0.00     0.098 A 
HETATM    4  C   UNK N   1      23.542  20.680   2.710  0.00  0.00     0.123 A 
HETATM    5  N   UNK N   1      24.670  20.462   3.456  0.00  0.00    -0.349 N 
ATOM      6  HN  UNK N   1      25.490  21.048   3.302  1.00  0.00     0.167 HD
HETATM    7  C   UNK N   1      24.722  19.468   4.411  0.00  0.00     0.117 A 
HETATM    8  N   UNK N   1      23.628  18.681   4.638  0.00  0.00    -0.326 N 
ATOM      9  HN  UNK N   1      23.648  17.950   5.348  1.00  0.00     0.169 HD
HETATM   10  N   UNK N   1      21.206  19.878   2.426  0.00  0.00    -0.299 N 
HETATM   11  C   UNK N   1      20.538  18.898   3.107  0.00  0.00     0.331 A 
HETATM   12  O   UNK N   1      19.349  18.655   2.966  0.00  0.00    -0.246 OA
HETATM   13  C   UNK N   1      20.672  20.797   1.434  0.00  0.00     0.161 C 
ENDROOT
BRANCH   1  14
HETATM   14  C   UNK N   1      20.988  17.374   5.092  0.00  0.00     0.238 C 
BRANCH  14  15
HETATM   15  C   UNK N   1      21.029  15.887   4.878  0.00  0.00     0.238 C 
HETATM   16  N   UNK N   1      21.724  15.125   5.775  0.00  0.00    -0.347 N 
HETATM   17  O   UNK N   1      20.201  15.373   4.141  0.00  0.00    -0.272 OA
BRANCH  16  18
HETATM   18  C   UNK N   1      22.745  15.746   6.593  0.00  0.00     0.121 C 
HETATM   19  C   UNK N   1      24.126  15.355   6.093  0.00  0.00     0.026 C 
ENDBRANCH  16  18
BRANCH  16  20
HETATM   20  C   UNK N   1      20.962  14.067   6.401  0.00  0.00     0.164 C 
BRANCH  20  21
HETATM   21  C   UNK N   1      21.250  13.651   7.795  0.00  0.00    -0.040 A 
HETATM   22  C   UNK N   1      20.539  14.126   8.902  0.00  0.00     0.009 A 
HETATM   23  C   UNK N   1      20.770  13.561  10.164  0.00  0.00     0.001 A 
HETATM   24  C   UNK N   1      21.684  12.510  10.311  0.00  0.00     0.000 A 
HETATM   25  C   UNK N   1      22.374  12.025   9.200  0.00  0.00     0.001 A 
HETATM   26  C   UNK N   1      22.149  12.590   7.947  0.00  0.00     0.009 A 
ENDBRANCH  20  21
ENDBRANCH  16  20
ENDBRANCH  14  15
ENDBRANCH   1  14
BRANCH   7  27
HETATM   27  C   UNK N   1      25.945  19.244   5.200  0.00  0.00     0.008 A 
HETATM   28  C   UNK N   1      26.526  20.288   5.931  0.00  0.00     0.015 A 
HETATM   29  C   UNK N   1      27.687  20.064   6.677  0.00  0.00     0.001 A 
HETATM   30  C   UNK N   1      28.279  18.797   6.688  0.00  0.00     0.000 A 
HETATM   31  C   UNK N   1      27.708  17.751   5.958  0.00  0.00     0.001 A 
HETATM   32  C   UNK N   1      26.543  17.974   5.220  0.00  0.00     0.015 A 
ENDBRANCH   7  27
TORSDOF 6
ENDMDL
