REMARK  4 active torsions:
REMARK  status: ('A' for Active; 'I' for Inactive)
REMARK    1  A    between atoms: C_16  and  N_20 
REMARK       I    between atoms: N_20  and  C_21 
REMARK    2  A    between atoms: C_21  and  C_23 
REMARK    3  A    between atoms: C_23  and  N_24 
REMARK    4  A    between atoms: C_25  and  C_35 
ROOT
HETATM    1  N   UNK N   1       7.611   6.631   1.056  0.00  0.00    -0.326 N 
HETATM    2  C   UNK N   1       6.862   5.602   0.582  0.00  0.00     0.240 C 
HETATM    3  O   UNK N   1       6.263   5.708  -0.482  0.00  0.00    -0.271 OA
HETATM    4  H   UNK N   1       8.336   6.480   1.706  0.00  0.00     0.169 HD
ENDROOT
BRANCH   2   5
HETATM    5  C   UNK N   1       6.531   4.478   1.509  0.00  0.00     0.229 C 
BRANCH   5   6
HETATM    6  N   UNK N   1       5.996   3.320   0.831  0.00  0.00    -0.331 N 
HETATM    7  C   UNK N   1       6.791   2.092   0.905  0.00  0.00     0.138 C 
HETATM    8  C   UNK N   1       6.040   0.850   0.407  0.00  0.00     0.145 C 
HETATM    9  N   UNK N   1       5.200   1.166  -0.744  0.00  0.00    -0.403 N 
HETATM   10  C   UNK N   1       4.137   2.092  -0.339  0.00  0.00     0.107 C 
HETATM   11  H   UNK N   1       5.332   0.799  -1.686  0.00  0.00     0.154 HD
HETATM   12  C   UNK N   1       4.739   3.341   0.277  0.00  0.00     0.248 C 
HETATM   13  C   UNK N   1       3.160   1.442   0.629  0.00  0.00     0.040 C 
HETATM   14  C   UNK N   1       3.255   2.410  -1.536  0.00  0.00     0.040 C 
HETATM   15  O   UNK N   1       4.061   4.367   0.337  0.00  0.00    -0.270 OA
HETATM   16  C   UNK N   1       1.861   2.205   0.463  0.00  0.00     0.003 C 
HETATM   17  C   UNK N   1       1.877   2.735  -0.964  0.00  0.00     0.003 C 
BRANCH   7  18
HETATM   18  C   UNK N   1       8.200   2.262   0.357  0.00  0.00    -0.028 A 
HETATM   19  C   UNK N   1       8.984   3.346   0.785  0.00  0.00     0.051 A 
HETATM   20  C   UNK N   1      10.285   3.526   0.329  0.00  0.00     0.119 A 
HETATM   21  C   UNK N   1      10.846   2.590  -0.537  0.00  0.00     0.084 A 
HETATM   22  F   UNK N   1      10.996   4.608   0.728  0.00  0.00    -0.206 F 
HETATM   23  C   UNK N   1      10.094   1.485  -0.951  0.00  0.00     0.119 A 
HETATM   24  C   UNK N   1       8.772   1.324  -0.514  0.00  0.00     0.051 A 
HETATM   25  F   UNK N   1      10.651   0.562  -1.767  0.00  0.00    -0.206 F 
ENDBRANCH   7  18
ENDBRANCH   5   6
ENDBRANCH   2   5
BRANCH   1  26
HETATM   26  C   UNK N   1       7.311   7.916   0.584  0.00  0.00     0.035 A 
HETATM   27  C   UNK N   1       7.510   8.248  -0.778  0.00  0.00     0.030 A 
HETATM   28  C   UNK N   1       6.686   9.211  -1.388  0.00  0.00     0.010 A 
HETATM   29  C   UNK N   1       5.657   9.776  -0.628  0.00  0.00    -0.050 A 
HETATM   30  C   UNK N   1       4.520  10.582  -1.121  0.00  0.00     0.064 C 
HETATM   31  C   UNK N   1       5.516   9.482   0.698  0.00  0.00    -0.048 A 
HETATM   32  C   UNK N   1       3.502  10.322   0.023  0.00  0.00     0.080 A 
HETATM   33  C   UNK N   1       2.457  11.402   0.201  0.00  0.00     0.237 A 
HETATM   34  C   UNK N   1       2.562   9.161  -0.259  0.00  0.00     0.005 A 
HETATM   35  C   UNK N   1       4.310  10.061   1.295  0.00  0.00     0.064 C 
HETATM   36  N   UNK N   1       1.191  10.958   0.059  0.00  0.00    -0.312 N 
HETATM   37  O   UNK N   1       2.717  12.563   0.473  0.00  0.00    -0.272 OA
HETATM   38  C   UNK N   1       1.267   9.596  -0.217  0.00  0.00     0.115 A 
HETATM   39  H   UNK N   1       0.370  11.496   0.135  0.00  0.00     0.170 HD
HETATM   40  N   UNK N   1       0.209   8.767  -0.404  0.00  0.00    -0.352 N 
HETATM   41  C   UNK N   1       0.435   7.441  -0.648  0.00  0.00     0.089 A 
ATOM     42  HN  UNK N   1      -0.744   9.128  -0.362  1.00  0.00     0.166 HD
HETATM   43  C   UNK N   1       1.753   6.941  -0.702  0.00  0.00     0.018 A 
HETATM   44  C   UNK N   1       2.837   7.813  -0.503  0.00  0.00     0.013 A 
HETATM   45  C   UNK N   1       6.316   8.556   1.313  0.00  0.00     0.037 A 
ENDBRANCH   1  26
TORSDOF 4
