REMARK  10 active torsions:
REMARK  status: ('A' for Active; 'I' for Inactive)
REMARK    1  A    between atoms: C_25  and  C_21 
REMARK    2  A    between atoms: C_23  and  C_22 
REMARK    3  A    between atoms: C_30  and  C_22 
REMARK    4  A    between atoms: N_33  and  C_24 
REMARK    5  A    between atoms: O_41  and  C_25 
REMARK    6  A    between atoms: C_27  and  C_26 
REMARK    7  A    between atoms: N_32  and  C_28 
REMARK    8  A    between atoms: N_34  and  C_29 
REMARK    9  A    between atoms: C_30  and  N_33 
REMARK   10  A    between atoms: S_43  and  N_34 
ROOT
HETATM    1  C   UNK N   1       5.265  -0.955   0.000  0.00  0.00     0.152 A 
HETATM    2  C   UNK N   1       4.457  -2.133   0.000  0.00  0.00     0.152 A 
HETATM    3  C   UNK N   1      -0.302   5.175   0.000  0.00  0.00     0.210 A 
HETATM    4  C   UNK N   1       1.303  -3.250   0.000  0.00  0.00     0.210 A 
HETATM    5  C   UNK N   1       3.321   3.251   0.000  0.00  0.00     0.210 A 
HETATM    6  C   UNK N   1      -0.364  -0.667   0.000  0.00  0.00     0.001 A 
HETATM    7  C   UNK N   1      -0.364  -1.492   0.000  0.00  0.00     0.003 A 
HETATM    8  C   UNK N   1       0.351  -0.255   0.000  0.00  0.00     0.013 A 
HETATM    9  C   UNK N   1       0.351  -1.905   0.000  0.00  0.00     0.037 A 
HETATM   10  C   UNK N   1       3.993   0.825   0.000  0.00  0.00     0.026 A 
HETATM   11  C   UNK N   1       0.208   3.605   0.000  0.00  0.00     0.038 A 
HETATM   12  C   UNK N   1       3.279   1.238   0.000  0.00  0.00     0.033 A 
HETATM   13  C   UNK N   1       0.463   2.821   0.000  0.00  0.00     0.031 A 
HETATM   14  C   UNK N   1       3.279  -0.412   0.000  0.00  0.00     0.036 A 
HETATM   15  C   UNK N   1       3.009  -2.001   0.000  0.00  0.00     0.068 A 
HETATM   16  C   UNK N   1       1.567   4.047   0.000  0.00  0.00     0.075 A 
HETATM   17  C   UNK N   1       1.620  -1.641   0.000  0.00  0.00     0.151 A 
HETATM   18  C   UNK N   1       3.993   0.000   0.000  0.00  0.00     0.034 A 
HETATM   19  C   UNK N   1       2.255  -2.336   0.000  0.00  0.00     0.138 A 
HETATM   20  C   UNK N   1       0.760   4.218   0.000  0.00  0.00     0.070 A 
HETATM   21  C   UNK N   1       1.065  -0.667   0.000  0.00  0.00     0.017 A 
HETATM   22  C   UNK N   1       2.564   0.000   0.000  0.00  0.00     0.014 A 
HETATM   23  C   UNK N   1       2.564   0.825   0.000  0.00  0.00     0.063 A 
HETATM   24  C   UNK N   1       2.922  -1.180   0.000  0.00  0.00     0.176 A 
HETATM   25  C   UNK N   1       1.065  -1.492   0.000  0.00  0.00     0.077 A 
HETATM   26  C   UNK N   1       1.822   3.262   0.000  0.00  0.00     0.094 A 
HETATM   27  C   UNK N   1       1.270   2.649   0.000  0.00  0.00     0.113 A 
HETATM   28  C   UNK N   1       3.820  -0.830   0.000  0.00  0.00     0.241 A 
HETATM   29  C   UNK N   1       1.295   0.412   0.000  0.00  0.00     0.276 A 
HETATM   30  C   UNK N   1       1.780  -0.255   0.000  0.00  0.00     0.172 A 
HETATM   31 Cl   UNK N   1       4.893  -0.145   0.000  0.00  0.00    -0.084 Cl
HETATM   32  N   UNK N   1       4.521  -1.310   0.000  0.00  0.00    -0.359 N 
HETATM   33  N   UNK N   1       2.115  -1.009   0.000  0.00  0.00    -0.373 N 
HETATM   34  N   UNK N   1       1.780   1.080   0.000  0.00  0.00    -0.201 N 
HETATM   35  O   UNK N   1       2.514  -3.215   0.000  0.00  0.00    -0.394 OA
HETATM   36  O   UNK N   1       3.515   0.016   0.000  0.00  0.00    -0.271 OA
HETATM   37  O   UNK N   1       0.439   0.388   0.000  0.00  0.00    -0.268 OA
HETATM   38  O   UNK N   1       2.227   2.255   0.000  0.00  0.00    -0.199 OA
HETATM   39  O   UNK N   1       0.599   1.723   0.000  0.00  0.00    -0.199 OA
HETATM   40  O   UNK N   1       0.505   5.003   0.000  0.00  0.00    -0.356 OA
HETATM   41  O   UNK N   1       1.493  -2.362   0.000  0.00  0.00    -0.355 OA
HETATM   42  O   UNK N   1       2.621   3.688   0.000  0.00  0.00    -0.354 OA
HETATM   43  S   UNK N   1       1.461   1.847   0.000  0.00  0.00     0.274 SA
HETATM   44  H   UNK N   1       1.845  -3.918   0.000  0.00  0.00     0.210 HD
ENDROOT
TORSDOF 10
