REMARK  3 active torsions:
REMARK  status: ('A' for Active; 'I' for Inactive)
REMARK    1  A    between atoms: C_3  and  C_2 
REMARK    2  A    between atoms: C_3  and  O_28 
REMARK    3  A    between atoms: C_24  and  N_27 
ROOT
HETATM    1  C   UNK N   1       6.948  -1.281   0.154  0.00  0.00     0.173 A 
HETATM    2  C   UNK N   1       6.049  -0.072   0.142  0.00  0.00     0.002 A 
HETATM    3  C   UNK N   1       4.665  -0.270   0.260  0.00  0.00     0.043 A 
HETATM    4  C   UNK N   1       3.830   0.831   0.219  0.00  0.00     0.065 A 
HETATM    5  N   UNK N   1       4.307   2.084   0.092  0.00  0.00    -0.307 N 
HETATM    6  C   UNK N   1       5.652   2.331  -0.017  0.00  0.00     0.257 A 
HETATM    7  O   UNK N   1       6.058   3.475  -0.145  0.00  0.00    -0.267 OA
HETATM    8  C   UNK N   1       6.555   1.241  -0.004  0.00  0.00     0.044 A 
HETATM    9  C   UNK N   1       8.026   1.495  -0.161  0.00  0.00     0.224 A 
HETATM   10  O   UNK N   1       8.820   0.363  -0.186  0.00  0.00    -0.314 OA
HETATM   11  C   UNK N   1       8.405  -0.921  -0.041  0.00  0.00     0.298 A 
HETATM   12  O   UNK N   1       9.242  -1.810  -0.059  0.00  0.00    -0.261 OA
HETATM   13  C   UNK N   1       3.207   3.069   0.042  0.00  0.00     0.173 A 
HETATM   14  C   UNK N   1       2.007   2.147   0.107  0.00  0.00    -0.010 A 
HETATM   15  C   UNK N   1       2.413   0.849   0.226  0.00  0.00     0.068 A 
HETATM   16  N   UNK N   1       1.553  -0.197   0.255  0.00  0.00    -0.353 N 
ATOM     17  HN  UNK N   1       1.902  -1.151   0.348  1.00  0.00     0.166 HD
HETATM   18  C   UNK N   1       0.215   0.043   0.159  0.00  0.00     0.045 A 
HETATM   19  C   UNK N   1      -0.682  -1.026   0.164  0.00  0.00     0.030 A 
HETATM   20  C   UNK N   1      -2.052  -0.790   0.040  0.00  0.00     0.005 A 
HETATM   21  C   UNK N   1      -2.533   0.517  -0.090  0.00  0.00     0.030 A 
HETATM   22  C   UNK N   1      -1.651   1.603  -0.095  0.00  0.00     0.038 A 
HETATM   23  C   UNK N   1      -0.269   1.380   0.029  0.00  0.00     0.017 A 
HETATM   24  C   UNK N   1       0.652   2.450   0.009  0.00  0.00     0.027 A 
ENDROOT
BRANCH   1  25
HETATM   25  C   UNK N   1       6.479  -2.224  -0.968  0.00  0.00     0.049 C 
HETATM   26  C   UNK N   1       7.076  -3.621  -0.878  0.00  0.00     0.009 C 
ENDBRANCH   1  25
BRANCH   1  27
HETATM   27  O   UNK N   1       6.803  -1.919   1.391  0.00  0.00    -0.375 OA
HETATM   28  H   UNK N   1       6.370  -2.053   2.249  0.00  0.00     0.211 HD
ENDBRANCH   1  27
BRANCH  22  29
HETATM   29  N   UNK N   1      -2.163   2.910  -0.237  0.00  0.00    -0.398 N 
HETATM   30  H   UNK N   1      -1.552   3.675  -0.336  0.00  0.00     0.156 HD
HETATM   31  H   UNK N   1      -3.137   3.058  -0.237  0.00  0.00     0.156 HD
ENDBRANCH  22  29
TORSDOF 3
