MODEL 1
REMARK VINA RESULT:      -8.6      0.000      0.000
REMARK  5 active torsions:
REMARK  status: ('A' for Active; 'I' for Inactive)
REMARK    1  A    between atoms: C_15  and  C_12 
REMARK    2  A    between atoms: C_24  and  C_12 
REMARK    3  A    between atoms: N_32  and  C_15 
REMARK    4  A    between atoms: C_25  and  C_19 
REMARK    5  A    between atoms: C_25  and  C_20 
ROOT
HETATM    1  C   UNK N   1      35.773  11.266  12.466  0.00  0.00     0.065 C 
HETATM    2  C   UNK N   1      35.135  13.550  13.119  0.00  0.00     0.065 C 
HETATM    3  C   UNK N   1      36.731  11.800  11.407  0.00  0.00     0.276 C 
HETATM    4  C   UNK N   1      36.093  14.142  12.087  0.00  0.00     0.276 C 
HETATM    5  C   UNK N   1      35.754  12.272  13.563  0.00  0.00    -0.065 C 
HETATM    6  C   UNK N   1      36.374  12.102  14.790  0.00  0.00    -0.013 C 
HETATM    7  N   UNK N   1      36.448  13.191  11.017  0.00  0.00     0.089 N 
ENDROOT
BRANCH   6   8
HETATM    8  C   UNK N   1      37.165  10.819  15.085  0.00  0.00    -0.025 A 
HETATM    9  C   UNK N   1      38.437  10.596  14.527  0.00  0.00     0.015 A 
HETATM   10  C   UNK N   1      39.127   9.396  14.740  0.00  0.00     0.043 A 
HETATM   11  C   UNK N   1      38.555   8.390  15.517  0.00  0.00     0.116 A 
HETATM   12  C   UNK N   1      37.305   8.588  16.093  0.00  0.00     0.043 A 
HETATM   13  F   UNK N   1      39.209   7.220  15.711  0.00  0.00    -0.206 F 
HETATM   14  C   UNK N   1      36.625   9.785  15.877  0.00  0.00     0.015 A 
ENDBRANCH   6   8
BRANCH   6  15
HETATM   15  C   UNK N   1      36.364  13.243  15.816  0.00  0.00    -0.025 A 
HETATM   16  C   UNK N   1      35.496  13.233  16.929  0.00  0.00     0.015 A 
HETATM   17  C   UNK N   1      35.431  14.304  17.821  0.00  0.00     0.043 A 
HETATM   18  C   UNK N   1      36.237  15.420  17.622  0.00  0.00     0.116 A 
HETATM   19  C   UNK N   1      37.117  15.456  16.541  0.00  0.00     0.043 A 
HETATM   20  F   UNK N   1      36.162  16.470  18.474  0.00  0.00    -0.206 F 
HETATM   21  C   UNK N   1      37.177  14.378  15.651  0.00  0.00     0.015 A 
ENDBRANCH   6  15
BRANCH   7  22
HETATM   22  C   UNK N   1      35.564  13.266   9.868  0.00  0.00     0.277 C 
BRANCH  22  23
HETATM   23  C   UNK N   1      35.890  14.401   8.906  0.00  0.00     0.076 C 
BRANCH  23  24
HETATM   24  C   UNK N   1      34.599  15.113   8.711  0.00  0.00     0.034 A 
HETATM   25  C   UNK N   1      34.320  16.310   9.410  0.00  0.00     0.019 A 
HETATM   26  C   UNK N   1      35.284  16.856  10.412  0.00  0.00     0.069 C 
HETATM   27  N   UNK N   1      33.179  17.004   9.142  0.00  0.00    -0.339 N 
HETATM   28  C   UNK N   1      32.322  16.533   8.205  0.00  0.00     0.158 A 
ATOM     29  HN  UNK N   1      32.973  17.869   9.642  1.00  0.00     0.168 HD
HETATM   30  N   UNK N   1      32.545  15.387   7.529  0.00  0.00    -0.268 N 
HETATM   31  S   UNK N   1      30.922  17.215   7.692  0.00  0.00    -0.064 SA
HETATM   32  C   UNK N   1      31.556  15.100   6.611  0.00  0.00     0.109 A 
HETATM   33  C   UNK N   1      33.672  14.648   7.759  0.00  0.00     0.261 A 
HETATM   34  C   UNK N   1      30.517  16.056   6.560  0.00  0.00     0.071 A 
HETATM   35  O   UNK N   1      33.879  13.619   7.135  0.00  0.00    -0.267 OA
ENDBRANCH  23  24
ENDBRANCH  22  23
ENDBRANCH   7  22
TORSDOF 5
ENDMDL
MODEL 2
REMARK VINA RESULT:      -8.4      5.935     12.457
REMARK  5 active torsions:
REMARK  status: ('A' for Active; 'I' for Inactive)
REMARK    1  A    between atoms: C_15  and  C_12 
REMARK    2  A    between atoms: C_24  and  C_12 
REMARK    3  A    between atoms: N_32  and  C_15 
REMARK    4  A    between atoms: C_25  and  C_19 
REMARK    5  A    between atoms: C_25  and  C_20 
ROOT
HETATM    1  C   UNK N   1      30.366  16.885   6.740  0.00  0.00     0.065 C 
HETATM    2  C   UNK N   1      30.028  14.768   5.533  0.00  0.00     0.065 C 
HETATM    3  C   UNK N   1      31.642  17.168   5.955  0.00  0.00     0.276 C 
HETATM    4  C   UNK N   1      31.289  15.008   4.704  0.00  0.00     0.276 C 
HETATM    5  C   UNK N   1      29.473  16.116   5.829  0.00  0.00    -0.065 C 
HETATM    6  C   UNK N   1      28.351  16.640   5.209  0.00  0.00    -0.013 C 
HETATM    7  N   UNK N   1      32.218  15.966   5.332  0.00  0.00     0.089 N 
ENDROOT
BRANCH   6   8
HETATM    8  C   UNK N   1      27.967  18.111   5.420  0.00  0.00    -0.025 A 
HETATM    9  C   UNK N   1      27.849  19.003   4.339  0.00  0.00     0.015 A 
HETATM   10  C   UNK N   1      27.567  20.360   4.538  0.00  0.00     0.043 A 
HETATM   11  C   UNK N   1      27.400  20.856   5.831  0.00  0.00     0.116 A 
HETATM   12  C   UNK N   1      27.497  19.996   6.919  0.00  0.00     0.043 A 
HETATM   13  F   UNK N   1      27.146  22.171   6.031  0.00  0.00    -0.206 F 
HETATM   14  C   UNK N   1      27.777  18.646   6.711  0.00  0.00     0.015 A 
ENDBRANCH   6   8
BRANCH   6  15
HETATM   15  C   UNK N   1      27.553  15.779   4.221  0.00  0.00    -0.025 A 
HETATM   16  C   UNK N   1      27.876  15.729   2.849  0.00  0.00     0.015 A 
HETATM   17  C   UNK N   1      27.106  15.007   1.936  0.00  0.00     0.043 A 
HETATM   18  C   UNK N   1      25.984  14.313   2.376  0.00  0.00     0.116 A 
HETATM   19  C   UNK N   1      25.644  14.329   3.727  0.00  0.00     0.043 A 
HETATM   20  F   UNK N   1      25.222  13.627   1.490  0.00  0.00    -0.206 F 
HETATM   21  C   UNK N   1      26.422  15.055   4.637  0.00  0.00     0.015 A 
ENDBRANCH   6  15
BRANCH   7  22
HETATM   22  C   UNK N   1      33.205  15.329   6.185  0.00  0.00     0.277 C 
BRANCH  22  23
HETATM   23  C   UNK N   1      34.508  16.107   6.317  0.00  0.00     0.076 C 
BRANCH  23  24
HETATM   24  C   UNK N   1      34.851  16.027   7.762  0.00  0.00     0.034 A 
HETATM   25  C   UNK N   1      34.547  17.093   8.639  0.00  0.00     0.019 A 
HETATM   26  C   UNK N   1      33.936  18.357   8.127  0.00  0.00     0.069 C 
HETATM   27  N   UNK N   1      34.773  16.961   9.975  0.00  0.00    -0.339 N 
HETATM   28  C   UNK N   1      35.291  15.802  10.447  0.00  0.00     0.158 A 
ATOM     29  HN  UNK N   1      34.556  17.727  10.613  1.00  0.00     0.168 HD
HETATM   30  N   UNK N   1      35.609  14.768   9.641  0.00  0.00    -0.268 N 
HETATM   31  S   UNK N   1      35.606  15.406  12.007  0.00  0.00    -0.064 SA
HETATM   32  C   UNK N   1      36.107  13.681  10.329  0.00  0.00     0.109 A 
HETATM   33  C   UNK N   1      35.406  14.846   8.292  0.00  0.00     0.261 A 
HETATM   34  C   UNK N   1      36.181  13.863  11.728  0.00  0.00     0.071 A 
HETATM   35  O   UNK N   1      35.680  13.904   7.566  0.00  0.00    -0.267 OA
ENDBRANCH  23  24
ENDBRANCH  22  23
ENDBRANCH   7  22
TORSDOF 5
ENDMDL
MODEL 3
REMARK VINA RESULT:      -8.2      8.190     12.360
REMARK  5 active torsions:
REMARK  status: ('A' for Active; 'I' for Inactive)
REMARK    1  A    between atoms: C_15  and  C_12 
REMARK    2  A    between atoms: C_24  and  C_12 
REMARK    3  A    between atoms: N_32  and  C_15 
REMARK    4  A    between atoms: C_25  and  C_19 
REMARK    5  A    between atoms: C_25  and  C_20 
ROOT
HETATM    1  C   UNK N   1      29.648  17.876   5.166  0.00  0.00     0.065 C 
HETATM    2  C   UNK N   1      29.621  16.562   3.086  0.00  0.00     0.065 C 
HETATM    3  C   UNK N   1      28.448  17.107   5.707  0.00  0.00     0.276 C 
HETATM    4  C   UNK N   1      28.429  15.746   3.584  0.00  0.00     0.276 C 
HETATM    5  C   UNK N   1      30.401  16.926   4.300  0.00  0.00    -0.065 C 
HETATM    6  C   UNK N   1      31.602  16.332   4.651  0.00  0.00    -0.013 C 
HETATM    7  N   UNK N   1      27.676  16.424   4.656  0.00  0.00     0.089 N 
ENDROOT
BRANCH   6   8
HETATM    8  C   UNK N   1      32.235  16.619   6.020  0.00  0.00    -0.025 A 
HETATM    9  C   UNK N   1      33.258  17.573   6.171  0.00  0.00     0.015 A 
HETATM   10  C   UNK N   1      33.883  17.784   7.405  0.00  0.00     0.043 A 
HETATM   11  C   UNK N   1      33.498  17.038   8.519  0.00  0.00     0.116 A 
HETATM   12  C   UNK N   1      32.481  16.098   8.404  0.00  0.00     0.043 A 
HETATM   13  F   UNK N   1      34.113  17.225   9.712  0.00  0.00    -0.206 F 
HETATM   14  C   UNK N   1      31.863  15.895   7.171  0.00  0.00     0.015 A 
ENDBRANCH   6   8
BRANCH   6  15
HETATM   15  C   UNK N   1      32.246  15.301   3.715  0.00  0.00    -0.025 A 
HETATM   16  C   UNK N   1      31.757  13.981   3.614  0.00  0.00     0.015 A 
HETATM   17  C   UNK N   1      32.387  13.022   2.821  0.00  0.00     0.043 A 
HETATM   18  C   UNK N   1      33.531  13.359   2.105  0.00  0.00     0.116 A 
HETATM   19  C   UNK N   1      34.032  14.657   2.170  0.00  0.00     0.043 A 
HETATM   20  F   UNK N   1      34.157  12.424   1.350  0.00  0.00    -0.206 F 
HETATM   21  C   UNK N   1      33.395  15.615   2.967  0.00  0.00     0.015 A 
ENDBRANCH   6  15
BRANCH   7  22
HETATM   22  C   UNK N   1      26.585  17.244   4.160  0.00  0.00     0.277 C 
BRANCH  22  23
HETATM   23  C   UNK N   1      26.067  18.264   5.164  0.00  0.00     0.076 C 
BRANCH  23  24
HETATM   24  C   UNK N   1      24.927  18.926   4.476  0.00  0.00     0.034 A 
HETATM   25  C   UNK N   1      25.147  19.981   3.561  0.00  0.00     0.019 A 
HETATM   26  C   UNK N   1      26.523  20.506   3.312  0.00  0.00     0.069 C 
HETATM   27  N   UNK N   1      24.101  20.505   2.863  0.00  0.00    -0.339 N 
HETATM   28  C   UNK N   1      22.858  20.005   3.058  0.00  0.00     0.158 A 
ATOM     29  HN  UNK N   1      24.254  21.266   2.201  1.00  0.00     0.168 HD
HETATM   30  N   UNK N   1      22.605  19.010   3.933  0.00  0.00    -0.268 N 
HETATM   31  S   UNK N   1      21.470  20.447   2.306  0.00  0.00    -0.064 SA
HETATM   32  C   UNK N   1      21.276  18.642   3.964  0.00  0.00     0.109 A 
HETATM   33  C   UNK N   1      23.615  18.449   4.663  0.00  0.00     0.261 A 
HETATM   34  C   UNK N   1      20.451  19.372   3.077  0.00  0.00     0.071 A 
HETATM   35  O   UNK N   1      23.387  17.537   5.443  0.00  0.00    -0.267 OA
ENDBRANCH  23  24
ENDBRANCH  22  23
ENDBRANCH   7  22
TORSDOF 5
ENDMDL
MODEL 4
REMARK VINA RESULT:      -8.0      5.984     12.394
REMARK  5 active torsions:
REMARK  status: ('A' for Active; 'I' for Inactive)
REMARK    1  A    between atoms: C_15  and  C_12 
REMARK    2  A    between atoms: C_24  and  C_12 
REMARK    3  A    between atoms: N_32  and  C_15 
REMARK    4  A    between atoms: C_25  and  C_19 
REMARK    5  A    between atoms: C_25  and  C_20 
ROOT
HETATM    1  C   UNK N   1      30.685  16.740   6.622  0.00  0.00     0.065 C 
HETATM    2  C   UNK N   1      30.169  14.687   5.369  0.00  0.00     0.065 C 
HETATM    3  C   UNK N   1      31.900  17.012   5.744  0.00  0.00     0.276 C 
HETATM    4  C   UNK N   1      31.364  14.918   4.445  0.00  0.00     0.276 C 
HETATM    5  C   UNK N   1      29.691  16.040   5.762  0.00  0.00    -0.065 C 
HETATM    6  C   UNK N   1      28.542  16.626   5.259  0.00  0.00    -0.013 C 
HETATM    7  N   UNK N   1      32.378  15.817   5.029  0.00  0.00     0.089 N 
ENDROOT
BRANCH   6   8
HETATM    8  C   UNK N   1      28.231  18.100   5.559  0.00  0.00    -0.025 A 
HETATM    9  C   UNK N   1      27.950  18.541   6.864  0.00  0.00     0.015 A 
HETATM   10  C   UNK N   1      27.598  19.870   7.127  0.00  0.00     0.043 A 
HETATM   11  C   UNK N   1      27.517  20.790   6.081  0.00  0.00     0.116 A 
HETATM   12  C   UNK N   1      27.803  20.387   4.782  0.00  0.00     0.043 A 
HETATM   13  F   UNK N   1      27.159  22.073   6.326  0.00  0.00    -0.206 F 
HETATM   14  C   UNK N   1      28.154  19.061   4.530  0.00  0.00     0.015 A 
ENDBRANCH   6   8
BRANCH   6  15
HETATM   15  C   UNK N   1      27.632  15.834   4.311  0.00  0.00    -0.025 A 
HETATM   16  C   UNK N   1      26.549  15.067   4.788  0.00  0.00     0.015 A 
HETATM   17  C   UNK N   1      25.767  14.287   3.936  0.00  0.00     0.043 A 
HETATM   18  C   UNK N   1      26.051  14.253   2.574  0.00  0.00     0.116 A 
HETATM   19  C   UNK N   1      27.105  15.011   2.067  0.00  0.00     0.043 A 
HETATM   20  F   UNK N   1      25.307  13.480   1.747  0.00  0.00    -0.206 F 
HETATM   21  C   UNK N   1      27.884  15.792   2.928  0.00  0.00     0.015 A 
ENDBRANCH   6  15
BRANCH   7  22
HETATM   22  C   UNK N   1      33.409  15.113   5.770  0.00  0.00     0.277 C 
BRANCH  22  23
HETATM   23  C   UNK N   1      34.465  16.023   6.382  0.00  0.00     0.076 C 
BRANCH  23  24
HETATM   24  C   UNK N   1      34.969  15.273   7.564  0.00  0.00     0.034 A 
HETATM   25  C   UNK N   1      36.085  14.413   7.453  0.00  0.00     0.019 A 
HETATM   26  C   UNK N   1      36.746  14.179   6.134  0.00  0.00     0.069 C 
HETATM   27  N   UNK N   1      36.597  13.816   8.566  0.00  0.00    -0.339 N 
HETATM   28  C   UNK N   1      36.025  14.056   9.769  0.00  0.00     0.158 A 
ATOM     29  HN  UNK N   1      37.403  13.194   8.492  1.00  0.00     0.168 HD
HETATM   30  N   UNK N   1      34.949  14.858   9.913  0.00  0.00    -0.268 N 
HETATM   31  S   UNK N   1      36.490  13.486  11.234  0.00  0.00    -0.064 SA
HETATM   32  C   UNK N   1      34.536  14.977  11.224  0.00  0.00     0.109 A 
HETATM   33  C   UNK N   1      34.392  15.480   8.832  0.00  0.00     0.261 A 
HETATM   34  C   UNK N   1      35.317  14.245  12.148  0.00  0.00     0.071 A 
HETATM   35  O   UNK N   1      33.428  16.218   8.967  0.00  0.00    -0.267 OA
ENDBRANCH  23  24
ENDBRANCH  22  23
ENDBRANCH   7  22
TORSDOF 5
ENDMDL
MODEL 5
REMARK VINA RESULT:      -7.9      6.018     12.084
REMARK  5 active torsions:
REMARK  status: ('A' for Active; 'I' for Inactive)
REMARK    1  A    between atoms: C_15  and  C_12 
REMARK    2  A    between atoms: C_24  and  C_12 
REMARK    3  A    between atoms: N_32  and  C_15 
REMARK    4  A    between atoms: C_25  and  C_19 
REMARK    5  A    between atoms: C_25  and  C_20 
ROOT
HETATM    1  C   UNK N   1      30.198  15.373   3.942  0.00  0.00     0.065 C 
HETATM    2  C   UNK N   1      30.763  17.561   4.915  0.00  0.00     0.065 C 
HETATM    3  C   UNK N   1      30.646  14.655   5.210  0.00  0.00     0.276 C 
HETATM    4  C   UNK N   1      31.209  16.898   6.217  0.00  0.00     0.276 C 
HETATM    5  C   UNK N   1      29.678  16.701   4.370  0.00  0.00    -0.065 C 
HETATM    6  C   UNK N   1      28.336  17.040   4.408  0.00  0.00    -0.013 C 
HETATM    7  N   UNK N   1      31.538  15.469   6.053  0.00  0.00     0.089 N 
ENDROOT
BRANCH   6   8
HETATM    8  C   UNK N   1      27.267  16.010   4.013  0.00  0.00    -0.025 A 
HETATM    9  C   UNK N   1      26.758  15.086   4.943  0.00  0.00     0.015 A 
HETATM   10  C   UNK N   1      25.836  14.103   4.566  0.00  0.00     0.043 A 
HETATM   11  C   UNK N   1      25.405  14.021   3.242  0.00  0.00     0.116 A 
HETATM   12  C   UNK N   1      25.881  14.928   2.303  0.00  0.00     0.043 A 
HETATM   13  F   UNK N   1      24.528  13.059   2.867  0.00  0.00    -0.206 F 
HETATM   14  C   UNK N   1      26.798  15.905   2.688  0.00  0.00     0.015 A 
ENDBRANCH   6   8
BRANCH   6  15
HETATM   15  C   UNK N   1      27.908  18.410   4.950  0.00  0.00    -0.025 A 
HETATM   16  C   UNK N   1      27.897  18.692   6.332  0.00  0.00     0.015 A 
HETATM   17  C   UNK N   1      27.438  19.911   6.831  0.00  0.00     0.043 A 
HETATM   18  C   UNK N   1      26.973  20.886   5.955  0.00  0.00     0.116 A 
HETATM   19  C   UNK N   1      26.984  20.647   4.582  0.00  0.00     0.043 A 
HETATM   20  F   UNK N   1      26.507  22.063   6.437  0.00  0.00    -0.206 F 
HETATM   21  C   UNK N   1      27.447  19.421   4.089  0.00  0.00     0.015 A 
ENDBRANCH   6  15
BRANCH   7  22
HETATM   22  C   UNK N   1      32.938  15.235   5.749  0.00  0.00     0.277 C 
BRANCH  22  23
HETATM   23  C   UNK N   1      33.887  16.248   6.375  0.00  0.00     0.076 C 
BRANCH  23  24
HETATM   24  C   UNK N   1      34.565  15.505   7.470  0.00  0.00     0.034 A 
HETATM   25  C   UNK N   1      35.712  14.720   7.210  0.00  0.00     0.019 A 
HETATM   26  C   UNK N   1      36.235  14.562   5.820  0.00  0.00     0.069 C 
HETATM   27  N   UNK N   1      36.381  14.131   8.240  0.00  0.00    -0.339 N 
HETATM   28  C   UNK N   1      35.933  14.304   9.506  0.00  0.00     0.158 A 
ATOM     29  HN  UNK N   1      37.210  13.564   8.059  1.00  0.00     0.168 HD
HETATM   30  N   UNK N   1      34.833  15.032   9.793  0.00  0.00    -0.268 N 
HETATM   31  S   UNK N   1      36.593  13.730  10.892  0.00  0.00    -0.064 SA
HETATM   32  C   UNK N   1      34.562  15.092  11.144  0.00  0.00     0.109 A 
HETATM   33  C   UNK N   1      34.121  15.643   8.799  0.00  0.00     0.261 A 
HETATM   34  C   UNK N   1      35.485  14.390  11.953  0.00  0.00     0.071 A 
HETATM   35  O   UNK N   1      33.135  16.314   9.062  0.00  0.00    -0.267 OA
ENDBRANCH  23  24
ENDBRANCH  22  23
ENDBRANCH   7  22
TORSDOF 5
ENDMDL
MODEL 6
REMARK VINA RESULT:      -7.9      1.282      2.168
REMARK  5 active torsions:
REMARK  status: ('A' for Active; 'I' for Inactive)
REMARK    1  A    between atoms: C_15  and  C_12 
REMARK    2  A    between atoms: C_24  and  C_12 
REMARK    3  A    between atoms: N_32  and  C_15 
REMARK    4  A    between atoms: C_25  and  C_19 
REMARK    5  A    between atoms: C_25  and  C_20 
ROOT
HETATM    1  C   UNK N   1      35.221  10.638  12.973  0.00  0.00     0.065 C 
HETATM    2  C   UNK N   1      34.788  13.028  13.365  0.00  0.00     0.065 C 
HETATM    3  C   UNK N   1      36.156  10.962  11.814  0.00  0.00     0.276 C 
HETATM    4  C   UNK N   1      35.729  13.413  12.224  0.00  0.00     0.276 C 
HETATM    5  C   UNK N   1      35.336  11.768  13.936  0.00  0.00    -0.065 C 
HETATM    6  C   UNK N   1      36.008  11.699  15.145  0.00  0.00    -0.013 C 
HETATM    7  N   UNK N   1      35.954  12.314  11.266  0.00  0.00     0.089 N 
ENDROOT
BRANCH   6   8
HETATM    8  C   UNK N   1      36.718  10.403  15.562  0.00  0.00    -0.025 A 
HETATM    9  C   UNK N   1      36.222   9.596  16.601  0.00  0.00     0.015 A 
HETATM   10  C   UNK N   1      36.908   8.452  17.028  0.00  0.00     0.043 A 
HETATM   11  C   UNK N   1      38.111   8.093  16.422  0.00  0.00     0.116 A 
HETATM   12  C   UNK N   1      38.620   8.864  15.383  0.00  0.00     0.043 A 
HETATM   13  F   UNK N   1      38.789   6.998  16.843  0.00  0.00    -0.206 F 
HETATM   14  C   UNK N   1      37.930  10.001  14.964  0.00  0.00     0.015 A 
ENDBRANCH   6   8
BRANCH   6  15
HETATM   15  C   UNK N   1      36.137  12.953  16.020  0.00  0.00    -0.025 A 
HETATM   16  C   UNK N   1      35.344  13.141  17.171  0.00  0.00     0.015 A 
HETATM   17  C   UNK N   1      35.406  14.314  17.925  0.00  0.00     0.043 A 
HETATM   18  C   UNK N   1      36.269  15.336  17.544  0.00  0.00     0.116 A 
HETATM   19  C   UNK N   1      37.079  15.177  16.421  0.00  0.00     0.043 A 
HETATM   20  F   UNK N   1      36.317  16.483  18.262  0.00  0.00    -0.206 F 
HETATM   21  C   UNK N   1      37.011  13.998  15.670  0.00  0.00     0.015 A 
ENDBRANCH   6  15
BRANCH   7  22
HETATM   22  C   UNK N   1      35.015  12.320  10.158  0.00  0.00     0.277 C 
BRANCH  22  23
HETATM   23  C   UNK N   1      35.650  12.625   8.808  0.00  0.00     0.076 C 
BRANCH  23  24
HETATM   24  C   UNK N   1      34.856  13.760   8.266  0.00  0.00     0.034 A 
HETATM   25  C   UNK N   1      33.764  13.530   7.398  0.00  0.00     0.019 A 
HETATM   26  C   UNK N   1      33.421  12.148   6.947  0.00  0.00     0.069 C 
HETATM   27  N   UNK N   1      32.985  14.572   6.994  0.00  0.00    -0.339 N 
HETATM   28  C   UNK N   1      33.270  15.821   7.433  0.00  0.00     0.158 A 
ATOM     29  HN  UNK N   1      32.195  14.412   6.368  1.00  0.00     0.168 HD
HETATM   30  N   UNK N   1      34.312  16.083   8.249  0.00  0.00    -0.268 N 
HETATM   31  S   UNK N   1      32.454  17.207   7.115  0.00  0.00    -0.064 SA
HETATM   32  C   UNK N   1      34.412  17.417   8.586  0.00  0.00     0.109 A 
HETATM   33  C   UNK N   1      35.130  15.077   8.683  0.00  0.00     0.261 A 
HETATM   34  C   UNK N   1      33.410  18.236   8.017  0.00  0.00     0.071 A 
HETATM   35  O   UNK N   1      36.063  15.314   9.434  0.00  0.00    -0.267 OA
ENDBRANCH  23  24
ENDBRANCH  22  23
ENDBRANCH   7  22
TORSDOF 5
ENDMDL
MODEL 7
REMARK VINA RESULT:      -7.8      9.751     13.907
REMARK  5 active torsions:
REMARK  status: ('A' for Active; 'I' for Inactive)
REMARK    1  A    between atoms: C_15  and  C_12 
REMARK    2  A    between atoms: C_24  and  C_12 
REMARK    3  A    between atoms: N_32  and  C_15 
REMARK    4  A    between atoms: C_25  and  C_19 
REMARK    5  A    between atoms: C_25  and  C_20 
ROOT
HETATM    1  C   UNK N   1      26.939  17.054   3.316  0.00  0.00     0.065 C 
HETATM    2  C   UNK N   1      28.880  15.585   2.963  0.00  0.00     0.065 C 
HETATM    3  C   UNK N   1      26.172  15.932   4.006  0.00  0.00     0.276 C 
HETATM    4  C   UNK N   1      28.167  14.429   3.663  0.00  0.00     0.276 C 
HETATM    5  C   UNK N   1      28.379  16.825   3.614  0.00  0.00    -0.065 C 
HETATM    6  C   UNK N   1      29.121  17.578   4.509  0.00  0.00    -0.013 C 
HETATM    7  N   UNK N   1      26.701  14.593   3.698  0.00  0.00     0.089 N 
ENDROOT
BRANCH   6   8
HETATM    8  C   UNK N   1      28.461  18.724   5.290  0.00  0.00    -0.025 A 
HETATM    9  C   UNK N   1      28.214  18.625   6.671  0.00  0.00     0.015 A 
HETATM   10  C   UNK N   1      27.548  19.640   7.368  0.00  0.00     0.043 A 
HETATM   11  C   UNK N   1      27.111  20.780   6.694  0.00  0.00     0.116 A 
HETATM   12  C   UNK N   1      27.353  20.912   5.331  0.00  0.00     0.043 A 
HETATM   13  F   UNK N   1      26.450  21.757   7.359  0.00  0.00    -0.206 F 
HETATM   14  C   UNK N   1      28.017  19.897   4.645  0.00  0.00     0.015 A 
ENDBRANCH   6   8
BRANCH   6  15
HETATM   15  C   UNK N   1      30.579  17.198   4.804  0.00  0.00    -0.025 A 
HETATM   16  C   UNK N   1      30.919  16.309   5.844  0.00  0.00     0.015 A 
HETATM   17  C   UNK N   1      32.246  16.020   6.162  0.00  0.00     0.043 A 
HETATM   18  C   UNK N   1      33.275  16.619   5.442  0.00  0.00     0.116 A 
HETATM   19  C   UNK N   1      32.974  17.491   4.397  0.00  0.00     0.043 A 
HETATM   20  F   UNK N   1      34.566  16.357   5.761  0.00  0.00    -0.206 F 
HETATM   21  C   UNK N   1      31.640  17.775   4.084  0.00  0.00     0.015 A 
ENDBRANCH   6  15
BRANCH   7  22
HETATM   22  C   UNK N   1      26.029  13.989   2.562  0.00  0.00     0.277 C 
BRANCH  22  23
HETATM   23  C   UNK N   1      24.833  13.124   2.936  0.00  0.00     0.076 C 
BRANCH  23  24
HETATM   24  C   UNK N   1      23.648  13.974   2.647  0.00  0.00     0.034 A 
HETATM   25  C   UNK N   1      23.149  14.098   1.331  0.00  0.00     0.019 A 
HETATM   26  C   UNK N   1      23.837  13.434   0.184  0.00  0.00     0.069 C 
HETATM   27  N   UNK N   1      22.002  14.796   1.100  0.00  0.00    -0.339 N 
HETATM   28  C   UNK N   1      21.353  15.367   2.143  0.00  0.00     0.158 A 
ATOM     29  HN  UNK N   1      21.637  14.889   0.152  1.00  0.00     0.168 HD
HETATM   30  N   UNK N   1      21.806  15.285   3.412  0.00  0.00    -0.268 N 
HETATM   31  S   UNK N   1      19.949  16.211   2.111  0.00  0.00    -0.064 SA
HETATM   32  C   UNK N   1      20.987  15.923   4.320  0.00  0.00     0.109 A 
HETATM   33  C   UNK N   1      22.953  14.600   3.701  0.00  0.00     0.261 A 
HETATM   34  C   UNK N   1      19.845  16.526   3.747  0.00  0.00     0.071 A 
HETATM   35  O   UNK N   1      23.353  14.514   4.851  0.00  0.00    -0.267 OA
ENDBRANCH  23  24
ENDBRANCH  22  23
ENDBRANCH   7  22
TORSDOF 5
ENDMDL
MODEL 8
REMARK VINA RESULT:      -7.8     19.356     23.708
REMARK  5 active torsions:
REMARK  status: ('A' for Active; 'I' for Inactive)
REMARK    1  A    between atoms: C_15  and  C_12 
REMARK    2  A    between atoms: C_24  and  C_12 
REMARK    3  A    between atoms: N_32  and  C_15 
REMARK    4  A    between atoms: C_25  and  C_19 
REMARK    5  A    between atoms: C_25  and  C_20 
ROOT
HETATM    1  C   UNK N   1      29.250  24.358  -6.613  0.00  0.00     0.065 C 
HETATM    2  C   UNK N   1      29.399  25.822  -4.641  0.00  0.00     0.065 C 
HETATM    3  C   UNK N   1      28.764  23.195  -5.755  0.00  0.00     0.276 C 
HETATM    4  C   UNK N   1      28.898  24.698  -3.735  0.00  0.00     0.276 C 
HETATM    5  C   UNK N   1      28.750  25.600  -5.961  0.00  0.00    -0.065 C 
HETATM    6  C   UNK N   1      27.701  26.367  -6.442  0.00  0.00    -0.013 C 
HETATM    7  N   UNK N   1      29.077  23.359  -4.326  0.00  0.00     0.089 N 
ENDROOT
BRANCH   6   8
HETATM    8  C   UNK N   1      26.956  25.946  -7.716  0.00  0.00    -0.025 A 
HETATM    9  C   UNK N   1      27.228  26.545  -8.959  0.00  0.00     0.015 A 
HETATM   10  C   UNK N   1      26.499  26.210 -10.107  0.00  0.00     0.043 A 
HETATM   11  C   UNK N   1      25.476  25.266 -10.033  0.00  0.00     0.116 A 
HETATM   12  C   UNK N   1      25.192  24.646  -8.820  0.00  0.00     0.043 A 
HETATM   13  F   UNK N   1      24.754  24.951 -11.135  0.00  0.00    -0.206 F 
HETATM   14  C   UNK N   1      25.924  24.985  -7.683  0.00  0.00     0.015 A 
ENDBRANCH   6   8
BRANCH   6  15
HETATM   15  C   UNK N   1      27.213  27.582  -5.641  0.00  0.00    -0.025 A 
HETATM   16  C   UNK N   1      27.781  28.862  -5.811  0.00  0.00     0.015 A 
HETATM   17  C   UNK N   1      27.390  29.950  -5.031  0.00  0.00     0.043 A 
HETATM   18  C   UNK N   1      26.415  29.785  -4.053  0.00  0.00     0.116 A 
HETATM   19  C   UNK N   1      25.822  28.538  -3.868  0.00  0.00     0.043 A 
HETATM   20  F   UNK N   1      26.048  30.835  -3.279  0.00  0.00    -0.206 F 
HETATM   21  C   UNK N   1      26.219  27.450  -4.655  0.00  0.00     0.015 A 
ENDBRANCH   6  15
BRANCH   7  22
HETATM   22  C   UNK N   1      30.342  22.740  -3.970  0.00  0.00     0.277 C 
BRANCH  22  23
HETATM   23  C   UNK N   1      30.290  21.221  -3.889  0.00  0.00     0.076 C 
BRANCH  23  24
HETATM   24  C   UNK N   1      31.533  20.764  -4.565  0.00  0.00     0.034 A 
HETATM   25  C   UNK N   1      31.499  20.282  -5.894  0.00  0.00     0.019 A 
HETATM   26  C   UNK N   1      30.206  20.154  -6.630  0.00  0.00     0.069 C 
HETATM   27  N   UNK N   1      32.660  19.966  -6.533  0.00  0.00    -0.339 N 
HETATM   28  C   UNK N   1      33.837  20.117  -5.881  0.00  0.00     0.158 A 
ATOM     29  HN  UNK N   1      32.641  19.618  -7.492  1.00  0.00     0.168 HD
HETATM   30  N   UNK N   1      33.909  20.559  -4.608  0.00  0.00    -0.268 N 
HETATM   31  S   UNK N   1      35.346  19.842  -6.458  0.00  0.00    -0.064 SA
HETATM   32  C   UNK N   1      35.204  20.654  -4.142  0.00  0.00     0.109 A 
HETATM   33  C   UNK N   1      32.777  20.888  -3.917  0.00  0.00     0.261 A 
HETATM   34  C   UNK N   1      36.189  20.277  -5.084  0.00  0.00     0.071 A 
HETATM   35  O   UNK N   1      32.846  21.302  -2.771  0.00  0.00    -0.267 OA
ENDBRANCH  23  24
ENDBRANCH  22  23
ENDBRANCH   7  22
TORSDOF 5
ENDMDL
MODEL 9
REMARK VINA RESULT:      -7.7     18.937     23.698
REMARK  5 active torsions:
REMARK  status: ('A' for Active; 'I' for Inactive)
REMARK    1  A    between atoms: C_15  and  C_12 
REMARK    2  A    between atoms: C_24  and  C_12 
REMARK    3  A    between atoms: N_32  and  C_15 
REMARK    4  A    between atoms: C_25  and  C_19 
REMARK    5  A    between atoms: C_25  and  C_20 
ROOT
HETATM    1  C   UNK N   1      29.305  24.335  -6.589  0.00  0.00     0.065 C 
HETATM    2  C   UNK N   1      29.565  25.758  -4.599  0.00  0.00     0.065 C 
HETATM    3  C   UNK N   1      28.854  23.158  -5.730  0.00  0.00     0.276 C 
HETATM    4  C   UNK N   1      29.102  24.621  -3.690  0.00  0.00     0.276 C 
HETATM    5  C   UNK N   1      28.847  25.567  -5.888  0.00  0.00    -0.065 C 
HETATM    6  C   UNK N   1      27.782  26.350  -6.301  0.00  0.00    -0.013 C 
HETATM    7  N   UNK N   1      29.241  23.292  -4.315  0.00  0.00     0.089 N 
ENDROOT
BRANCH   6   8
HETATM    8  C   UNK N   1      26.969  25.958  -7.543  0.00  0.00    -0.025 A 
HETATM    9  C   UNK N   1      26.014  24.927  -7.500  0.00  0.00     0.015 A 
HETATM   10  C   UNK N   1      25.324  24.522  -8.649  0.00  0.00     0.043 A 
HETATM   11  C   UNK N   1      25.579  25.143  -9.872  0.00  0.00     0.116 A 
HETATM   12  C   UNK N   1      26.509  26.175  -9.942  0.00  0.00     0.043 A 
HETATM   13  F   UNK N   1      24.929  24.744 -10.991  0.00  0.00    -0.206 F 
HETATM   14  C   UNK N   1      27.190  26.572  -8.793  0.00  0.00     0.015 A 
ENDBRANCH   6   8
BRANCH   6  15
HETATM   15  C   UNK N   1      27.344  27.551  -5.452  0.00  0.00    -0.025 A 
HETATM   16  C   UNK N   1      26.378  27.428  -4.432  0.00  0.00     0.015 A 
HETATM   17  C   UNK N   1      25.924  28.532  -3.710  0.00  0.00     0.043 A 
HETATM   18  C   UNK N   1      26.426  29.798  -3.994  0.00  0.00     0.116 A 
HETATM   19  C   UNK N   1      27.392  29.954  -4.986  0.00  0.00     0.043 A 
HETATM   20  F   UNK N   1      25.972  30.875  -3.310  0.00  0.00    -0.206 F 
HETATM   21  C   UNK N   1      27.844  28.841  -5.705  0.00  0.00     0.015 A 
ENDBRANCH   6  15
BRANCH   7  22
HETATM   22  C   UNK N   1      30.517  22.658  -4.036  0.00  0.00     0.277 C 
BRANCH  22  23
HETATM   23  C   UNK N   1      30.453  21.139  -3.953  0.00  0.00     0.076 C 
BRANCH  23  24
HETATM   24  C   UNK N   1      31.555  20.666  -4.833  0.00  0.00     0.034 A 
HETATM   25  C   UNK N   1      32.878  20.566  -4.345  0.00  0.00     0.019 A 
HETATM   26  C   UNK N   1      33.218  20.997  -2.956  0.00  0.00     0.069 C 
HETATM   27  N   UNK N   1      33.854  20.033  -5.132  0.00  0.00    -0.339 N 
HETATM   28  C   UNK N   1      33.541  19.605  -6.377  0.00  0.00     0.158 A 
ATOM     29  HN  UNK N   1      34.811  19.958  -4.785  1.00  0.00     0.168 HD
HETATM   30  N   UNK N   1      32.294  19.698  -6.884  0.00  0.00    -0.268 N 
HETATM   31  S   UNK N   1      34.533  18.899  -7.475  0.00  0.00    -0.064 SA
HETATM   32  C   UNK N   1      32.191  19.190  -8.163  0.00  0.00     0.109 A 
HETATM   33  C   UNK N   1      31.276  20.228  -6.142  0.00  0.00     0.261 A 
HETATM   34  C   UNK N   1      33.401  18.674  -8.681  0.00  0.00     0.071 A 
HETATM   35  O   UNK N   1      30.145  20.296  -6.596  0.00  0.00    -0.267 OA
ENDBRANCH  23  24
ENDBRANCH  22  23
ENDBRANCH   7  22
TORSDOF 5
ENDMDL
