REMARK  8 active torsions:
REMARK  status: ('A' for Active; 'I' for Inactive)
REMARK    1  A    between atoms: C_3  and  O_23 
REMARK    2  A    between atoms: C_6  and  O_7 
REMARK    3  A    between atoms: O_7  and  C_8 
REMARK    4  A    between atoms: C_11  and  C_15 
REMARK    5  A    between atoms: C_15  and  C_16 
REMARK    6  A    between atoms: C_16  and  C_17 
REMARK    7  A    between atoms: C_16  and  N_20 
REMARK    8  A    between atoms: C_17  and  O_19 
ROOT
HETATM    1  C   UNK N   1      -1.073  -0.064  -0.253  0.00  0.00     0.109 A 
HETATM    2  C   UNK N   1      -2.340  -0.565  -0.693  0.00  0.00     0.042 A 
HETATM    3  C   UNK N   1      -3.442   0.288  -0.711  0.00  0.00     0.028 A 
HETATM    4  C   UNK N   1      -3.351   1.616  -0.319  0.00  0.00    -0.053 A 
HETATM    5  C   UNK N   1      -2.115   2.126   0.086  0.00  0.00     0.028 A 
HETATM    6  C   UNK N   1      -0.988   1.299   0.113  0.00  0.00     0.042 A 
HETATM    7  I   UNK N   1       0.864   2.152   0.678  0.00  0.00    -0.042 I 
HETATM    8  I   UNK N   1      -2.781  -2.478  -1.505  0.00  0.00    -0.042 I 
ENDROOT
BRANCH   1   9
HETATM    9  O   UNK N   1       0.084  -0.786  -0.221  0.00  0.00    -0.308 OA
BRANCH   9  10
HETATM   10  C   UNK N   1       0.326  -2.108  -0.012  0.00  0.00     0.077 A 
HETATM   11  C   UNK N   1      -0.596  -2.958   0.615  0.00  0.00     0.058 A 
HETATM   12  C   UNK N   1      -0.316  -4.323   0.765  0.00  0.00     0.042 A 
HETATM   13  C   UNK N   1       0.911  -4.836   0.322  0.00  0.00     0.082 A 
HETATM   14  I   UNK N   1      -1.783  -5.589   1.604  0.00  0.00    -0.042 I 
HETATM   15  C   UNK N   1       1.854  -3.982  -0.252  0.00  0.00     0.040 A 
HETATM   16  C   UNK N   1       1.561  -2.625  -0.417  0.00  0.00     0.040 A 
BRANCH  13  17
HETATM   17  O   UNK N   1       1.188  -6.146   0.442  0.00  0.00    -0.359 OA
HETATM   18  H   UNK N   1       0.493  -6.770   0.525  0.00  0.00     0.217 HD
ENDBRANCH  13  17
ENDBRANCH   9  10
ENDBRANCH   1   9
BRANCH   4  19
HETATM   19  C   UNK N   1      -4.605   2.437  -0.372  0.00  0.00     0.074 C 
BRANCH  19  20
HETATM   20  C   UNK N   1      -4.525   3.864   0.164  0.00  0.00     0.177 C 
BRANCH  20  21
HETATM   21  C   UNK N   1      -5.908   4.434   0.337  0.00  0.00     0.163 C 
HETATM   22  O   UNK N   1      -6.047   5.553   0.803  0.00  0.00    -0.648 OA
BRANCH  21  23
HETATM   23  O   UNK N   1      -6.999   3.717  -0.002  0.00  0.00    -0.775 OA
HETATM   24  H   UNK N   1      -7.809   4.124  -0.239  0.00  0.00     0.167 HD
ENDBRANCH  21  23
ENDBRANCH  20  21
BRANCH  20  25
HETATM   25  N   UNK N   1      -3.765   4.699  -0.753  0.00  0.00    -0.417 N 
HETATM   26  H   UNK N   1      -2.992   4.531  -1.396  0.00  0.00     0.150 HD
HETATM   27  H   UNK N   1      -4.076   5.671  -0.753  0.00  0.00     0.150 HD
ENDBRANCH  20  25
ENDBRANCH  19  20
ENDBRANCH   4  19
TORSDOF 8
